REMARK  Name = ZINC17794691
REMARK  9 active torsions:
REMARK  status: ('A' for Active; 'I' for Inactive)
REMARK    1  A    between atoms: C_1  and  N_65
REMARK    2  A    between atoms: C_2  and  N_65
REMARK    3  A    between atoms: C_3  and  C_5
REMARK    4  A    between atoms: C_3  and  C_27
REMARK    5  A    between atoms: C_3  and  N_65
REMARK    6  A    between atoms: C_5  and  N_6
REMARK    7  A    between atoms: C_7  and  C_9
REMARK    8  A    between atoms: N_12  and  S_15
REMARK    9  A    between atoms: S_15  and  C_18
REMARK                            x       y       z     vdW  Elec       q    Type
REMARK                         _______ _______ _______ _____ _____    ______ ____
ROOT
ATOM      1  C   UNL     1      -4.483   0.851  -1.969  0.00  0.00    +0.077 C 
ATOM      2  C   UNL     1      -4.550   2.333  -1.592  0.00  0.00    +0.030 C 
ATOM      3  C   UNL     1      -5.364   3.088  -2.647  0.00  0.00    +0.110 C 
ATOM      4  N   UNL     1      -6.675   2.440  -2.785  0.00  0.00    -0.177 NA
ATOM      5  C   UNL     1      -6.726   0.998  -3.058  0.00  0.00    +0.110 C 
ATOM      6  C   UNL     1      -5.897   0.266  -1.998  0.00  0.00    +0.030 C 
ENDROOT
BRANCH   1   8
ATOM      7  N   UNL     1      -2.366   0.456  -0.750  0.00  0.00    -0.316 N 
ATOM      8  C   UNL     1      -3.654   0.111  -0.950  0.00  0.00    +0.216 C 
ATOM      9  O   UNL     1      -4.146  -0.795  -0.311  0.00  0.00    -0.276 OA
ATOM     10  H   UNL     1      -1.973   1.180  -1.262  0.00  0.00    +0.149 HD
BRANCH   7  11
ATOM     11  C   UNL     1      -1.561  -0.264   0.239  0.00  0.00    +0.093 C 
BRANCH  11  12
ATOM     12  C   UNL     1      -0.115   0.232   0.177  0.00  0.00    -0.021 C 
BRANCH  12  13
ATOM     13  C   UNL     1       0.479  -0.120  -1.162  0.00  0.00    -0.057 A 
ATOM     14  C   UNL     1       0.560   0.839  -2.156  0.00  0.00    +0.002 A 
ATOM     15  C   UNL     1       1.104   0.518  -3.385  0.00  0.00    +0.003 A 
ATOM     16  C   UNL     1       1.570  -0.762  -3.622  0.00  0.00    +0.038 A 
ATOM     17  C   UNL     1       1.490  -1.722  -2.628  0.00  0.00    +0.124 A 
ATOM     18  C   UNL     1       0.949  -1.398  -1.395  0.00  0.00    +0.040 A 
ATOM     19  F   UNL     1       1.945  -2.973  -2.859  0.00  0.00    -0.205 F 
ENDBRANCH  12  13
BRANCH  12  22
ATOM     20  C   UNL     1       2.053   0.082   1.245  0.00  0.00    -0.096 C 
ATOM     21  C   UNL     1       0.037  -0.205   2.554  0.00  0.00    -0.096 C 
ATOM     22  N   UNL     1       0.669  -0.436   1.238  0.00  0.00    +0.382 N 
ATOM     23  H   UNL     1       0.691  -1.445   1.051  0.00  0.00    -0.082 HD
ENDBRANCH  12  22
ENDBRANCH  11  12
ENDBRANCH   7  11
ENDBRANCH   1   8
BRANCH   4  24
ATOM     24  S   UNL     1      -8.070   3.320  -2.636  0.00  0.00    +0.061 S 
ATOM     25  O   UNL     1      -7.735   4.668  -2.939  0.00  0.00    -0.153 OA
ATOM     26  O   UNL     1      -9.077   2.609  -3.344  0.00  0.00    -0.153 OA
BRANCH  24  27
ATOM     27  C   UNL     1      -8.529   3.286  -0.936  0.00  0.00    +0.106 A 
ATOM     28  C   UNL     1      -8.065   4.261  -0.073  0.00  0.00    +0.029 A 
ATOM     29  C   UNL     1      -8.426   4.232   1.259  0.00  0.00    +0.006 A 
ATOM     30  C   UNL     1      -9.253   3.228   1.735  0.00  0.00    -0.044 A 
ATOM     31  C   UNL     1      -9.717   2.253   0.873  0.00  0.00    -0.042 A 
ATOM     32  C   UNL     1      -9.358   2.287  -0.464  0.00  0.00    +0.032 A 
ATOM     33  C   UNL     1     -10.596   1.278   1.629  0.00  0.00    +0.036 C 
ATOM     34  C   UNL     1     -10.971   2.004   2.938  0.00  0.00    +0.009 C 
ATOM     35  C   UNL     1      -9.787   2.976   3.129  0.00  0.00    +0.036 C 
ENDBRANCH  24  27
ENDBRANCH   4  24
TORSDOF 7
