REMARK  Name = ZINC16125040
REMARK  8 active torsions:
REMARK  status: ('A' for Active; 'I' for Inactive)
REMARK    1  A    between atoms: C_1  and  C_2
REMARK    2  A    between atoms: C_5  and  N_27
REMARK    3  A    between atoms: C_6  and  O_8
REMARK    4  A    between atoms: O_8  and  C_9
REMARK    5  A    between atoms: C_9  and  C_10
REMARK    6  A    between atoms: C_16  and  S_23
REMARK    7  A    between atoms: C_20  and  C_22
REMARK    8  A    between atoms: S_23  and  N_26
REMARK                            x       y       z     vdW  Elec       q    Type
REMARK                         _______ _______ _______ _____ _____    ______ ____
ROOT
ATOM      1  C   UNL     1       0.192  -4.198  -0.021  0.00  0.00    +0.258 C 
ATOM      2  O   UNL     1       1.320  -4.644  -0.034  0.00  0.00    -0.272 OA
ATOM      3  N   UNL     1      -0.864  -5.036  -0.015  0.00  0.00    -0.265 N 
ATOM      4  C   UNL     1      -2.204  -4.636  -0.000  0.00  0.00    +0.040 A 
ATOM      5  C   UNL     1      -2.743  -3.349   0.010  0.00  0.00    +0.026 A 
ATOM      6  C   UNL     1      -4.109  -3.167   0.024  0.00  0.00    +0.030 A 
ATOM      7  C   UNL     1      -4.957  -4.261   0.027  0.00  0.00    +0.105 A 
ATOM      8  C   UNL     1      -4.430  -5.538   0.016  0.00  0.00    +0.034 A 
ATOM      9  C   UNL     1      -3.061  -5.725   0.003  0.00  0.00    -0.022 A 
ATOM     10  C   UNL     1      -2.232  -6.990  -0.011  0.00  0.00    +0.059 C 
ATOM     11  C   UNL     1      -0.776  -6.498  -0.029  0.00  0.00    +0.083 C 
ATOM     12  C   UNL     1      -0.035  -6.998   1.213  0.00  0.00    +0.029 C 
ENDROOT
BRANCH   7  13
ATOM     13  S   UNL     1      -6.703  -4.025   0.045  0.00  0.00    +0.056 S 
ATOM     14  O   UNL     1      -7.266  -5.207   0.596  0.00  0.00    -0.153 OA
ATOM     15  O   UNL     1      -6.933  -2.739   0.605  0.00  0.00    -0.153 OA
BRANCH  13  16
ATOM     16  N   UNL     1      -7.203  -3.952  -1.532  0.00  0.00    -0.204 NA
ATOM     17  H   UNL     1      -6.557  -4.036  -2.250  0.00  0.00    +0.144 HD
ATOM     18  H   UNL     1      -8.143  -3.824  -1.737  0.00  0.00    +0.144 HD
ENDBRANCH  13  16
ENDBRANCH   7  13
BRANCH   1  19
ATOM     19  C   UNL     1      -0.028  -2.708  -0.011  0.00  0.00    +0.325 C 
BRANCH  19  20
ATOM     20  O   UNL     1       1.235  -2.039  -0.020  0.00  0.00    -0.480 OA
BRANCH  20  26
ATOM     21  C   UNL     1      -1.332   2.112   0.020  0.00  0.00    +0.044 C 
ATOM     22  C   UNL     1      -0.017   1.377   0.010  0.00  0.00    -0.047 A 
ATOM     23  C   UNL     1       1.171   2.086   0.002  0.00  0.00    +0.006 A 
ATOM     24  C   UNL     1       2.379   1.415  -0.013  0.00  0.00    +0.037 A 
ATOM     25  C   UNL     1       2.403   0.033  -0.021  0.00  0.00    +0.168 A 
ATOM     26  C   UNL     1       1.214  -0.680  -0.013  0.00  0.00    +0.152 A 
ATOM     27  C   UNL     1       0.002  -0.004   0.002  0.00  0.00    +0.051 A 
BRANCH  25  28
ATOM     28  N   UNL     1       3.697  -0.685  -0.036  0.00  0.00    +0.060 N 
ATOM     29  O   UNL     1       4.742  -0.058  -0.043  0.00  0.00    -0.126 OA
ATOM     30  O   UNL     1       3.718  -1.903  -0.043  0.00  0.00    -0.126 OA
ENDBRANCH  25  28
ENDBRANCH  20  26
ENDBRANCH  19  20
ENDBRANCH   1  19
TORSDOF 6
