REMARK  Name = ZINC04987703
REMARK  6 active torsions:
REMARK  status: ('A' for Active; 'I' for Inactive)
REMARK    1  A    between atoms: C_5  and  C_7
REMARK    2  A    between atoms: C_7  and  N_8
REMARK    3  A    between atoms: C_9  and  C_11
REMARK    4  A    between atoms: C_11  and  S_12
REMARK    5  A    between atoms: S_12  and  C_13
REMARK    6  A    between atoms: C_14  and  C_24
REMARK                            x       y       z     vdW  Elec       q    Type
REMARK                         _______ _______ _______ _____ _____    ______ ____
ROOT
ATOM      1  S   UNL     1       1.844  -6.325   2.951  0.00  0.00    -0.107 S 
ENDROOT
BRANCH   1   2
ATOM      2  C   UNL     1       2.163  -6.757   4.629  0.00  0.00    +0.066 A 
ATOM      3  C   UNL     1       2.288  -8.032   5.165  0.00  0.00    +0.098 A 
ATOM      4  C   UNL     1       2.554  -8.135   6.592  0.00  0.00    +0.107 A 
ATOM      5  C   UNL     1       2.647  -6.889   7.226  0.00  0.00    +0.104 A 
ATOM      6  S   UNL     1       2.391  -5.717   5.926  0.00  0.00    -0.074 S 
ATOM      7  C   UNL     1       2.899  -6.797   8.593  0.00  0.00    +0.269 A 
ATOM      8  N   UNL     1       3.052  -7.944   9.295  0.00  0.00    -0.273 N 
ATOM      9  C   UNL     1       2.957  -9.141   8.652  0.00  0.00    +0.349 A 
ATOM     10  O   UNL     1       3.112 -10.275   9.369  0.00  0.00    -0.245 OA
ATOM     11  N   UNL     1       2.720  -9.237   7.372  0.00  0.00    -0.191 NA
ATOM     12  O   UNL     1       2.981  -5.710   9.143  0.00  0.00    -0.266 OA
ATOM     13  H   UNL     1       3.229  -7.914  10.248  0.00  0.00    +0.174 HD
BRANCH   3  14
ATOM     14  C   UNL     1       2.158  -9.200   4.346  0.00  0.00    +0.103 C 
ATOM     15  N   UNL     1       2.055 -10.126   3.696  0.00  0.00    -0.191 NA
ENDBRANCH   3  14
ENDBRANCH   1   2
BRANCH   1  16
ATOM     16  C   UNL     1       1.819  -4.511   2.961  0.00  0.00    +0.170 C 
BRANCH  16  18
ATOM     17  N   UNL     1       1.489  -2.679   1.333  0.00  0.00    -0.310 N 
ATOM     18  C   UNL     1       1.552  -4.005   1.567  0.00  0.00    +0.223 C 
ATOM     19  O   UNL     1       1.393  -4.790   0.657  0.00  0.00    -0.275 OA
ATOM     20  H   UNL     1       1.615  -2.051   2.062  0.00  0.00    +0.149 HD
BRANCH  17  21
ATOM     21  C   UNL     1       1.229  -2.186  -0.022  0.00  0.00    +0.141 C 
BRANCH  21  26
ATOM     22  C   UNL     1      -0.017   1.378   0.010  0.00  0.00    +0.000 A 
ATOM     23  C   UNL     1       1.171   2.086   0.002  0.00  0.00    +0.001 A 
ATOM     24  C   UNL     1       2.377   1.412  -0.013  0.00  0.00    +0.020 A 
ATOM     25  C   UNL     1       2.397   0.029  -0.021  0.00  0.00    +0.046 A 
ATOM     26  C   UNL     1       1.208  -0.679  -0.013  0.00  0.00    -0.012 A 
ATOM     27  C   UNL     1       0.002  -0.004   0.002  0.00  0.00    +0.006 A 
ATOM     28 CL   UNL     1       3.912  -0.818  -0.041  0.00  0.00    -0.083 Cl
ENDBRANCH  21  26
ENDBRANCH  17  21
ENDBRANCH  16  18
ENDBRANCH   1  16
TORSDOF 6
