REMARK  Name = ZINC13063883
REMARK  13 active torsions:
REMARK  status: ('A' for Active; 'I' for Inactive)
REMARK    1  A    between atoms: C_1  and  C_2
REMARK    2  A    between atoms: C_2  and  C_3
REMARK    3  A    between atoms: C_3  and  C_5
REMARK    4  A    between atoms: C_3  and  N_67
REMARK    5  A    between atoms: N_9  and  C_10
REMARK    6  A    between atoms: C_10  and  C_11
REMARK    7  A    between atoms: C_14  and  O_17
REMARK    8  A    between atoms: O_17  and  C_18
REMARK    9  A    between atoms: C_19  and  C_20
REMARK   10  A    between atoms: C_19  and  N_67
REMARK   11  A    between atoms: C_25  and  C_26
REMARK   12  A    between atoms: C_25  and  N_67
REMARK   13  A    between atoms: C_31  and  C_38
REMARK                            x       y       z     vdW  Elec       q    Type
REMARK                         _______ _______ _______ _____ _____    ______ ____
ROOT
ATOM      1  N   UNL     1      -2.065   2.401   1.539  0.00  0.00    +0.394 N 
ATOM      2  H   UNL     1      -1.511   2.875   2.263  0.00  0.00    -0.080 HD
ENDROOT
BRANCH   1   3
ATOM      3  C   UNL     1      -3.072   3.346   1.011  0.00  0.00    +0.003 C 
BRANCH   3   4
ATOM      4  C   UNL     1      -3.716   2.790  -0.232  0.00  0.00    +0.138 A 
ATOM      5  N   UNL     1      -3.102   2.272  -1.268  0.00  0.00    -0.115 NA
ATOM      6  N   UNL     1      -3.996   1.911  -2.122  0.00  0.00    -0.023 NA
ATOM      7  N   UNL     1      -5.166   2.185  -1.658  0.00  0.00    -0.044 NA
ATOM      8  N   UNL     1      -5.035   2.723  -0.492  0.00  0.00    -0.226 N 
BRANCH   8   9
ATOM      9  C   UNL     1      -6.119   3.178   0.382  0.00  0.00    +0.182 C 
BRANCH   9  10
ATOM     10  C   UNL     1      -6.538   4.569  -0.020  0.00  0.00    -0.026 A 
ATOM     11  C   UNL     1      -5.929   5.667   0.557  0.00  0.00    +0.009 A 
ATOM     12  C   UNL     1      -6.307   6.943   0.186  0.00  0.00    +0.046 A 
ATOM     13  C   UNL     1      -7.307   7.121  -0.758  0.00  0.00    +0.120 A 
ATOM     14  C   UNL     1      -7.921   6.018  -1.332  0.00  0.00    +0.046 A 
ATOM     15  C   UNL     1      -7.535   4.744  -0.962  0.00  0.00    +0.009 A 
BRANCH  13  16
ATOM     16  O   UNL     1      -7.685   8.375  -1.121  0.00  0.00    -0.495 OA
ATOM     17  C   UNL     1      -7.010   9.465  -0.489  0.00  0.00    +0.277 C 
ENDBRANCH  13  16
ENDBRANCH   9  10
ENDBRANCH   8   9
ENDBRANCH   3   4
BRANCH   3  19
ATOM     18  C   UNL     1      -1.798   5.276   1.957  0.00  0.00    +0.002 C 
ATOM     19  C   UNL     1      -2.380   4.669   0.679  0.00  0.00    -0.011 C 
ENDBRANCH   3  19
ENDBRANCH   1   3
BRANCH   1  20
ATOM     20  C   UNL     1      -2.736   1.229   2.138  0.00  0.00    -0.002 C 
BRANCH  20  21
ATOM     21  C   UNL     1      -3.334   1.637   3.460  0.00  0.00    +0.089 A 
ATOM     22  C   UNL     1      -4.609   2.015   3.664  0.00  0.00    +0.042 A 
ATOM     23  C   UNL     1      -4.734   2.308   5.041  0.00  0.00    +0.041 A 
ATOM     24  C   UNL     1      -3.529   2.091   5.597  0.00  0.00    +0.195 A 
ATOM     25  O   UNL     1      -2.686   1.680   4.636  0.00  0.00    -0.470 OA
ENDBRANCH  20  21
ENDBRANCH   1  20
BRANCH   1  26
ATOM     26  C   UNL     1      -1.162   1.966   0.452  0.00  0.00    -0.036 C 
BRANCH  26  27
ATOM     27  C   UNL     1       0.058   1.327   1.064  0.00  0.00    +0.001 A 
ATOM     28  C   UNL     1       0.116  -0.020   1.204  0.00  0.00    +0.017 A 
ATOM     29  C   UNL     1       1.318  -0.610   1.796  0.00  0.00    -0.001 A 
ATOM     30  C   UNL     1       1.437  -1.994   1.966  0.00  0.00    +0.010 A 
ATOM     31  C   UNL     1       2.572  -2.513   2.521  0.00  0.00    +0.004 A 
ATOM     32  C   UNL     1       3.609  -1.680   2.918  0.00  0.00    -0.048 A 
ATOM     33  C   UNL     1       3.514  -0.314   2.760  0.00  0.00    +0.029 A 
ATOM     34  C   UNL     1       2.368   0.237   2.197  0.00  0.00    +0.049 A 
ATOM     35  N   UNL     1       2.247   1.600   2.027  0.00  0.00    -0.322 N 
ATOM     36  H   UNL     1       2.971   2.183   2.304  0.00  0.00    +0.169 HD
ATOM     37  C   UNL     1       1.138   2.133   1.483  0.00  0.00    +0.251 A 
ATOM     38  O   UNL     1       1.065   3.342   1.347  0.00  0.00    -0.268 OA
ATOM     39  C   UNL     1       4.852  -2.276   3.529  0.00  0.00    +0.044 C 
ENDBRANCH  26  27
ENDBRANCH   1  26
TORSDOF 10
