REMARK  Name = ZINC47255965
REMARK  6 active torsions:
REMARK  status: ('A' for Active; 'I' for Inactive)
REMARK    1  A    between atoms: C_4  and  C_7
REMARK    2  A    between atoms: C_7  and  C_8
REMARK    3  A    between atoms: N_9  and  O_10
REMARK    4  A    between atoms: O_10  and  C_11
REMARK    5  A    between atoms: C_11  and  C_12
REMARK    6  A    between atoms: C_14  and  N_22
REMARK                            x       y       z     vdW  Elec       q    Type
REMARK                         _______ _______ _______ _____ _____    ______ ____
ROOT
ATOM      1  C   UNL     1       1.567  -0.023   3.486  0.00  0.00    +0.302 C 
ENDROOT
BRANCH   1   2
ATOM      2  C   UNL     1       0.156   0.433   3.217  0.00  0.00    +0.036 A 
ATOM      3  C   UNL     1      -0.307   0.517   1.919  0.00  0.00    +0.043 A 
ATOM      4  C   UNL     1      -1.601   0.936   1.671  0.00  0.00    +0.127 A 
ATOM      5  C   UNL     1      -2.434   1.274   2.722  0.00  0.00    +0.042 A 
ATOM      6  C   UNL     1      -1.975   1.192   4.024  0.00  0.00    +0.022 A 
ATOM      7  C   UNL     1      -0.680   0.764   4.275  0.00  0.00    +0.136 A 
ATOM      8  O   UNL     1      -0.221   0.665   5.551  0.00  0.00    -0.465 OA
ATOM      9  C   UNL     1      -0.970   1.345   6.562  0.00  0.00    +0.394 C 
ATOM     10  O   UNL     1      -2.358   1.040   6.386  0.00  0.00    -0.339 OA
ATOM     11  C   UNL     1      -2.890   1.567   5.162  0.00  0.00    +0.202 C 
BRANCH   4  12
ATOM     12  N   UNL     1      -2.096   1.024   0.279  0.00  0.00    +0.056 N 
ATOM     13  O   UNL     1      -1.403   0.640  -0.634  0.00  0.00    -0.126 OA
ATOM     14  O   UNL     1      -3.193   1.480   0.055  0.00  0.00    -0.126 OA
ENDBRANCH   4  12
ENDBRANCH   1   2
BRANCH   1  15
ATOM     15  O   UNL     1       2.258  -0.190   2.247  0.00  0.00    -0.388 OA
BRANCH  15  17
ATOM     16  C   UNL     1       4.254  -1.014   1.330  0.00  0.00    +0.136 C 
ATOM     17  N   UNL     1       3.562  -0.725   2.382  0.00  0.00    -0.074 NA
ATOM     18  N   UNL     1       5.477  -1.633   1.459  0.00  0.00    -0.344 N 
ATOM     19  H   UNL     1       5.997  -1.851   0.669  0.00  0.00    +0.144 HD
ATOM     20  H   UNL     1       5.819  -1.852   2.340  0.00  0.00    +0.144 HD
BRANCH  16  21
ATOM     21  C   UNL     1       3.722  -0.674  -0.038  0.00  0.00    +0.109 C 
BRANCH  21  25
ATOM     22  C   UNL     1       5.753   2.769  -1.542  0.00  0.00    +0.000 A 
ATOM     23  C   UNL     1       6.301   1.513  -1.717  0.00  0.00    +0.000 A 
ATOM     24  C   UNL     1       5.644   0.398  -1.230  0.00  0.00    +0.004 A 
ATOM     25  C   UNL     1       4.439   0.541  -0.568  0.00  0.00    -0.040 A 
ATOM     26  C   UNL     1       3.891   1.798  -0.393  0.00  0.00    +0.004 A 
ATOM     27  C   UNL     1       4.548   2.912  -0.881  0.00  0.00    +0.000 A 
ENDBRANCH  21  25
ENDBRANCH  16  21
ENDBRANCH  15  17
ENDBRANCH   1  15
TORSDOF 6
