REMARK  Name = ZINC07058415
REMARK  8 active torsions:
REMARK  status: ('A' for Active; 'I' for Inactive)
REMARK    1  A    between atoms: C_1  and  C_2
REMARK    2  A    between atoms: C_4  and  C_27
REMARK    3  A    between atoms: C_6  and  N_8
REMARK    4  A    between atoms: C_12  and  S_13
REMARK    5  A    between atoms: S_13  and  C_14
REMARK    6  A    between atoms: C_14  and  C_15
REMARK    7  A    between atoms: N_17  and  C_18
REMARK    8  A    between atoms: C_23  and  N_24
REMARK                            x       y       z     vdW  Elec       q    Type
REMARK                         _______ _______ _______ _____ _____    ______ ____
ROOT
ATOM      1  S   UNL     1       2.141  -1.362   3.555  0.00  0.00    -0.078 S 
ENDROOT
BRANCH   1   6
ATOM      2  N   UNL     1       0.009  -2.774   2.441  0.00  0.00    -0.295 N 
ATOM      3  C   UNL     1      -0.830  -3.807   2.801  0.00  0.00    +0.113 A 
ATOM      4  C   UNL     1      -0.475  -4.185   4.041  0.00  0.00    +0.131 A 
ATOM      5  N   UNL     1       0.551  -3.416   4.443  0.00  0.00    -0.230 NA
ATOM      6  C   UNL     1       0.857  -2.567   3.489  0.00  0.00    +0.174 A 
BRANCH   2  12
ATOM      7  C   UNL     1      -0.022   1.508   0.021  0.00  0.00    +0.044 C 
ATOM      8  C   UNL     1      -0.018   0.001   0.025  0.00  0.00    -0.048 A 
ATOM      9  C   UNL     1      -0.026  -0.693  -1.171  0.00  0.00    +0.006 A 
ATOM     10  C   UNL     1      -0.023  -2.076  -1.171  0.00  0.00    -0.048 A 
ATOM     11  C   UNL     1      -0.011  -2.768   0.024  0.00  0.00    +0.029 A 
ATOM     12  C   UNL     1      -0.003  -2.074   1.226  0.00  0.00    +0.049 A 
ATOM     13  C   UNL     1      -0.001  -0.686   1.223  0.00  0.00    +0.029 A 
ATOM     14  C   UNL     1      -0.032  -2.829  -2.477  0.00  0.00    +0.044 C 
ENDBRANCH   2  12
ENDBRANCH   1   6
BRANCH   1  15
ATOM     15  C   UNL     1       2.884  -1.601   5.192  0.00  0.00    +0.173 C 
BRANCH  15  16
ATOM     16  C   UNL     1       4.011  -0.619   5.380  0.00  0.00    +0.228 C 
ATOM     17  O   UNL     1       4.287   0.165   4.496  0.00  0.00    -0.275 OA
ATOM     18  N   UNL     1       4.714  -0.612   6.530  0.00  0.00    -0.283 N 
ATOM     19  H   UNL     1       4.454  -1.193   7.261  0.00  0.00    +0.155 HD
BRANCH  18  20
ATOM     20  C   UNL     1       5.820   0.235   6.669  0.00  0.00    +0.064 A 
ATOM     21  C   UNL     1       5.813   1.491   6.077  0.00  0.00    +0.025 A 
ATOM     22  C   UNL     1       6.906   2.324   6.216  0.00  0.00    +0.002 A 
ATOM     23  C   UNL     1       8.006   1.908   6.944  0.00  0.00    +0.002 A 
ATOM     24  C   UNL     1       8.015   0.658   7.535  0.00  0.00    +0.034 A 
ATOM     25  C   UNL     1       6.923  -0.177   7.404  0.00  0.00    +0.147 A 
BRANCH  25  26
ATOM     26  N   UNL     1       6.931  -1.513   8.043  0.00  0.00    +0.058 N 
ATOM     27  O   UNL     1       7.849  -1.833   8.762  0.00  0.00    -0.126 OA
ATOM     28  O   UNL     1       6.021  -2.283   7.845  0.00  0.00    -0.126 OA
ENDBRANCH  25  26
ENDBRANCH  18  20
ENDBRANCH  15  16
ENDBRANCH   1  15
TORSDOF 6
