REMARK  Name = ZINC42388386
REMARK  6 active torsions:
REMARK  status: ('A' for Active; 'I' for Inactive)
REMARK    1  A    between atoms: C_1  and  C_2
REMARK    2  A    between atoms: C_2  and  N_3
REMARK    3  A    between atoms: N_3  and  C_4
REMARK    4  A    between atoms: C_4  and  C_5
REMARK    5  A    between atoms: N_7  and  C_8
REMARK    6  A    between atoms: C_10  and  N_16
REMARK                            x       y       z     vdW  Elec       q    Type
REMARK                         _______ _______ _______ _____ _____    ______ ____
ROOT
ATOM      1  N   UNL     1       0.717  -0.460   1.141  0.00  0.00    -0.305 N 
ATOM      2  C   UNL     1       2.088  -0.690   1.124  0.00  0.00    +0.152 A 
ATOM      3  C   UNL     1       2.958   0.298   1.574  0.00  0.00    +0.167 A 
ATOM      4  C   UNL     1       4.320   0.056   1.552  0.00  0.00    +0.053 A 
ATOM      5  C   UNL     1       4.768  -1.171   1.078  0.00  0.00    +0.038 A 
ATOM      6  C   UNL     1       3.847  -2.106   0.647  0.00  0.00    +0.128 A 
ATOM      7  N   UNL     1       2.553  -1.849   0.685  0.00  0.00    -0.237 NA
ATOM      8 BR   UNL     1       6.618  -1.557   1.024  0.00  0.00    -0.049 Br
ENDROOT
BRANCH   3   9
ATOM      9  N   UNL     1       2.434   1.591   2.069  0.00  0.00    +0.060 N 
ATOM     10  O   UNL     1       3.198   2.485   2.350  0.00  0.00    -0.126 OA
ATOM     11  O   UNL     1       1.242   1.752   2.192  0.00  0.00    -0.126 OA
ENDBRANCH   3   9
BRANCH   1  13
ATOM     12  C   UNL     1       0.031   1.518  -0.123  0.00  0.00    +0.024 C 
ATOM     13  C   UNL     1       0.034  -0.011  -0.075  0.00  0.00    +0.104 C 
ENDBRANCH   1  13
BRANCH   1  14
ATOM     14  C   UNL     1      -0.045  -0.666   2.376  0.00  0.00    +0.202 C 
BRANCH  14  15
ATOM     15  C   UNL     1      -0.640  -2.051   2.373  0.00  0.00    +0.230 C 
ATOM     16  O   UNL     1      -0.447  -2.792   1.433  0.00  0.00    -0.274 OA
ATOM     17  N   UNL     1      -1.387  -2.465   3.415  0.00  0.00    -0.317 N 
ATOM     18  C   UNL     1      -1.966  -3.811   3.413  0.00  0.00    +0.128 C 
ATOM     19  H   UNL     1      -1.542  -1.872   4.167  0.00  0.00    +0.148 HD
ENDBRANCH  14  15
ENDBRANCH   1  14
TORSDOF 4
