REMARK  Name = ZINC32455621
REMARK  7 active torsions:
REMARK  status: ('A' for Active; 'I' for Inactive)
REMARK    1  A    between atoms: C_1  and  C_2
REMARK    2  A    between atoms: C_2  and  C_3
REMARK    3  A    between atoms: C_2  and  N_4
REMARK    4  A    between atoms: C_5  and  C_7
REMARK    5  A    between atoms: C_7  and  C_8
REMARK    6  A    between atoms: C_11  and  N_14
REMARK    7  A    between atoms: C_15  and  C_17
REMARK                            x       y       z     vdW  Elec       q    Type
REMARK                         _______ _______ _______ _____ _____    ______ ____
ROOT
ATOM      1  N   UNL     1       1.950  -4.311   3.803  0.00  0.00    -0.282 N 
ATOM      2  C   UNL     1       3.239  -3.987   3.576  0.00  0.00    +0.248 C 
ATOM      3  O   UNL     1       4.123  -4.768   3.872  0.00  0.00    -0.270 OA
ATOM      4  H   UNL     1       1.155  -3.576   3.607  0.00  0.00    +0.155 HD
ENDROOT
BRANCH   2   5
ATOM      5  C   UNL     1       3.576  -2.684   2.971  0.00  0.00    +0.041 A 
ATOM      6  C   UNL     1       2.561  -1.787   2.631  0.00  0.00    +0.015 A 
ATOM      7  C   UNL     1       2.876  -0.571   2.064  0.00  0.00    +0.028 A 
ATOM      8  C   UNL     1       4.203  -0.235   1.831  0.00  0.00    +0.076 A 
ATOM      9  C   UNL     1       5.222  -1.128   2.169  0.00  0.00    +0.143 A 
ATOM     10  C   UNL     1       4.913  -2.348   2.736  0.00  0.00    +0.060 A 
ATOM     11  O   UNL     1       6.517  -0.785   1.933  0.00  0.00    -0.481 OA
ATOM     12  C   UNL     1       6.765   0.036   0.788  0.00  0.00    +0.325 C 
ATOM     13  C   UNL     1       5.776   1.173   0.758  0.00  0.00    +0.255 C 
ATOM     14  O   UNL     1       6.093   2.243   0.283  0.00  0.00    -0.272 OA
ATOM     15  N   UNL     1       4.535   0.996   1.260  0.00  0.00    -0.280 N 
ATOM     16  H   UNL     1       3.789   1.804   1.223  0.00  0.00    +0.155 HD
ENDBRANCH   2   5
BRANCH   1  20
ATOM     17  C   UNL     1       0.977  -8.096   5.243  0.00  0.00    -0.039 A 
ATOM     18  C   UNL     1       2.143  -7.480   5.657  0.00  0.00    +0.006 A 
ATOM     19  C   UNL     1       2.469  -6.225   5.181  0.00  0.00    +0.023 A 
ATOM     20  C   UNL     1       1.623  -5.582   4.286  0.00  0.00    +0.034 A 
ATOM     21  C   UNL     1       0.450  -6.202   3.877  0.00  0.00    +0.023 A 
ATOM     22  C   UNL     1       0.133  -7.459   4.352  0.00  0.00    +0.006 A 
BRANCH  17  23
ATOM     23  C   UNL     1       0.624  -9.466   5.764  0.00  0.00    +0.130 C 
BRANCH  23  25
ATOM     24  N   UNL     1      -0.623 -10.431   7.670  0.00  0.00    -0.313 N 
ATOM     25  C   UNL     1      -0.192  -9.329   7.024  0.00  0.00    +0.218 C 
ATOM     26  O   UNL     1      -0.461  -8.229   7.456  0.00  0.00    -0.275 OA
ATOM     27  H   UNL     1      -0.378 -11.429   7.279  0.00  0.00    +0.149 HD
BRANCH  24  29
ATOM     28  C   UNL     1      -2.890 -10.114   8.530  0.00  0.00    +0.027 C 
ATOM     29  C   UNL     1      -1.416 -10.298   8.895  0.00  0.00    +0.067 C 
ATOM     30  C   UNL     1      -1.254 -11.559   9.746  0.00  0.00    +0.027 C 
ENDBRANCH  24  29
ENDBRANCH  23  25
ENDBRANCH  17  23
ENDBRANCH   1  20
TORSDOF 5
