REMARK  Name = ZINC16044900
REMARK  11 active torsions:
REMARK  status: ('A' for Active; 'I' for Inactive)
REMARK    1  A    between atoms: C_1  and  C_2
REMARK    2  A    between atoms: C_2  and  N_3
REMARK    3  A    between atoms: C_5  and  C_15
REMARK    4  A    between atoms: C_11  and  C_14
REMARK    5  A    between atoms: C_15  and  O_17
REMARK    6  A    between atoms: O_17  and  C_18
REMARK    7  A    between atoms: C_18  and  C_19
REMARK    8  A    between atoms: C_22  and  C_33
REMARK    9  A    between atoms: C_25  and  C_27
REMARK   10  A    between atoms: C_36  and  O_39
REMARK   11  A    between atoms: O_39  and  C_40
REMARK                            x       y       z     vdW  Elec       q    Type
REMARK                         _______ _______ _______ _____ _____    ______ ____
ROOT
ATOM      1  C   UNL     1       4.353  -1.914  -0.050  0.00  0.00    +0.273 C 
ATOM      2  O   UNL     1       5.538  -2.172  -0.063  0.00  0.00    -0.270 OA
ATOM      3  N   UNL     1       3.943  -0.630  -0.039  0.00  0.00    -0.182 N 
ATOM      4  C   UNL     1       4.823   0.549  -0.041  0.00  0.00    +0.137 C 
ATOM      5  C   UNL     1       3.838   1.735  -0.031  0.00  0.00    +0.087 C 
ATOM      6  C   UNL     1       2.477   1.078  -0.015  0.00  0.00    +0.069 C 
ATOM      7  N   UNL     1       2.617  -0.203  -0.024  0.00  0.00    -0.181 NA
ENDROOT
BRANCH   6   8
ATOM      8  C   UNL     1       1.187   1.792   0.000  0.00  0.00    -0.002 A 
ATOM      9  C   UNL     1      -0.013   1.076   0.008  0.00  0.00    +0.010 A 
ATOM     10  C   UNL     1      -1.215   1.751   0.017  0.00  0.00    +0.001 A 
ATOM     11  C   UNL     1      -1.236   3.134   0.031  0.00  0.00    +0.000 A 
ATOM     12  C   UNL     1      -0.052   3.851   0.023  0.00  0.00    +0.001 A 
ATOM     13  C   UNL     1       1.158   3.189   0.008  0.00  0.00    +0.010 A 
ENDBRANCH   6   8
BRANCH   4  14
ATOM     14  C   UNL     1       5.668   0.578  -1.288  0.00  0.00    -0.024 A 
ATOM     15  C   UNL     1       5.126   0.185  -2.498  0.00  0.00    +0.009 A 
ATOM     16  C   UNL     1       5.897   0.216  -3.644  0.00  0.00    +0.046 A 
ATOM     17  C   UNL     1       7.219   0.632  -3.578  0.00  0.00    +0.120 A 
ATOM     18  C   UNL     1       7.762   1.020  -2.362  0.00  0.00    +0.046 A 
ATOM     19  C   UNL     1       6.985   0.993  -1.220  0.00  0.00    +0.009 A 
BRANCH  17  20
ATOM     20  O   UNL     1       7.981   0.658  -4.703  0.00  0.00    -0.495 OA
ATOM     21  C   UNL     1       7.356   0.244  -5.920  0.00  0.00    +0.277 C 
ENDBRANCH  17  20
ENDBRANCH   4  14
BRANCH   1  22
ATOM     22  C   UNL     1       3.338  -3.029  -0.045  0.00  0.00    +0.330 C 
BRANCH  22  23
ATOM     23  O   UNL     1       4.025  -4.308  -0.059  0.00  0.00    -0.452 OA
BRANCH  23  24
ATOM     24  C   UNL     1       3.256  -5.415  -0.057  0.00  0.00    +0.345 C 
ATOM     25  O   UNL     1       2.045  -5.314  -0.044  0.00  0.00    -0.245 OA
BRANCH  24  28
ATOM     26  N   UNL     1       5.863  -8.069  -0.097  0.00  0.00    -0.331 N 
ATOM     27  C   UNL     1       5.257  -6.875  -0.085  0.00  0.00    +0.106 A 
ATOM     28  C   UNL     1       3.883  -6.745  -0.070  0.00  0.00    +0.122 A 
ATOM     29  C   UNL     1       3.056  -7.964  -0.062  0.00  0.00    +0.205 A 
ATOM     30  O   UNL     1       1.839  -7.907  -0.045  0.00  0.00    -0.286 OA
ATOM     31  C   UNL     1       3.765  -9.255  -0.082  0.00  0.00    +0.065 A 
ATOM     32  C   UNL     1       5.171  -9.259  -0.096  0.00  0.00    +0.145 A 
ATOM     33  N   UNL     1       5.824 -10.414  -0.108  0.00  0.00    -0.234 NA
ATOM     34  C   UNL     1       5.191 -11.568  -0.107  0.00  0.00    +0.041 A 
ATOM     35  C   UNL     1       3.807 -11.637  -0.093  0.00  0.00    +0.024 A 
ATOM     36  C   UNL     1       3.070 -10.466  -0.080  0.00  0.00    +0.017 A 
ATOM     37  C   UNL     1       5.990 -12.845  -0.121  0.00  0.00    +0.065 C 
BRANCH  26  39
ATOM     38  C   UNL     1       7.819  -8.245  -1.554  0.00  0.00    +0.027 C 
ATOM     39  C   UNL     1       7.327  -8.111  -0.111  0.00  0.00    +0.120 C 
ENDBRANCH  26  39
ENDBRANCH  24  28
ENDBRANCH  23  24
ENDBRANCH  22  23
ENDBRANCH   1  22
TORSDOF 8
