REMARK  Name = ZINC18155583
REMARK  4 active torsions:
REMARK  status: ('A' for Active; 'I' for Inactive)
REMARK    1  A    between atoms: C_4  and  C_7
REMARK    2  A    between atoms: C_7  and  N_8
REMARK    3  A    between atoms: C_15  and  N_18
REMARK    4  A    between atoms: C_16  and  O_17
REMARK                            x       y       z     vdW  Elec       q    Type
REMARK                         _______ _______ _______ _____ _____    ______ ____
ROOT
ATOM      1  N   UNL     1       4.152  -0.952   1.338  0.00  0.00    -0.306 N 
ATOM      2  C   UNL     1       4.941  -0.087   2.079  0.00  0.00    +0.055 A 
ATOM      3  C   UNL     1       5.506   1.151   1.795  0.00  0.00    +0.027 A 
ATOM      4  C   UNL     1       6.263   1.798   2.748  0.00  0.00    +0.017 A 
ATOM      5  C   UNL     1       6.469   1.226   3.994  0.00  0.00    +0.019 A 
ATOM      6  C   UNL     1       5.916  -0.002   4.295  0.00  0.00    +0.027 A 
ATOM      7  C   UNL     1       5.150  -0.664   3.340  0.00  0.00    +0.032 A 
ATOM      8  C   UNL     1       4.431  -1.954   3.326  0.00  0.00    +0.150 A 
ATOM      9  C   UNL     1       3.839  -2.054   2.062  0.00  0.00    +0.222 A 
ATOM     10 BR   UNL     1       7.512   2.132   5.287  0.00  0.00    -0.050 Br
ENDROOT
BRANCH   8  11
ATOM     11  N   UNL     1       4.355  -2.844   4.320  0.00  0.00    -0.173 NA
ATOM     12  N   UNL     1       3.685  -3.935   4.161  0.00  0.00    -0.190 N 
ATOM     13  C   UNL     1       3.609  -4.833   5.165  0.00  0.00    +0.317 C 
ATOM     14  O   UNL     1       2.977  -5.862   5.015  0.00  0.00    -0.251 OA
ATOM     15  N   UNL     1       4.234  -4.591   6.335  0.00  0.00    -0.312 N 
ATOM     16  H   UNL     1       4.737  -3.771   6.455  0.00  0.00    +0.147 HD
ATOM     17  H   UNL     1       4.179  -5.236   7.057  0.00  0.00    +0.147 HD
ATOM     18  H   UNL     1       3.236  -4.109   3.319  0.00  0.00    +0.179 HD
ENDBRANCH   8  11
BRANCH   9  19
ATOM     19  O   UNL     1       3.081  -3.084   1.632  0.00  0.00    -0.492 OA
ATOM     20  H   UNL     1       3.584  -3.789   1.203  0.00  0.00    +0.294 HD
ENDBRANCH   9  19
BRANCH   1  21
ATOM     21  C   UNL     1       3.711  -0.707  -0.038  0.00  0.00    +0.160 C 
BRANCH  21  25
ATOM     22  C   UNL     1      -0.017   1.378   0.010  0.00  0.00    +0.000 A 
ATOM     23  C   UNL     1       1.171   2.086   0.002  0.00  0.00    +0.000 A 
ATOM     24  C   UNL     1       2.377   1.411  -0.013  0.00  0.00    +0.005 A 
ATOM     25  C   UNL     1       2.396   0.029  -0.020  0.00  0.00    -0.028 A 
ATOM     26  C   UNL     1       1.208  -0.679  -0.012  0.00  0.00    +0.005 A 
ATOM     27  C   UNL     1       0.002  -0.004   0.002  0.00  0.00    +0.000 A 
ENDBRANCH  21  25
ENDBRANCH   1  21
TORSDOF 4
