REMARK  Name = ZINC40713361
REMARK  2 active torsions:
REMARK  status: ('A' for Active; 'I' for Inactive)
REMARK    1  A    between atoms: C_6  and  N_7
REMARK    2  A    between atoms: N_10  and  C_11
REMARK                            x       y       z     vdW  Elec       q    Type
REMARK                         _______ _______ _______ _____ _____    ______ ____
ROOT
ATOM      1  C   UNL     1       0.036   1.428  -0.247  0.00  0.00    +0.053 A 
ATOM      2  C   UNL     1       1.287   2.034  -0.241  0.00  0.00    +0.038 A 
ATOM      3  C   UNL     1       2.408   1.268   0.008  0.00  0.00    +0.128 A 
ATOM      4  N   UNL     1       2.305  -0.028   0.239  0.00  0.00    -0.237 NA
ATOM      5  C   UNL     1       1.132  -0.641   0.241  0.00  0.00    +0.149 A 
ATOM      6  C   UNL     1      -0.039   0.069  -0.002  0.00  0.00    +0.167 A 
ATOM      7  N   UNL     1       1.070  -2.008   0.488  0.00  0.00    -0.326 N 
ATOM      8 BR   UNL     1       1.451   3.889  -0.570  0.00  0.00    -0.049 Br
ATOM      9  H   UNL     1       0.209  -2.447   0.570  0.00  0.00    +0.148 HD
ENDROOT
BRANCH   7  10
ATOM     10  C   UNL     1       2.305  -2.784   0.625  0.00  0.00    +0.058 C 
ATOM     11  C   UNL     1       2.805  -2.702   2.069  0.00  0.00    -0.056 C 
ATOM     12  N   UNL     1       2.861  -4.042   2.658  0.00  0.00    +0.381 N 
ATOM     13  C   UNL     1       3.796  -4.892   1.917  0.00  0.00    -0.078 C 
ATOM     14  C   UNL     1       3.329  -5.047   0.468  0.00  0.00    -0.014 C 
ATOM     15  C   UNL     1       2.030  -4.253   0.277  0.00  0.00    +0.004 C 
ATOM     16  C   UNL     1       0.985  -4.796   1.260  0.00  0.00    -0.014 C 
ATOM     17  C   UNL     1       1.527  -4.647   2.689  0.00  0.00    -0.078 C 
ATOM     18  H   UNL     1       3.197  -3.960   3.606  0.00  0.00    -0.082 HD
ENDBRANCH   7  10
BRANCH   6  19
ATOM     19  N   UNL     1      -1.349  -0.620   0.002  0.00  0.00    +0.060 N 
ATOM     20  O   UNL     1      -1.444  -1.741  -0.442  0.00  0.00    -0.126 OA
ATOM     21  O   UNL     1      -2.324  -0.063   0.449  0.00  0.00    -0.126 OA
ENDBRANCH   6  19
TORSDOF 2
