REMARK  Name = ZINC03598910
REMARK  5 active torsions:
REMARK  status: ('A' for Active; 'I' for Inactive)
REMARK    1  A    between atoms: C_3  and  O_12
REMARK    2  A    between atoms: O_12  and  C_13
REMARK    3  A    between atoms: C_13  and  C_14
REMARK    4  A    between atoms: N_16  and  C_17
REMARK    5  A    between atoms: C_19  and  N_24
REMARK                            x       y       z     vdW  Elec       q    Type
REMARK                         _______ _______ _______ _____ _____    ______ ____
ROOT
ATOM      1  C   UNL     1       2.320   4.173   0.104  0.00  0.00    +0.255 C 
ATOM      2  O   UNL     1       3.378   3.581   0.091  0.00  0.00    -0.272 OA
ATOM      3  N   UNL     1       1.163   3.487   0.009  0.00  0.00    -0.281 N 
ATOM      4  H   UNL     1       0.321   3.963  -0.061  0.00  0.00    +0.155 HD
ENDROOT
BRANCH   3   5
ATOM      5  C   UNL     1       1.177   2.087   0.013  0.00  0.00    +0.054 A 
ATOM      6  C   UNL     1       2.229   1.403   0.608  0.00  0.00    +0.057 A 
ATOM      7  C   UNL     1       2.241   0.022   0.610  0.00  0.00    +0.128 A 
ATOM      8  C   UNL     1       1.206  -0.680   0.020  0.00  0.00    +0.034 A 
ATOM      9  C   UNL     1       0.157  -0.003  -0.574  0.00  0.00    +0.024 A 
ATOM     10  C   UNL     1       0.139   1.379  -0.579  0.00  0.00    +0.062 A 
ATOM     11 CL   UNL     1      -1.175   2.228  -1.331  0.00  0.00    -0.082 Cl
BRANCH   7  12
ATOM     12  N   UNL     1       3.362  -0.707   1.243  0.00  0.00    +0.056 N 
ATOM     13  O   UNL     1       3.373  -1.925   1.245  0.00  0.00    -0.126 OA
ATOM     14  O   UNL     1       4.274  -0.089   1.763  0.00  0.00    -0.126 OA
ENDBRANCH   7  12
ENDBRANCH   3   5
BRANCH   1  15
ATOM     15  C   UNL     1       2.297   5.675   0.225  0.00  0.00    +0.324 C 
BRANCH  15  16
ATOM     16  O   UNL     1       3.637   6.166   0.310  0.00  0.00    -0.483 OA
BRANCH  16  19
ATOM     17  C   UNL     1       2.816   9.689   0.569  0.00  0.00    +0.015 A 
ATOM     18  C   UNL     1       2.674   8.337   0.448  0.00  0.00    +0.046 A 
ATOM     19  C   UNL     1       3.795   7.509   0.424  0.00  0.00    +0.125 A 
ATOM     20  C   UNL     1       5.069   8.046   0.510  0.00  0.00    +0.092 A 
ATOM     21  C   UNL     1       5.231   9.418   0.627  0.00  0.00    +0.143 A 
ATOM     22  C   UNL     1       4.095  10.249   0.657  0.00  0.00    +0.018 A 
ATOM     23  C   UNL     1       4.278  11.696   0.781  0.00  0.00    +0.018 A 
ATOM     24  C   UNL     1       5.545  12.179   0.862  0.00  0.00    +0.092 A 
ATOM     25  C   UNL     1       6.638  11.289   0.826  0.00  0.00    +0.337 A 
ATOM     26  O   UNL     1       7.769  11.734   0.901  0.00  0.00    -0.245 OA
ATOM     27  O   UNL     1       6.464   9.963   0.713  0.00  0.00    -0.422 OA
ENDBRANCH  16  19
ENDBRANCH  15  16
ENDBRANCH   1  15
TORSDOF 5
