REMARK  Name = ZINC06195362
REMARK  10 active torsions:
REMARK  status: ('A' for Active; 'I' for Inactive)
REMARK    1  A    between atoms: C_1  and  C_2
REMARK    2  A    between atoms: C_5  and  N_9
REMARK    3  A    between atoms: C_6  and  C_8
REMARK    4  A    between atoms: N_9  and  C_10
REMARK    5  A    between atoms: C_10  and  N_12
REMARK    6  A    between atoms: N_12  and  C_13
REMARK    7  A    between atoms: N_12  and  C_16
REMARK    8  A    between atoms: C_13  and  C_14
REMARK    9  A    between atoms: C_14  and  O_15
REMARK   10  A    between atoms: C_16  and  C_17
REMARK                            x       y       z     vdW  Elec       q    Type
REMARK                         _______ _______ _______ _____ _____    ______ ____
ROOT
ATOM      1  N   UNL     1       0.008   0.065  -0.332  0.00  0.00    -0.306 N 
ENDROOT
BRANCH   1   2
ATOM      2  C   UNL     1       0.138   1.406  -0.335  0.00  0.00    +0.137 C 
ATOM      3  S   UNL     1       1.626   2.121  -0.788  0.00  0.00    -0.018 S 
BRANCH   2   4
ATOM      4  N   UNL     1      -0.906   2.185   0.014  0.00  0.00    -0.297 N 
ATOM      5  H   UNL     1      -1.726   1.781   0.339  0.00  0.00    +0.154 HD
BRANCH   4  10
ATOM      6  C   UNL     1      -0.501   7.827  -0.418  0.00  0.00    +0.044 C 
ATOM      7  C   UNL     1      -0.609   6.328  -0.303  0.00  0.00    -0.050 A 
ATOM      8  C   UNL     1       0.455   5.596   0.192  0.00  0.00    +0.005 A 
ATOM      9  C   UNL     1       0.360   4.223   0.299  0.00  0.00    +0.024 A 
ATOM     10  C   UNL     1      -0.806   3.576  -0.092  0.00  0.00    +0.036 A 
ATOM     11  C   UNL     1      -1.870   4.314  -0.594  0.00  0.00    -0.029 A 
ATOM     12  C   UNL     1      -1.771   5.688  -0.693  0.00  0.00    +0.008 A 
ATOM     13  C   UNL     1      -3.135   3.616  -1.025  0.00  0.00    +0.045 C 
ENDBRANCH   4  10
ENDBRANCH   2   4
ENDBRANCH   1   2
BRANCH   1  14
ATOM     14  C   UNL     1      -1.228  -0.550   0.158  0.00  0.00    +0.135 C 
BRANCH  14  15
ATOM     15  C   UNL     1      -2.212  -0.714  -1.002  0.00  0.00    +0.174 C 
BRANCH  15  16
ATOM     16  O   UNL     1      -1.679  -1.640  -1.951  0.00  0.00    -0.393 OA
ATOM     17  H   UNL     1      -2.251  -1.793  -2.716  0.00  0.00    +0.209 HD
ENDBRANCH  15  16
ENDBRANCH  14  15
ENDBRANCH   1  14
BRANCH   1  18
ATOM     18  C   UNL     1       1.103  -0.778  -0.818  0.00  0.00    +0.147 C 
BRANCH  18  19
ATOM     19  C   UNL     1       1.971  -1.193   0.341  0.00  0.00    +0.035 A 
ATOM     20  C   UNL     1       3.081  -0.473   0.646  0.00  0.00    +0.020 A 
ATOM     21  C   UNL     1       3.902  -0.900   1.778  0.00  0.00    +0.003 A 
ATOM     22  C   UNL     1       5.057  -0.194   2.139  0.00  0.00    +0.059 A 
ATOM     23  C   UNL     1       5.811  -0.621   3.210  0.00  0.00    +0.167 A 
ATOM     24  C   UNL     1       5.426  -1.755   3.937  0.00  0.00    +0.168 A 
ATOM     25  C   UNL     1       4.288  -2.457   3.587  0.00  0.00    +0.075 A 
ATOM     26  C   UNL     1       3.517  -2.040   2.510  0.00  0.00    +0.053 A 
ATOM     27  N   UNL     1       2.377  -2.728   2.147  0.00  0.00    -0.322 N 
ATOM     28  H   UNL     1       2.112  -3.513   2.651  0.00  0.00    +0.169 HD
ATOM     29  C   UNL     1       1.625  -2.323   1.109  0.00  0.00    +0.254 A 
ATOM     30  O   UNL     1       0.621  -2.952   0.820  0.00  0.00    -0.268 OA
ATOM     31  O   UNL     1       6.334  -1.957   4.935  0.00  0.00    -0.453 OA
ATOM     32  C   UNL     1       7.043  -0.711   5.071  0.00  0.00    +0.466 C 
ATOM     33  O   UNL     1       6.957  -0.121   3.761  0.00  0.00    -0.453 OA
ENDBRANCH  18  19
ENDBRANCH   1  18
TORSDOF 8
