REMARK  Name = ZINC50440119
REMARK  7 active torsions:
REMARK  status: ('A' for Active; 'I' for Inactive)
REMARK    1  A    between atoms: C_1  and  N_2
REMARK    2  A    between atoms: N_2  and  C_3
REMARK    3  A    between atoms: N_2  and  C_9
REMARK    4  A    between atoms: C_3  and  C_4
REMARK    5  A    between atoms: C_12  and  N_19
REMARK    6  A    between atoms: C_14  and  C_15
REMARK    7  A    between atoms: N_16  and  O_17
REMARK                            x       y       z     vdW  Elec       q    Type
REMARK                         _______ _______ _______ _____ _____    ______ ____
ROOT
ATOM      1  C   UNL     1      -0.019  -0.572  -1.383  0.00  0.00    +0.041 A 
ATOM      2  C   UNL     1       1.161  -0.945  -2.013  0.00  0.00    +0.026 A 
ATOM      3  C   UNL     1       1.122  -1.538  -3.259  0.00  0.00    +0.034 A 
ATOM      4  C   UNL     1      -0.091  -1.765  -3.889  0.00  0.00    +0.127 A 
ATOM      5  C   UNL     1      -1.272  -1.401  -3.277  0.00  0.00    +0.046 A 
ATOM      6  C   UNL     1      -1.248  -0.806  -2.015  0.00  0.00    +0.041 A 
ENDROOT
BRANCH   6   7
ATOM      7  C   UNL     1      -2.511  -0.419  -1.352  0.00  0.00    +0.164 C 
ATOM      8  N   UNL     1      -2.493   0.039  -0.134  0.00  0.00    -0.071 NA
ATOM      9  N   UNL     1      -3.714  -0.544  -2.026  0.00  0.00    -0.340 N 
ATOM     10  H   UNL     1      -3.728  -0.886  -2.934  0.00  0.00    +0.144 HD
ATOM     11  H   UNL     1      -4.543  -0.290  -1.591  0.00  0.00    +0.144 HD
BRANCH   8  12
ATOM     12  O   UNL     1      -3.709   0.309   0.540  0.00  0.00    -0.408 OA
ATOM     13  H   UNL     1      -3.595   0.717   1.409  0.00  0.00    +0.328 HD
ENDBRANCH   8  12
ENDBRANCH   6   7
BRANCH   4  14
ATOM     14  N   UNL     1      -0.119  -2.400  -5.225  0.00  0.00    +0.056 N 
ATOM     15  O   UNL     1       0.915  -2.720  -5.764  0.00  0.00    -0.126 OA
ATOM     16  O   UNL     1      -1.175  -2.600  -5.777  0.00  0.00    -0.126 OA
ENDBRANCH   4  14
BRANCH   1  18
ATOM     17  C   UNL     1       0.076  -0.804   1.079  0.00  0.00    +0.129 C 
ATOM     18  N   UNL     1       0.018   0.026  -0.126  0.00  0.00    -0.327 N 
BRANCH  18  19
ATOM     19  C   UNL     1      -0.003   1.486  -0.009  0.00  0.00    +0.160 C 
BRANCH  19  20
ATOM     20  C   UNL     1       1.409   2.001   0.101  0.00  0.00    +0.066 A 
ATOM     21  C   UNL     1       2.095   2.433  -0.989  0.00  0.00    +0.071 A 
ATOM     22  S   UNL     1       3.646   2.899  -0.238  0.00  0.00    -0.084 S 
ATOM     23  C   UNL     1       3.263   2.501   1.352  0.00  0.00    +0.156 A 
ATOM     24  N   UNL     1       2.034   2.058   1.260  0.00  0.00    -0.251 NA
ENDBRANCH  19  20
ENDBRANCH  18  19
ENDBRANCH   1  18
TORSDOF 6
