REMARK  Name = ZINC12317152
REMARK  11 active torsions:
REMARK  status: ('A' for Active; 'I' for Inactive)
REMARK    1  A    between atoms: C_1  and  C_2
REMARK    2  A    between atoms: C_2  and  N_3
REMARK    3  A    between atoms: C_11  and  C_12
REMARK    4  A    between atoms: C_12  and  N_70
REMARK    5  A    between atoms: C_13  and  C_14
REMARK    6  A    between atoms: C_13  and  N_70
REMARK    7  A    between atoms: C_14  and  O_15
REMARK    8  A    between atoms: O_15  and  C_16
REMARK    9  A    between atoms: C_17  and  C_18
REMARK   10  A    between atoms: C_17  and  N_70
REMARK   11  A    between atoms: C_24  and  N_72
REMARK                            x       y       z     vdW  Elec       q    Type
REMARK                         _______ _______ _______ _____ _____    ______ ____
ROOT
ATOM      1  N   UNL     1       0.005   1.516   0.002  0.00  0.00    +0.386 N 
ATOM      2  H   UNL     1      -0.513   1.840   0.827  0.00  0.00    -0.081 HD
ENDROOT
BRANCH   1   3
ATOM      3  C   UNL     1      -0.776   1.837  -1.211  0.00  0.00    -0.003 C 
BRANCH   3  12
ATOM      4  N   UNL     1      -2.067   3.943  -0.603  0.00  0.00    -0.329 N 
ATOM      5  C   UNL     1      -1.962   5.292  -0.875  0.00  0.00    +0.069 A 
ATOM      6  C   UNL     1      -2.700   6.412  -0.513  0.00  0.00    +0.028 A 
ATOM      7  C   UNL     1      -2.323   7.655  -0.973  0.00  0.00    +0.002 A 
ATOM      8  C   UNL     1      -1.213   7.795  -1.794  0.00  0.00    +0.002 A 
ATOM      9  C   UNL     1      -0.476   6.705  -2.161  0.00  0.00    +0.030 A 
ATOM     10  C   UNL     1      -0.839   5.434  -1.707  0.00  0.00    +0.089 A 
ATOM     11  N   UNL     1      -0.324   4.191  -1.892  0.00  0.00    -0.234 NA
ATOM     12  C   UNL     1      -1.040   3.320  -1.243  0.00  0.00    +0.094 A 
BRANCH   4  14
ATOM     13  C   UNL     1      -2.672   3.364   1.695  0.00  0.00    +0.027 C 
ATOM     14  C   UNL     1      -3.091   3.301   0.225  0.00  0.00    +0.120 C 
ENDBRANCH   4  14
ENDBRANCH   3  12
ENDBRANCH   1   3
BRANCH   1  15
ATOM     15  C   UNL     1       0.204   0.055   0.103  0.00  0.00    -0.050 C 
BRANCH  15  16
ATOM     16  C   UNL     1      -1.109  -0.590   0.552  0.00  0.00    +0.141 C 
BRANCH  16  17
ATOM     17  O   UNL     1      -2.079  -0.471  -0.490  0.00  0.00    -0.385 OA
ATOM     18  C   UNL     1      -3.311  -1.141  -0.217  0.00  0.00    +0.193 C 
ENDBRANCH  16  17
ENDBRANCH  15  16
ENDBRANCH   1  15
BRANCH   1  19
ATOM     19  C   UNL     1       1.313   2.202  -0.043  0.00  0.00    -0.077 C 
BRANCH  19  20
ATOM     20  C   UNL     1       2.003   2.037   1.313  0.00  0.00    -0.044 C 
ATOM     21  C   UNL     1       1.185   2.749   2.393  0.00  0.00    -0.002 C 
ATOM     22  C   UNL     1       1.913   2.630   3.735  0.00  0.00    -0.018 C 
ATOM     23  C   UNL     1       3.315   3.229   3.604  0.00  0.00    -0.078 C 
ATOM     24  C   UNL     1       3.403   2.654   1.252  0.00  0.00    -0.077 C 
ATOM     25  N   UNL     1       4.059   2.485   2.566  0.00  0.00    +0.382 N 
ATOM     26  H   UNL     1       4.064   1.488   2.810  0.00  0.00    -0.081 HD
BRANCH  25  27
ATOM     27  C   UNL     1       5.453   2.970   2.499  0.00  0.00    -0.060 C 
ATOM     28  C   UNL     1       6.309   2.007   1.649  0.00  0.00    +0.020 C 
ATOM     29  C   UNL     1       7.666   1.983   2.327  0.00  0.00    -0.046 A 
ATOM     30  C   UNL     1       8.896   1.560   1.854  0.00  0.00    +0.004 A 
ATOM     31  C   UNL     1      10.014   1.635   2.662  0.00  0.00    +0.000 A 
ATOM     32  C   UNL     1       9.906   2.135   3.946  0.00  0.00    +0.000 A 
ATOM     33  C   UNL     1       8.679   2.559   4.419  0.00  0.00    +0.004 A 
ATOM     34  C   UNL     1       7.557   2.484   3.611  0.00  0.00    -0.046 A 
ATOM     35  C   UNL     1       6.121   2.875   3.888  0.00  0.00    +0.020 C 
ENDBRANCH  25  27
ENDBRANCH  19  20
ENDBRANCH   1  19
TORSDOF 9
