REMARK  Name = ZINC62320319
REMARK  5 active torsions:
REMARK  status: ('A' for Active; 'I' for Inactive)
REMARK    1  A    between atoms: C_1  and  C_2
REMARK    2  A    between atoms: C_8  and  N_10
REMARK    3  A    between atoms: C_12  and  C_22
REMARK    4  A    between atoms: C_20  and  N_21
REMARK    5  A    between atoms: N_24  and  C_25
REMARK                            x       y       z     vdW  Elec       q    Type
REMARK                         _______ _______ _______ _____ _____    ______ ____
ROOT
ATOM      1  N   UNL     1      -0.021   0.176   2.695  0.00  0.00    -0.342 N 
ATOM      2  C   UNL     1      -1.319   0.012   2.986  0.00  0.00    +0.103 A 
ATOM      3  C   UNL     1      -1.877   0.492   4.152  0.00  0.00    +0.100 A 
ATOM      4  C   UNL     1      -1.018   1.210   5.109  0.00  0.00    +0.203 A 
ATOM      5  O   UNL     1      -1.464   1.654   6.153  0.00  0.00    -0.286 OA
ATOM      6  C   UNL     1       0.400   1.370   4.752  0.00  0.00    +0.067 A 
ATOM      7  C   UNL     1       0.855   0.831   3.535  0.00  0.00    +0.055 A 
ATOM      8  C   UNL     1       2.195   0.970   3.189  0.00  0.00    +0.026 A 
ATOM      9  C   UNL     1       3.065   1.627   4.035  0.00  0.00    +0.004 A 
ATOM     10  C   UNL     1       2.625   2.154   5.236  0.00  0.00    +0.023 A 
ATOM     11  C   UNL     1       1.292   2.040   5.601  0.00  0.00    +0.037 A 
ENDROOT
BRANCH   1  18
ATOM     12  C   UNL     1      -0.246   1.704   0.245  0.00  0.00    +0.009 C 
ATOM     13  C   UNL     1      -0.342   0.177   0.271  0.00  0.00    +0.009 C 
ATOM     14  C   UNL     1       0.191  -0.390  -1.046  0.00  0.00    +0.005 C 
ATOM     15  C   UNL     1       0.095  -1.917  -1.020  0.00  0.00    +0.000 C 
ATOM     16  C   UNL     1       0.927  -2.460   0.143  0.00  0.00    +0.002 C 
ATOM     17  C   UNL     1       0.394  -1.893   1.460  0.00  0.00    +0.025 C 
ATOM     18  C   UNL     1       0.490  -0.366   1.434  0.00  0.00    +0.090 C 
ENDBRANCH   1  18
BRANCH   3  19
ATOM     19  C   UNL     1      -3.306   0.291   4.435  0.00  0.00    +0.249 C 
ATOM     20  O   UNL     1      -3.983  -0.394   3.691  0.00  0.00    -0.270 OA
ATOM     21  N   UNL     1      -3.866   0.865   5.518  0.00  0.00    -0.314 N 
ATOM     22  C   UNL     1      -5.310   0.759   5.739  0.00  0.00    +0.128 C 
ATOM     23  H   UNL     1      -3.313   1.349   6.151  0.00  0.00    +0.149 HD
ENDBRANCH   3  19
BRANCH  11  24
ATOM     24  N   UNL     1       0.847   2.569   6.807  0.00  0.00    -0.357 N 
ATOM     25  H   UNL     1      -0.062   2.406   7.103  0.00  0.00    +0.142 HD
ATOM     26  H   UNL     1       1.446   3.103   7.353  0.00  0.00    +0.142 HD
ENDBRANCH  11  24
TORSDOF 3
