REMARK  Name = ZINC55329736
REMARK  5 active torsions:
REMARK  status: ('A' for Active; 'I' for Inactive)
REMARK    1  A    between atoms: C_2  and  S_10
REMARK    2  A    between atoms: C_5  and  C_6
REMARK    3  A    between atoms: S_10  and  N_13
REMARK    4  A    between atoms: N_13  and  C_14
REMARK    5  A    between atoms: C_20  and  N_22
REMARK                            x       y       z     vdW  Elec       q    Type
REMARK                         _______ _______ _______ _____ _____    ______ ____
ROOT
ATOM      1  S   UNL     1       1.964   3.565  -0.044  0.00  0.00    +0.063 S 
ATOM      2  O   UNL     1       3.027   3.839  -0.945  0.00  0.00    -0.153 OA
ATOM      3  O   UNL     1       0.739   4.285  -0.070  0.00  0.00    -0.153 OA
ENDROOT
BRANCH   1   5
ATOM      4  C   UNL     1       2.159   0.965  -1.138  0.00  0.00    +0.086 A 
ATOM      5  C   UNL     1       1.552   1.865  -0.252  0.00  0.00    +0.158 A 
ATOM      6  C   UNL     1       0.592   1.183   0.416  0.00  0.00    +0.197 A 
ATOM      7  O   UNL     1       0.578  -0.085  -0.014  0.00  0.00    -0.439 OA
ATOM      8  C   UNL     1       1.525  -0.247  -0.963  0.00  0.00    +0.219 A 
ATOM      9 BR   UNL     1      -0.547   1.905   1.742  0.00  0.00    -0.006 Br
BRANCH   8  10
ATOM     10  C   UNL     1       1.814  -1.448  -1.657  0.00  0.00    +0.421 C 
ATOM     11  O   UNL     1       2.701  -1.469  -2.502  0.00  0.00    -0.237 OA
ATOM     12  O   UNL     1       1.177  -2.466  -1.412  0.00  0.00    -0.237 OA
ENDBRANCH   8  10
ENDBRANCH   1   5
BRANCH   1  13
ATOM     13  N   UNL     1       2.581   3.737   1.483  0.00  0.00    -0.188 NA
ATOM     14  H   UNL     1       2.105   4.266   2.142  0.00  0.00    +0.148 HD
BRANCH  13  15
ATOM     15  C   UNL     1       3.846   3.090   1.839  0.00  0.00    +0.062 C 
ATOM     16  C   UNL     1       4.997   4.080   1.647  0.00  0.00    +0.019 C 
ATOM     17  C   UNL     1       6.318   3.404   2.019  0.00  0.00    +0.001 C 
ATOM     18  C   UNL     1       6.269   2.956   3.481  0.00  0.00    -0.001 C 
ATOM     19  C   UNL     1       5.118   1.966   3.672  0.00  0.00    -0.015 C 
ATOM     20  C   UNL     1       3.797   2.642   3.301  0.00  0.00    -0.056 C 
BRANCH  20  21
ATOM     21  N   UNL     1       2.692   1.691   3.484  0.00  0.00    +0.381 N 
ATOM     22  H   UNL     1       2.838   0.888   2.891  0.00  0.00    -0.090 HD
ATOM     23  H   UNL     1       2.660   1.395   4.448  0.00  0.00    -0.090 HD
ATOM     24  H   UNL     1       1.821   2.136   3.239  0.00  0.00    -0.090 HD
ENDBRANCH  20  21
ENDBRANCH  13  15
ENDBRANCH   1  13
TORSDOF 5
