REMARK  Name = ZINC65458376
REMARK  3 active torsions:
REMARK  status: ('A' for Active; 'I' for Inactive)
REMARK    1  A    between atoms: C_1  and  C_2
REMARK    2  A    between atoms: C_8  and  N_12
REMARK    3  A    between atoms: C_13  and  C_15
REMARK                            x       y       z     vdW  Elec       q    Type
REMARK                         _______ _______ _______ _____ _____    ______ ____
ROOT
ATOM      1  N   UNL     1       0.282  -1.397   4.740  0.00  0.00    -0.305 N 
ATOM      2  C   UNL     1       1.025  -2.044   5.660  0.00  0.00    +0.266 C 
ATOM      3  O   UNL     1       1.863  -2.850   5.306  0.00  0.00    -0.268 OA
ATOM      4  H   UNL     1      -0.387  -0.754   5.023  0.00  0.00    +0.149 HD
ENDROOT
BRANCH   1  12
ATOM      5  C   UNL     1      -0.018   1.503   0.010  0.00  0.00    +0.088 C 
ATOM      6  C   UNL     1       0.002  -0.004   0.002  0.00  0.00    +0.130 A 
ATOM      7  N   UNL     1       0.008  -0.776  -1.054  0.00  0.00    -0.135 NA
ATOM      8  N   UNL     1       0.026  -2.012  -0.690  0.00  0.00    -0.134 NA
ATOM      9  C   UNL     1       0.031  -2.082   0.606  0.00  0.00    +0.134 A 
ATOM     10  N   UNL     1       0.023  -0.810   1.081  0.00  0.00    -0.313 N 
ATOM     11  C   UNL     1       0.035  -0.447   2.498  0.00  0.00    +0.147 C 
ATOM     12  C   UNL     1       0.485  -1.664   3.314  0.00  0.00    +0.093 C 
ATOM     13  C   UNL     1      -0.336  -2.890   2.904  0.00  0.00    +0.032 C 
ATOM     14  C   UNL     1       0.048  -3.310   1.481  0.00  0.00    +0.078 C 
ENDBRANCH   1  12
BRANCH   2  15
ATOM     15  C   UNL     1       0.820  -1.774   7.103  0.00  0.00    +0.171 A 
ATOM     16  C   UNL     1       1.524  -2.369   8.170  0.00  0.00    +0.027 A 
ATOM     17  C   UNL     1       1.045  -1.861   9.325  0.00  0.00    +0.141 A 
ATOM     18  O   UNL     1       0.083  -0.982   9.029  0.00  0.00    -0.359 OA
ATOM     19  N   UNL     1      -0.047  -0.932   7.618  0.00  0.00    -0.073 NA
ATOM     20  C   UNL     1       1.545  -2.254  10.694  0.00  0.00    +0.077 C 
ATOM     21  C   UNL     1       2.333  -3.563  10.565  0.00  0.00    +0.008 C 
ATOM     22  C   UNL     1       3.357  -3.433   9.434  0.00  0.00    +0.005 C 
ATOM     23  C   UNL     1       2.627  -3.395   8.086  0.00  0.00    +0.041 C 
ENDBRANCH   2  15
TORSDOF 2
