REMARK  Name = ZINC47274033
REMARK  5 active torsions:
REMARK  status: ('A' for Active; 'I' for Inactive)
REMARK    1  A    between atoms: C_1  and  C_2
REMARK    2  A    between atoms: C_2  and  C_4
REMARK    3  A    between atoms: C_2  and  N_13
REMARK    4  A    between atoms: N_9  and  C_10
REMARK    5  A    between atoms: C_16  and  C_19
REMARK                            x       y       z     vdW  Elec       q    Type
REMARK                         _______ _______ _______ _____ _____    ______ ____
ROOT
ATOM      1  N   UNL     1       0.713  -0.491   1.192  0.00  0.00    +0.390 N 
ATOM      2  C   UNL     1       0.724  -1.962   1.192  0.00  0.00    -0.073 C 
ATOM      3  C   UNL     1       1.681  -2.444   2.285  0.00  0.00    +0.017 C 
ATOM      4  C   UNL     1       1.365  -1.741   3.576  0.00  0.00    -0.046 C 
ATOM      5  C   UNL     1       0.625  -0.652   3.623  0.00  0.00    -0.041 C 
ATOM      6  C   UNL     1       0.027  -0.018   2.401  0.00  0.00    -0.050 C 
ATOM      7  H   UNL     1       1.660  -0.145   1.185  0.00  0.00    -0.080 HD
ENDROOT
BRANCH   4   8
ATOM      8  C   UNL     1       1.903  -2.291   4.836  0.00  0.00    +0.003 A 
ATOM      9  C   UNL     1       1.464  -3.395   5.492  0.00  0.00    +0.091 A 
ATOM     10  N   UNL     1       2.209  -3.589   6.619  0.00  0.00    -0.360 N 
ATOM     11  H   UNL     1       2.083  -4.315   7.250  0.00  0.00    +0.165 HD
ATOM     12  C   UNL     1       3.167  -2.604   6.731  0.00  0.00    +0.050 A 
ATOM     13  C   UNL     1       3.026  -1.752   5.623  0.00  0.00    +0.007 A 
ATOM     14  C   UNL     1       3.875  -0.658   5.471  0.00  0.00    +0.013 A 
ATOM     15  C   UNL     1       4.854  -0.418   6.409  0.00  0.00    +0.039 A 
ATOM     16  C   UNL     1       4.998  -1.262   7.504  0.00  0.00    +0.125 A 
ATOM     17  C   UNL     1       4.159  -2.344   7.671  0.00  0.00    +0.064 A 
ATOM     18  F   UNL     1       5.963  -1.015   8.417  0.00  0.00    -0.205 F 
ENDBRANCH   4   8
BRANCH   1  20
ATOM     19  C   UNL     1      -0.019   1.526   0.010  0.00  0.00    -0.004 C 
ATOM     20  C   UNL     1       0.002  -0.004   0.002  0.00  0.00    +0.017 C 
BRANCH  20  21
ATOM     21  C   UNL     1       0.707  -0.490  -1.238  0.00  0.00    +0.207 C 
ATOM     22  O   UNL     1       1.704  -1.174  -1.140  0.00  0.00    -0.277 OA
ATOM     23  N   UNL     1       0.231  -0.164  -2.456  0.00  0.00    -0.242 N 
ATOM     24  C   UNL     1       0.862  -0.599  -3.565  0.00  0.00    +0.306 C 
ATOM     25  O   UNL     1       1.860  -1.285  -3.466  0.00  0.00    -0.252 OA
ATOM     26  N   UNL     1       0.385  -0.273  -4.782  0.00  0.00    -0.296 N 
ATOM     27  H   UNL     1      -0.566   0.383  -2.534  0.00  0.00    +0.159 HD
ATOM     28  H   UNL     1      -0.412   0.274  -4.861  0.00  0.00    +0.151 HD
BRANCH  26  29
ATOM     29  C   UNL     1       1.071  -0.745  -5.988  0.00  0.00    +0.075 C 
ATOM     30  C   UNL     1       1.265   0.256  -7.128  0.00  0.00    +0.024 C 
ATOM     31  C   UNL     1       0.242  -0.874  -7.268  0.00  0.00    +0.024 C 
ENDBRANCH  26  29
ENDBRANCH  20  21
ENDBRANCH   1  20
TORSDOF 4
