REMARK  Name = ZINC03365165
REMARK  6 active torsions:
REMARK  status: ('A' for Active; 'I' for Inactive)
REMARK    1  A    between atoms: C_2  and  C_3
REMARK    2  A    between atoms: C_3  and  N_4
REMARK    3  A    between atoms: C_17  and  S_18
REMARK    4  A    between atoms: S_18  and  C_19
REMARK    5  A    between atoms: C_19  and  C_20
REMARK    6  A    between atoms: C_23  and  C_25
REMARK                            x       y       z     vdW  Elec       q    Type
REMARK                         _______ _______ _______ _____ _____    ______ ____
ROOT
ATOM      1  N   UNL     1      -1.318  -1.700  -1.126  0.00  0.00    -0.273 N 
ATOM      2  C   UNL     1      -1.822  -1.287  -2.307  0.00  0.00    +0.263 A 
ATOM      3  O   UNL     1      -2.255  -0.157  -2.433  0.00  0.00    -0.267 OA
ATOM      4  C   UNL     1      -1.840  -2.229  -3.441  0.00  0.00    +0.064 A 
ATOM      5  C   UNL     1      -2.349  -1.855  -4.683  0.00  0.00    +0.015 A 
ATOM      6  C   UNL     1      -2.349  -2.764  -5.721  0.00  0.00    +0.001 A 
ATOM      7  C   UNL     1      -1.845  -4.042  -5.532  0.00  0.00    +0.002 A 
ATOM      8  C   UNL     1      -1.339  -4.424  -4.306  0.00  0.00    +0.027 A 
ATOM      9  C   UNL     1      -1.331  -3.522  -3.252  0.00  0.00    +0.064 A 
ATOM     10  N   UNL     1      -0.824  -3.881  -2.005  0.00  0.00    -0.256 N 
ATOM     11  C   UNL     1      -0.817  -2.983  -0.972  0.00  0.00    +0.240 A 
ATOM     12  N   UNL     1      -0.285  -3.578   0.072  0.00  0.00    -0.109 NA
ATOM     13  N   UNL     1       0.061  -4.883  -0.298  0.00  0.00    -0.120 NA
ATOM     14  C   UNL     1      -0.278  -5.052  -1.552  0.00  0.00    +0.198 A 
ENDROOT
BRANCH   1  15
ATOM     15  C   UNL     1      -1.293  -0.775   0.010  0.00  0.00    +0.155 C 
BRANCH  15  17
ATOM     16  C   UNL     1      -0.016   1.306   0.009  0.00  0.00    +0.005 C 
ATOM     17  C   UNL     1       0.002  -0.004   0.002  0.00  0.00    -0.013 C 
ENDBRANCH  15  17
ENDBRANCH   1  15
BRANCH  14  18
ATOM     18  S   UNL     1      -0.054  -6.523  -2.496  0.00  0.00    -0.076 S 
BRANCH  18  19
ATOM     19  C   UNL     1       0.709  -7.683  -1.328  0.00  0.00    +0.175 C 
BRANCH  19  20
ATOM     20  C   UNL     1       0.957  -9.000  -2.017  0.00  0.00    +0.228 A 
ATOM     21  N   UNL     1       2.041  -9.341  -2.656  0.00  0.00    -0.111 NA
ATOM     22  N   UNL     1       1.909 -10.535  -3.119  0.00  0.00    -0.107 NA
ATOM     23  C   UNL     1       0.726 -10.999  -2.788  0.00  0.00    +0.249 A 
ATOM     24  O   UNL     1       0.104 -10.036  -2.078  0.00  0.00    -0.419 OA
BRANCH  23  25
ATOM     25  C   UNL     1       0.181 -12.331  -3.125  0.00  0.00    +0.052 A 
ATOM     26  C   UNL     1      -1.102 -12.689  -2.709  0.00  0.00    +0.014 A 
ATOM     27  C   UNL     1      -1.605 -13.933  -3.028  0.00  0.00    +0.001 A 
ATOM     28  C   UNL     1      -0.840 -14.827  -3.757  0.00  0.00    +0.001 A 
ATOM     29  C   UNL     1       0.433 -14.479  -4.172  0.00  0.00    +0.016 A 
ATOM     30  C   UNL     1       0.946 -13.234  -3.866  0.00  0.00    +0.030 A 
ATOM     31 BR   UNL     1       2.683 -12.758  -4.440  0.00  0.00    -0.050 Br
ENDBRANCH  23  25
ENDBRANCH  19  20
ENDBRANCH  18  19
ENDBRANCH  14  18
TORSDOF 6
