REMARK  Name = ZINC01930581
REMARK  9 active torsions:
REMARK  status: ('A' for Active; 'I' for Inactive)
REMARK    1  A    between atoms: C_1  and  C_2
REMARK    2  A    between atoms: C_2  and  O_3
REMARK    3  A    between atoms: O_3  and  C_4
REMARK    4  A    between atoms: C_4  and  C_6
REMARK    5  A    between atoms: C_7  and  C_25
REMARK    6  A    between atoms: C_8  and  C_23
REMARK    7  A    between atoms: C_9  and  N_11
REMARK    8  A    between atoms: C_12  and  C_14
REMARK    9  A    between atoms: C_19  and  N_20
REMARK                            x       y       z     vdW  Elec       q    Type
REMARK                         _______ _______ _______ _____ _____    ______ ____
ROOT
ATOM      1  C   UNL     1       1.011   3.670   0.115  0.00  0.00    +0.102 A 
ATOM      2  C   UNL     1       1.144   2.296   0.115  0.00  0.00    -0.010 A 
ATOM      3  C   UNL     1      -0.019   1.544   0.107  0.00  0.00    +0.084 A 
ATOM      4  C   UNL     1      -1.239   2.226   0.095  0.00  0.00    +0.091 A 
ATOM      5  S   UNL     1      -0.758   3.891   0.104  0.00  0.00    -0.065 S 
ATOM      6  C   UNL     1       2.501   1.640   0.124  0.00  0.00    +0.046 C 
ENDROOT
BRANCH   4   7
ATOM      7  N   UNL     1      -2.516   1.701   0.081  0.00  0.00    -0.275 N 
ATOM      8  C   UNL     1      -3.583   2.524   0.070  0.00  0.00    +0.251 C 
ATOM      9  O   UNL     1      -3.421   3.729   0.072  0.00  0.00    -0.270 OA
ATOM     10  H   UNL     1      -2.645   0.740   0.078  0.00  0.00    +0.156 HD
BRANCH   8  11
ATOM     11  C   UNL     1      -4.950   1.963   0.054  0.00  0.00    +0.067 A 
ATOM     12  C   UNL     1      -5.347   1.058   1.041  0.00  0.00    +0.015 A 
ATOM     13  C   UNL     1      -6.626   0.541   1.024  0.00  0.00    +0.001 A 
ATOM     14  C   UNL     1      -7.511   0.910   0.026  0.00  0.00    +0.002 A 
ATOM     15  C   UNL     1      -7.122   1.802  -0.958  0.00  0.00    +0.033 A 
ATOM     16  C   UNL     1      -5.848   2.330  -0.949  0.00  0.00    +0.138 A 
BRANCH  16  17
ATOM     17  N   UNL     1      -5.433   3.284  -2.003  0.00  0.00    +0.057 N 
ATOM     18  O   UNL     1      -6.250   3.695  -2.808  0.00  0.00    -0.126 OA
ATOM     19  O   UNL     1      -4.275   3.657  -2.065  0.00  0.00    -0.126 OA
ENDBRANCH  16  17
ENDBRANCH   8  11
ENDBRANCH   4   7
BRANCH   1  20
ATOM     20  C   UNL     1       2.059   4.689   0.122  0.00  0.00    +0.346 C 
ATOM     21  O   UNL     1       3.230   4.358   0.129  0.00  0.00    -0.244 OA
BRANCH  20  22
ATOM     22  O   UNL     1       1.728   5.997   0.120  0.00  0.00    -0.461 OA
BRANCH  22  24
ATOM     23  C   UNL     1       2.237   8.360   0.125  0.00  0.00    +0.048 C 
ATOM     24  C   UNL     1       2.803   6.939   0.127  0.00  0.00    +0.229 C 
ENDBRANCH  22  24
ENDBRANCH  20  22
ENDBRANCH   1  20
BRANCH   3  25
ATOM     25  C   UNL     1       0.028   0.113   0.106  0.00  0.00    +0.102 C 
ATOM     26  N   UNL     1       0.064  -1.023   0.106  0.00  0.00    -0.191 NA
ENDBRANCH   3  25
TORSDOF 7
