REMARK  Name = ZINC39980014
REMARK  8 active torsions:
REMARK  status: ('A' for Active; 'I' for Inactive)
REMARK    1  A    between atoms: C_1  and  C_2
REMARK    2  A    between atoms: C_2  and  O_3
REMARK    3  A    between atoms: O_3  and  C_4
REMARK    4  A    between atoms: C_4  and  C_6
REMARK    5  A    between atoms: C_9  and  N_12
REMARK    6  A    between atoms: C_13  and  C_15
REMARK    7  A    between atoms: C_18  and  O_30
REMARK    8  A    between atoms: C_24  and  C_25
REMARK                            x       y       z     vdW  Elec       q    Type
REMARK                         _______ _______ _______ _____ _____    ______ ____
ROOT
ATOM      1  C   UNL     1      -8.224  -5.984  -0.162  0.00  0.00    +0.204 C 
ATOM      2  C   UNL     1      -9.033  -5.625   1.089  0.00  0.00    +0.131 C 
ATOM      3  C   UNL     1      -8.640  -6.478   2.260  0.00  0.00    +0.191 C 
ATOM      4  N   UNL     1      -8.244  -7.713   2.130  0.00  0.00    -0.197 NA
ATOM      5  C   UNL     1      -8.155  -8.236   0.877  0.00  0.00    +0.163 A 
ATOM      6  N   UNL     1      -8.138  -7.444  -0.245  0.00  0.00    -0.234 N 
ATOM      7  N   UNL     1      -8.035  -8.269  -1.358  0.00  0.00    -0.176 NA
ATOM      8  C   UNL     1      -7.993  -9.518  -0.962  0.00  0.00    +0.145 A 
ATOM      9  C   UNL     1      -8.067  -9.546   0.450  0.00  0.00    +0.052 A 
ENDROOT
BRANCH   9  10
ATOM     10  C   UNL     1      -8.053 -10.750   1.307  0.00  0.00    +0.024 A 
ATOM     11  C   UNL     1      -8.805 -11.891   1.204  0.00  0.00    +0.016 A 
ATOM     12  C   UNL     1      -8.615 -12.894   2.131  0.00  0.00    +0.008 A 
ATOM     13  C   UNL     1      -7.694 -12.722   3.113  0.00  0.00    +0.046 A 
ATOM     14  S   UNL     1      -7.048 -11.100   2.740  0.00  0.00    -0.096 S 
ENDBRANCH   9  10
BRANCH   1  16
ATOM     15  N   UNL     1      -6.679  -4.063   0.043  0.00  0.00    -0.284 N 
ATOM     16  C   UNL     1      -6.840  -5.397  -0.058  0.00  0.00    +0.242 C 
ATOM     17  O   UNL     1      -5.870  -6.126  -0.067  0.00  0.00    -0.273 OA
ATOM     18  H   UNL     1      -7.454  -3.486   0.127  0.00  0.00    +0.155 HD
BRANCH  15  22
ATOM     19  C   UNL     1      -2.853  -2.417  -0.002  0.00  0.00    +0.059 A 
ATOM     20  C   UNL     1      -3.132  -3.562  -0.754  0.00  0.00    +0.017 A 
ATOM     21  C   UNL     1      -4.397  -4.104  -0.736  0.00  0.00    +0.024 A 
ATOM     22  C   UNL     1      -5.398  -3.512   0.029  0.00  0.00    +0.033 A 
ATOM     23  C   UNL     1      -5.124  -2.373   0.778  0.00  0.00    +0.024 A 
ATOM     24  C   UNL     1      -3.859  -1.829   0.770  0.00  0.00    +0.017 A 
BRANCH  19  25
ATOM     25  C   UNL     1      -1.498  -1.835  -0.017  0.00  0.00    +0.339 C 
ATOM     26  O   UNL     1      -1.256  -0.843   0.641  0.00  0.00    -0.245 OA
BRANCH  25  27
ATOM     27  O   UNL     1      -0.529  -2.403  -0.762  0.00  0.00    -0.461 OA
BRANCH  27  29
ATOM     28  C   UNL     1       1.721  -2.565  -1.629  0.00  0.00    +0.048 C 
ATOM     29  C   UNL     1       0.759  -1.785  -0.730  0.00  0.00    +0.229 C 
ENDBRANCH  27  29
ENDBRANCH  25  27
ENDBRANCH  19  25
ENDBRANCH  15  22
ENDBRANCH   1  16
BRANCH   3  30
ATOM     30  O   UNL     1      -8.699  -5.944   3.498  0.00  0.00    -0.495 OA
ATOM     31  H   UNL     1      -8.431  -6.552   4.201  0.00  0.00    +0.293 HD
ENDBRANCH   3  30
TORSDOF 7
