REMARK  Name = ZINC62559167
REMARK  7 active torsions:
REMARK  status: ('A' for Active; 'I' for Inactive)
REMARK    1  A    between atoms: C_1  and  C_2
REMARK    2  A    between atoms: C_7  and  S_8
REMARK    3  A    between atoms: S_8  and  N_11
REMARK    4  A    between atoms: N_11  and  C_12
REMARK    5  A    between atoms: N_11  and  C_13
REMARK    6  A    between atoms: C_13  and  C_14
REMARK    7  A    between atoms: C_14  and  O_15
REMARK                            x       y       z     vdW  Elec       q    Type
REMARK                         _______ _______ _______ _____ _____    ______ ____
ROOT
ATOM      1  C   UNL     1      -0.039   1.300  -0.126  0.00  0.00    +0.046 C 
ATOM      2  C   UNL     1       0.128  -0.195  -0.046  0.00  0.00    -0.022 A 
ATOM      3  C   UNL     1       0.137  -0.950  -1.203  0.00  0.00    +0.033 A 
ATOM      4  C   UNL     1       0.290  -2.325  -1.129  0.00  0.00    +0.067 A 
ATOM      5  C   UNL     1       0.434  -2.943   0.116  0.00  0.00    +0.069 A 
ATOM      6  C   UNL     1       0.423  -2.178   1.272  0.00  0.00    +0.056 A 
ATOM      7  C   UNL     1       0.277  -0.806   1.187  0.00  0.00    +0.110 A 
ATOM      8  N   UNL     1       0.567  -4.308  -0.125  0.00  0.00    -0.306 N 
ATOM      9  H   UNL     1       0.684  -4.995   0.549  0.00  0.00    +0.170 HD
ATOM     10  C   UNL     1       0.506  -4.512  -1.455  0.00  0.00    +0.325 A 
ATOM     11  O   UNL     1       0.589  -5.596  -2.002  0.00  0.00    -0.247 OA
ATOM     12  N   UNL     1       0.339  -3.335  -2.087  0.00  0.00    -0.306 N 
ATOM     13  H   UNL     1       0.266  -3.211  -3.046  0.00  0.00    +0.170 HD
ENDROOT
BRANCH   7  14
ATOM     14  S   UNL     1       0.272   0.167   2.655  0.00  0.00    +0.061 S 
ATOM     15  O   UNL     1      -0.848   1.037   2.562  0.00  0.00    -0.153 OA
ATOM     16  O   UNL     1       0.448  -0.733   3.741  0.00  0.00    -0.153 OA
BRANCH  14  17
ATOM     17  N   UNL     1       1.621   1.126   2.612  0.00  0.00    -0.177 NA
ATOM     18  C   UNL     1       1.513   2.523   2.184  0.00  0.00    +0.131 C 
BRANCH  17  19
ATOM     19  C   UNL     1       2.923   0.578   3.001  0.00  0.00    +0.137 C 
BRANCH  19  20
ATOM     20  C   UNL     1       3.668   0.100   1.753  0.00  0.00    +0.173 C 
BRANCH  20  21
ATOM     21  O   UNL     1       3.965   1.220   0.917  0.00  0.00    -0.394 OA
ATOM     22  H   UNL     1       4.438   0.991   0.106  0.00  0.00    +0.209 HD
ENDBRANCH  20  21
ENDBRANCH  19  20
ENDBRANCH  17  19
ENDBRANCH  14  17
ENDBRANCH   7  14
TORSDOF 5
