REMARK  Name = ZINC15056709
REMARK  8 active torsions:
REMARK  status: ('A' for Active; 'I' for Inactive)
REMARK    1  A    between atoms: C_1  and  O_2
REMARK    2  A    between atoms: O_2  and  C_3
REMARK    3  A    between atoms: C_5  and  C_24
REMARK    4  A    between atoms: C_8  and  O_9
REMARK    5  A    between atoms: O_9  and  C_10
REMARK    6  A    between atoms: C_10  and  C_11
REMARK    7  A    between atoms: N_13  and  C_14
REMARK    8  A    between atoms: C_18  and  C_20
REMARK                            x       y       z     vdW  Elec       q    Type
REMARK                         _______ _______ _______ _____ _____    ______ ____
ROOT
ATOM      1  C   UNL     1      -1.205  -0.993   0.505  0.00  0.00    +0.162 A 
ATOM      2  C   UNL     1      -2.350  -0.222   0.489  0.00  0.00    +0.057 A 
ATOM      3  C   UNL     1      -3.571  -0.797   0.115  0.00  0.00    -0.020 A 
ATOM      4  C   UNL     1      -3.623  -2.150  -0.241  0.00  0.00    +0.012 A 
ATOM      5  C   UNL     1      -2.474  -2.911  -0.222  0.00  0.00    +0.050 A 
ATOM      6  C   UNL     1      -1.264  -2.338   0.144  0.00  0.00    +0.163 A 
ENDROOT
BRANCH   3   7
ATOM      7  C   UNL     1      -4.793   0.017   0.096  0.00  0.00    +0.028 C 
ATOM      8  C   UNL     1      -5.876  -0.401  -0.607  0.00  0.00    +0.078 C 
ATOM      9  C   UNL     1      -7.236   0.169  -0.657  0.00  0.00    +0.256 C 
ATOM     10  O   UNL     1      -7.536   1.157  -0.012  0.00  0.00    -0.269 OA
ATOM     11  N   UNL     1      -8.114  -0.442  -1.434  0.00  0.00    -0.261 N 
ATOM     12  C   UNL     1      -7.753  -1.561  -2.157  0.00  0.00    +0.158 C 
ATOM     13  N   UNL     1      -8.488  -2.278  -2.963  0.00  0.00    -0.279 NA
ATOM     14  S   UNL     1      -6.035  -1.784  -1.726  0.00  0.00    -0.049 S 
ATOM     15  H   UNL     1      -9.020  -0.101  -1.496  0.00  0.00    +0.157 HD
ATOM     16  H   UNL     1      -8.105  -3.047  -3.412  0.00  0.00    +0.189 HD
ENDBRANCH   3   7
BRANCH   1  18
ATOM     17  C   UNL     1      -0.030   0.946   1.225  0.00  0.00    +0.277 C 
ATOM     18  O   UNL     1      -0.017  -0.438   0.868  0.00  0.00    -0.491 OA
ENDBRANCH   1  18
BRANCH   6  19
ATOM     19  O   UNL     1      -0.134  -3.093   0.155  0.00  0.00    -0.479 OA
BRANCH  19  20
ATOM     20  C   UNL     1      -0.265  -4.464  -0.226  0.00  0.00    +0.325 C 
BRANCH  20  21
ATOM     21  C   UNL     1       1.081  -5.136  -0.153  0.00  0.00    +0.255 C 
ATOM     22  O   UNL     1       2.057  -4.504   0.191  0.00  0.00    -0.272 OA
ATOM     23  N   UNL     1       1.201  -6.441  -0.471  0.00  0.00    -0.283 N 
ATOM     24  H   UNL     1       0.434  -6.930  -0.809  0.00  0.00    +0.155 HD
BRANCH  23  25
ATOM     25  C   UNL     1       2.430  -7.090  -0.312  0.00  0.00    +0.034 A 
ATOM     26  C   UNL     1       2.798  -8.107  -1.183  0.00  0.00    +0.023 A 
ATOM     27  C   UNL     1       4.012  -8.746  -1.024  0.00  0.00    +0.002 A 
ATOM     28  C   UNL     1       4.861  -8.373   0.003  0.00  0.00    +0.012 A 
ATOM     29  C   UNL     1       4.498  -7.362   0.872  0.00  0.00    +0.057 A 
ATOM     30  C   UNL     1       3.288  -6.714   0.714  0.00  0.00    +0.035 A 
BRANCH  29  31
ATOM     31  C   UNL     1       5.426  -6.960   1.989  0.00  0.00    +0.417 C 
ATOM     32  F   UNL     1       6.581  -7.747   1.941  0.00  0.00    -0.166 F 
ATOM     33  F   UNL     1       5.773  -5.612   1.845  0.00  0.00    -0.166 F 
ATOM     34  F   UNL     1       4.784  -7.147   3.218  0.00  0.00    -0.166 F 
ENDBRANCH  29  31
ENDBRANCH  23  25
ENDBRANCH  20  21
ENDBRANCH  19  20
ENDBRANCH   6  19
TORSDOF 7
