REMARK  Name = ZINC37696575
REMARK  5 active torsions:
REMARK  status: ('A' for Active; 'I' for Inactive)
REMARK    1  A    between atoms: C_1  and  C_2
REMARK    2  A    between atoms: C_4  and  O_10
REMARK    3  A    between atoms: C_6  and  C_9
REMARK    4  A    between atoms: O_10  and  C_11
REMARK    5  A    between atoms: C_16  and  O_18
REMARK                            x       y       z     vdW  Elec       q    Type
REMARK                         _______ _______ _______ _____ _____    ______ ____
ROOT
ATOM      1  C   UNL     1      -0.416   1.466   0.035  0.00  0.00    +0.045 C 
ATOM      2  C   UNL     1      -0.393  -0.041   0.007  0.00  0.00    -0.028 A 
ATOM      3  C   UNL     1      -0.191  -0.706  -1.187  0.00  0.00    +0.050 A 
ATOM      4  C   UNL     1      -0.169  -2.093  -1.212  0.00  0.00    +0.122 A 
ATOM      5  C   UNL     1      -0.349  -2.809  -0.037  0.00  0.00    +0.050 A 
ATOM      6  C   UNL     1      -0.550  -2.140   1.155  0.00  0.00    -0.028 A 
ATOM      7  C   UNL     1      -0.567  -0.757   1.178  0.00  0.00    +0.047 A 
ATOM      8 CL   UNL     1      -0.813   0.081   2.679  0.00  0.00    -0.083 Cl
ATOM      9  C   UNL     1      -0.746  -2.918   2.430  0.00  0.00    +0.045 C 
ENDROOT
BRANCH   4  10
ATOM     10  O   UNL     1       0.028  -2.749  -2.386  0.00  0.00    -0.486 OA
BRANCH  10  11
ATOM     11  C   UNL     1       0.159  -4.171  -2.320  0.00  0.00    +0.202 C 
ATOM     12  C   UNL     1      -1.228  -4.849  -2.433  0.00  0.00    +0.047 C 
ATOM     13  C   UNL     1      -0.875  -6.266  -2.949  0.00  0.00    +0.006 C 
ATOM     14  C   UNL     1       0.281  -6.030  -3.942  0.00  0.00    +0.035 C 
ATOM     15  C   UNL     1       0.942  -4.698  -3.541  0.00  0.00    +0.155 C 
BRANCH  15  16
ATOM     16  O   UNL     1       2.310  -4.913  -3.189  0.00  0.00    -0.388 OA
ATOM     17  H   UNL     1       2.855  -5.245  -3.916  0.00  0.00    +0.210 HD
ENDBRANCH  15  16
ENDBRANCH  10  11
ENDBRANCH   4  10
TORSDOF 3
