REMARK  Name = ZINC33703147
REMARK  8 active torsions:
REMARK  status: ('A' for Active; 'I' for Inactive)
REMARK    1  A    between atoms: C_1  and  O_2
REMARK    2  A    between atoms: O_2  and  C_3
REMARK    3  A    between atoms: C_3  and  C_4
REMARK    4  A    between atoms: C_4  and  N_5
REMARK    5  A    between atoms: N_5  and  C_6
REMARK    6  A    between atoms: C_6  and  C_7
REMARK    7  A    between atoms: C_17  and  C_19
REMARK    8  A    between atoms: C_26  and  C_28
REMARK                            x       y       z     vdW  Elec       q    Type
REMARK                         _______ _______ _______ _____ _____    ______ ____
ROOT
ATOM      1  C   UNL     1      -0.858   2.628  -2.281  0.00  0.00    +0.234 C 
ATOM      2  O   UNL     1      -1.622   3.160  -3.059  0.00  0.00    -0.274 OA
ATOM      3  N   UNL     1      -1.312   2.170  -1.098  0.00  0.00    -0.286 N 
ATOM      4  C   UNL     1      -0.426   1.439  -0.179  0.00  0.00    +0.130 C 
ATOM      5  C   UNL     1      -0.258   2.247   1.112  0.00  0.00    +0.140 C 
ATOM      6  N   UNL     1      -1.573   2.717   1.563  0.00  0.00    -0.347 N 
ATOM      7  C   UNL     1      -1.903   3.151   2.810  0.00  0.00    +0.086 A 
ATOM      8  C   UNL     1      -3.205   3.505   2.804  0.00  0.00    +0.019 A 
ATOM      9  C   UNL     1      -3.700   3.279   1.502  0.00  0.00    +0.025 A 
ATOM     10  C   UNL     1      -2.685   2.794   0.769  0.00  0.00    +0.044 A 
ATOM     11  C   UNL     1      -2.711   2.387  -0.686  0.00  0.00    +0.153 C 
ENDROOT
BRANCH  11  12
ATOM     12  C   UNL     1      -3.327   3.484  -1.516  0.00  0.00    -0.019 A 
ATOM     13  C   UNL     1      -2.691   4.706  -1.628  0.00  0.00    +0.006 A 
ATOM     14  C   UNL     1      -3.252   5.711  -2.393  0.00  0.00    +0.003 A 
ATOM     15  C   UNL     1      -4.456   5.499  -3.038  0.00  0.00    +0.038 A 
ATOM     16  C   UNL     1      -5.097   4.277  -2.922  0.00  0.00    +0.124 A 
ATOM     17  C   UNL     1      -4.531   3.269  -2.160  0.00  0.00    +0.044 A 
ATOM     18  F   UNL     1      -6.274   4.069  -3.551  0.00  0.00    -0.205 F 
ENDBRANCH  11  12
BRANCH   1  19
ATOM     19  C   UNL     1       0.599   2.479  -2.639  0.00  0.00    +0.204 C 
BRANCH  19  20
ATOM     20  N   UNL     1       0.837   3.051  -3.966  0.00  0.00    -0.287 N 
ATOM     21  C   UNL     1       1.172   4.351  -4.089  0.00  0.00    +0.247 C 
ATOM     22  O   UNL     1       1.330   5.034  -3.096  0.00  0.00    -0.270 OA
BRANCH  21  23
ATOM     23  C   UNL     1       1.348   4.945  -5.431  0.00  0.00    +0.037 A 
ATOM     24  C   UNL     1       2.198   4.340  -6.359  0.00  0.00    +0.014 A 
ATOM     25  C   UNL     1       2.354   4.896  -7.611  0.00  0.00    +0.016 A 
ATOM     26  C   UNL     1       1.678   6.057  -7.946  0.00  0.00    +0.018 A 
ATOM     27  C   UNL     1       0.837   6.665  -7.028  0.00  0.00    +0.016 A 
ATOM     28  C   UNL     1       0.669   6.115  -5.774  0.00  0.00    +0.014 A 
ATOM     29 BR   UNL     1       1.903   6.817  -9.663  0.00  0.00    -0.050 Br
ENDBRANCH  21  23
BRANCH  20  30
ATOM     30  C   UNL     1       0.711   2.211  -5.160  0.00  0.00    +0.136 C 
BRANCH  30  31
ATOM     31  C   UNL     1      -0.708   2.330  -5.719  0.00  0.00    +0.178 C 
BRANCH  31  33
ATOM     32  C   UNL     1      -2.233   3.887  -6.718  0.00  0.00    +0.194 C 
ATOM     33  O   UNL     1      -0.931   3.667  -6.173  0.00  0.00    -0.381 OA
ENDBRANCH  31  33
ENDBRANCH  30  31
ENDBRANCH  20  30
ENDBRANCH  19  20
ENDBRANCH   1  19
TORSDOF 7
