REMARK  Name = ZINC04172278
REMARK  6 active torsions:
REMARK  status: ('A' for Active; 'I' for Inactive)
REMARK    1  A    between atoms: C_1  and  C_2
REMARK    2  A    between atoms: C_2  and  O_3
REMARK    3  A    between atoms: O_3  and  C_4
REMARK    4  A    between atoms: C_8  and  C_11
REMARK    5  A    between atoms: C_9  and  O_10
REMARK    6  A    between atoms: C_22  and  N_46
REMARK                            x       y       z     vdW  Elec       q    Type
REMARK                         _______ _______ _______ _____ _____    ______ ____
ROOT
ATOM      1  C   UNL     1       1.190   1.506   2.504  0.00  0.00    +0.194 C 
ATOM      2  N   UNL     1       1.756   2.368   3.558  0.00  0.00    -0.316 N 
ATOM      3  C   UNL     1       1.237   3.632   3.665  0.00  0.00    +0.080 A 
ATOM      4  C   UNL     1      -0.045   3.973   3.205  0.00  0.00    +0.068 A 
ATOM      5  C   UNL     1      -0.440   5.356   3.405  0.00  0.00    -0.027 A 
ATOM      6  C   UNL     1       0.478   6.148   4.005  0.00  0.00    -0.021 A 
ATOM      7  S   UNL     1       1.863   5.088   4.314  0.00  0.00    -0.080 S 
ATOM      8  C   UNL     1       0.327   7.602   4.322  0.00  0.00    -0.036 C 
ATOM      9  C   UNL     1      -1.997   7.251   3.739  0.00  0.00    -0.074 C 
ATOM     10  C   UNL     1      -1.788   5.934   2.987  0.00  0.00    +0.018 C 
ATOM     11  C   UNL     1      -1.136   9.504   3.960  0.00  0.00    -0.096 C 
ATOM     12  C   UNL     1      -0.851   2.903   2.573  0.00  0.00    +0.248 C 
ATOM     13  O   UNL     1      -2.011   3.089   2.253  0.00  0.00    -0.270 OA
ATOM     14  N   UNL     1      -0.247   1.714   2.366  0.00  0.00    -0.289 N 
ATOM     15  H   UNL     1       2.462   2.056   4.146  0.00  0.00    +0.149 HD
ATOM     16  H   UNL     1      -0.798   0.958   2.111  0.00  0.00    +0.151 HD
ATOM     17  N   UNL     1      -0.821   8.121   3.539  0.00  0.00    +0.381 N 
ATOM     18  H   UNL     1      -0.572   8.124   2.543  0.00  0.00    -0.082 HD
ENDROOT
BRANCH   1  23
ATOM     19  C   UNL     1       1.845   1.831  -1.210  0.00  0.00    +0.162 A 
ATOM     20  C   UNL     1       3.103   2.412  -1.214  0.00  0.00    +0.049 A 
ATOM     21  C   UNL     1       3.738   2.693  -0.018  0.00  0.00    +0.004 A 
ATOM     22  C   UNL     1       3.121   2.396   1.183  0.00  0.00    +0.011 A 
ATOM     23  C   UNL     1       1.863   1.823   1.193  0.00  0.00    +0.036 A 
ATOM     24  C   UNL     1       1.224   1.533  -0.001  0.00  0.00    +0.165 A 
BRANCH  24  25
ATOM     25  O   UNL     1      -0.011   0.963   0.007  0.00  0.00    -0.503 OA
ATOM     26  H   UNL     1       0.002  -0.004   0.002  0.00  0.00    +0.292 HD
ENDBRANCH  24  25
BRANCH  19  27
ATOM     27  O   UNL     1       1.220   1.554  -2.385  0.00  0.00    -0.489 OA
BRANCH  27  29
ATOM     28  C   UNL     1       1.063   1.504  -4.796  0.00  0.00    +0.048 C 
ATOM     29  C   UNL     1       1.917   1.888  -3.587  0.00  0.00    +0.226 C 
ENDBRANCH  27  29
ENDBRANCH  19  27
ENDBRANCH   1  23
TORSDOF 4
