REMARK  Name = ZINC09185249
REMARK  9 active torsions:
REMARK  status: ('A' for Active; 'I' for Inactive)
REMARK    1  A    between atoms: C_1  and  N_2
REMARK    2  A    between atoms: N_2  and  C_3
REMARK    3  A    between atoms: N_2  and  S_4
REMARK    4  A    between atoms: S_4  and  C_7
REMARK    5  A    between atoms: C_11  and  C_13
REMARK    6  A    between atoms: C_14  and  C_24
REMARK    7  A    between atoms: N_16  and  C_18
REMARK    8  A    between atoms: C_25  and  C_26
REMARK    9  A    between atoms: C_25  and  C_28
REMARK                            x       y       z     vdW  Elec       q    Type
REMARK                         _______ _______ _______ _____ _____    ______ ____
ROOT
ATOM      1  C   UNL     1       2.541   0.675  -0.535  0.00  0.00    +0.100 A 
ATOM      2  C   UNL     1       3.776   1.367  -0.923  0.00  0.00    +0.022 A 
ATOM      3  C   UNL     1       4.817   0.506  -0.619  0.00  0.00    +0.123 A 
ATOM      4  N   UNL     1       4.283  -0.615  -0.101  0.00  0.00    -0.239 N 
ATOM      5  N   UNL     1       2.891  -0.497  -0.056  0.00  0.00    -0.166 NA
ENDROOT
BRANCH   1  10
ATOM      6  C   UNL     1      -1.172   0.825  -1.100  0.00  0.00    +0.106 A 
ATOM      7  C   UNL     1      -1.420   2.173  -0.906  0.00  0.00    +0.028 A 
ATOM      8  C   UNL     1      -0.384   3.035  -0.597  0.00  0.00    +0.003 A 
ATOM      9  C   UNL     1       0.904   2.555  -0.476  0.00  0.00    +0.010 A 
ATOM     10  C   UNL     1       1.160   1.197  -0.664  0.00  0.00    +0.005 A 
ATOM     11  C   UNL     1       0.111   0.333  -0.975  0.00  0.00    +0.038 A 
BRANCH   6  12
ATOM     12  S   UNL     1      -2.497  -0.264  -1.501  0.00  0.00    +0.060 S 
ATOM     13  O   UNL     1      -3.512   0.532  -2.096  0.00  0.00    -0.153 OA
ATOM     14  O   UNL     1      -1.919  -1.381  -2.162  0.00  0.00    -0.153 OA
BRANCH  12  16
ATOM     15  C   UNL     1      -4.201  -0.104   0.594  0.00  0.00    +0.131 C 
ATOM     16  N   UNL     1      -3.116  -0.829  -0.072  0.00  0.00    -0.183 NA
ATOM     17  C   UNL     1      -2.578  -2.053   0.526  0.00  0.00    +0.131 C 
ENDBRANCH  12  16
ENDBRANCH   6  12
ENDBRANCH   1  10
BRANCH   4  18
ATOM     18  C   UNL     1       5.012  -1.731   0.328  0.00  0.00    +0.065 A 
ATOM     19  C   UNL     1       6.397  -1.738   0.229  0.00  0.00    +0.028 A 
ATOM     20  C   UNL     1       7.113  -2.839   0.657  0.00  0.00    +0.002 A 
ATOM     21  C   UNL     1       6.452  -3.938   1.174  0.00  0.00    +0.000 A 
ATOM     22  C   UNL     1       5.072  -3.936   1.270  0.00  0.00    +0.002 A 
ATOM     23  C   UNL     1       4.351  -2.836   0.848  0.00  0.00    +0.028 A 
ENDBRANCH   4  18
BRANCH   2  24
ATOM     24  C   UNL     1       3.886   2.703  -1.512  0.00  0.00    +0.033 C 
ATOM     25  C   UNL     1       5.094   3.362  -1.502  0.00  0.00    +0.084 C 
BRANCH  25  26
ATOM     26  C   UNL     1       5.244   4.638  -2.224  0.00  0.00    +0.120 A 
ATOM     27  N   UNL     1       6.307   5.409  -2.330  0.00  0.00    -0.238 NA
ATOM     28  C   UNL     1       6.300   6.560  -3.030  0.00  0.00    +0.079 A 
ATOM     29  C   UNL     1       7.364   7.473  -3.223  0.00  0.00    +0.029 A 
ATOM     30  C   UNL     1       7.190   8.599  -3.964  0.00  0.00    +0.002 A 
ATOM     31  C   UNL     1       5.973   8.900  -4.559  0.00  0.00    +0.001 A 
ATOM     32  C   UNL     1       4.907   8.034  -4.396  0.00  0.00    +0.017 A 
ATOM     33  C   UNL     1       5.072   6.894  -3.649  0.00  0.00    +0.040 A 
ATOM     34  S   UNL     1       4.030   5.531  -3.186  0.00  0.00    -0.067 S 
ENDBRANCH  25  26
BRANCH  25  35
ATOM     35  C   UNL     1       6.206   2.809  -0.789  0.00  0.00    +0.102 C 
ATOM     36  N   UNL     1       7.088   2.369  -0.224  0.00  0.00    -0.191 NA
ENDBRANCH  25  35
ENDBRANCH   2  24
TORSDOF 7
