REMARK  Name = ZINC05483238
REMARK  8 active torsions:
REMARK  status: ('A' for Active; 'I' for Inactive)
REMARK    1  A    between atoms: C_4  and  N_7
REMARK    2  A    between atoms: N_7  and  N_8
REMARK    3  A    between atoms: C_10  and  C_21
REMARK    4  A    between atoms: N_12  and  C_15
REMARK    5  A    between atoms: C_21  and  C_23
REMARK    6  A    between atoms: C_23  and  C_25
REMARK    7  A    between atoms: C_23  and  O_27
REMARK    8  A    between atoms: C_25  and  O_26
REMARK                            x       y       z     vdW  Elec       q    Type
REMARK                         _______ _______ _______ _____ _____    ______ ____
ROOT
ATOM      1  N   UNL     1       3.638  -1.938  -0.043  0.00  0.00    -0.175 NA
ATOM      2  C   UNL     1       4.792  -2.580  -0.058  0.00  0.00    +0.171 C 
ATOM      3  C   UNL     1       6.143  -1.999  -0.063  0.00  0.00    +0.126 C 
ATOM      4  N   UNL     1       6.992  -2.980  -0.079  0.00  0.00    -0.172 NA
ATOM      5  N   UNL     1       6.344  -4.215  -0.086  0.00  0.00    -0.155 N 
ATOM      6  C   UNL     1       5.007  -4.037  -0.068  0.00  0.00    +0.292 C 
ATOM      7  O   UNL     1       4.152  -4.906  -0.063  0.00  0.00    -0.266 OA
ENDROOT
BRANCH   5   8
ATOM      8  C   UNL     1       6.988  -5.458  -0.103  0.00  0.00    +0.060 A 
ATOM      9  C   UNL     1       6.241  -6.628  -0.116  0.00  0.00    +0.025 A 
ATOM     10  C   UNL     1       6.879  -7.853  -0.134  0.00  0.00    +0.002 A 
ATOM     11  C   UNL     1       8.261  -7.915  -0.139  0.00  0.00    +0.000 A 
ATOM     12  C   UNL     1       9.008  -6.751  -0.126  0.00  0.00    +0.002 A 
ATOM     13  C   UNL     1       8.375  -5.523  -0.115  0.00  0.00    +0.025 A 
ENDBRANCH   5   8
BRANCH   1  14
ATOM     14  N   UNL     1       3.619  -0.648  -0.036  0.00  0.00    -0.237 N 
ATOM     15  H   UNL     1       4.451  -0.150  -0.042  0.00  0.00    +0.174 HD
BRANCH  14  19
ATOM     16  C   UNL     1      -0.017   1.379   0.010  0.00  0.00    +0.000 A 
ATOM     17  C   UNL     1       1.169   2.090   0.002  0.00  0.00    +0.002 A 
ATOM     18  C   UNL     1       2.377   1.421  -0.013  0.00  0.00    +0.025 A 
ATOM     19  C   UNL     1       2.400   0.032  -0.021  0.00  0.00    +0.048 A 
ATOM     20  C   UNL     1       1.206  -0.680  -0.013  0.00  0.00    +0.025 A 
ATOM     21  C   UNL     1       0.002  -0.004   0.002  0.00  0.00    +0.002 A 
ENDBRANCH  14  19
ENDBRANCH   1  14
BRANCH   3  22
ATOM     22  C   UNL     1       6.479  -0.530  -0.051  0.00  0.00    +0.239 C 
ATOM     23  O   UNL     1       5.921   0.096  -1.208  0.00  0.00    -0.222 OA
BRANCH  22  24
ATOM     24  C   UNL     1       7.999  -0.355  -0.060  0.00  0.00    +0.178 C 
BRANCH  24  25
ATOM     25  O   UNL     1       8.553  -1.058  -1.175  0.00  0.00    -0.386 OA
ATOM     26  H   UNL     1       8.225  -0.755  -2.033  0.00  0.00    +0.210 HD
ENDBRANCH  24  25
BRANCH  24  27
ATOM     27  C   UNL     1       8.341   1.132  -0.175  0.00  0.00    +0.190 C 
BRANCH  27  28
ATOM     28  O   UNL     1       9.755   1.306  -0.067  0.00  0.00    -0.392 OA
ATOM     29  H   UNL     1      10.045   2.226  -0.130  0.00  0.00    +0.210 HD
ENDBRANCH  27  28
ENDBRANCH  24  27
ENDBRANCH  22  24
ENDBRANCH   3  22
TORSDOF 8
