REMARK  Name = ZINC52014518
REMARK  5 active torsions:
REMARK  status: ('A' for Active; 'I' for Inactive)
REMARK    1  A    between atoms: C_5  and  C_8
REMARK    2  A    between atoms: C_5  and  O_19
REMARK    3  A    between atoms: C_8  and  N_9
REMARK    4  A    between atoms: N_9  and  C_10
REMARK    5  A    between atoms: C_16  and  O_18
REMARK                            x       y       z     vdW  Elec       q    Type
REMARK                         _______ _______ _______ _____ _____    ______ ____
ROOT
ATOM      1  N   UNL     1       2.196  -2.418  -2.408  0.00  0.00    +0.384 N 
ATOM      2  H   UNL     1       2.832  -2.370  -1.627  0.00  0.00    -0.085 HD
ATOM      3  H   UNL     1       1.300  -2.758  -2.092  0.00  0.00    -0.085 HD
ENDROOT
BRANCH   1   4
ATOM      4  C   UNL     1       2.736  -3.333  -3.423  0.00  0.00    -0.043 C 
ATOM      5  C   UNL     1       1.715  -3.503  -4.551  0.00  0.00    -0.013 C 
ATOM      6  C   UNL     1       2.277  -4.455  -5.608  0.00  0.00    -0.001 C 
ATOM      7  C   UNL     1       2.563  -5.816  -4.968  0.00  0.00    +0.002 C 
ATOM      8  C   UNL     1       3.583  -5.646  -3.841  0.00  0.00    +0.030 C 
ATOM      9  C   UNL     1       3.021  -4.693  -2.784  0.00  0.00    +0.101 C 
BRANCH   9  10
ATOM     10  O   UNL     1       1.810  -5.233  -2.252  0.00  0.00    -0.393 OA
ATOM     11  H   UNL     1       1.916  -6.097  -1.831  0.00  0.00    +0.210 HD
ENDBRANCH   9  10
ENDBRANCH   1   4
BRANCH   1  12
ATOM     12  C   UNL     1       2.034  -1.080  -2.992  0.00  0.00    -0.047 C 
BRANCH  12  17
ATOM     13  C   UNL     1      -0.081   1.586  -0.054  0.00  0.00    +0.000 C 
ATOM     14  C   UNL     1       1.323   2.129  -0.076  0.00  0.00    +0.000 C 
ATOM     15  C   UNL     1       1.830   2.394  -1.506  0.00  0.00    +0.003 C 
ATOM     16  C   UNL     1       1.442   1.277  -2.494  0.00  0.00    +0.033 C 
ATOM     17  C   UNL     1       1.602  -0.097  -1.902  0.00  0.00    +0.051 C 
ATOM     18  C   UNL     1       0.245  -0.538  -1.315  0.00  0.00    +0.033 C 
ATOM     19  C   UNL     1      -0.009   0.046  -0.006  0.00  0.00    +0.003 C 
BRANCH  17  20
ATOM     20  O   UNL     1       2.585  -0.061  -0.865  0.00  0.00    -0.390 OA
ATOM     21  H   UNL     1       3.439   0.294  -1.145  0.00  0.00    +0.210 HD
ENDBRANCH  17  20
ENDBRANCH  12  17
ENDBRANCH   1  12
TORSDOF 5
