REMARK  Name = ZINC20445864
REMARK  8 active torsions:
REMARK  status: ('A' for Active; 'I' for Inactive)
REMARK    1  A    between atoms: C_1  and  C_2
REMARK    2  A    between atoms: C_2  and  C_3
REMARK    3  A    between atoms: C_3  and  C_4
REMARK    4  A    between atoms: C_10  and  C_26
REMARK    5  A    between atoms: C_12  and  C_15
REMARK    6  A    between atoms: N_17  and  C_18
REMARK    7  A    between atoms: C_22  and  O_24
REMARK    8  A    between atoms: O_24  and  C_25
REMARK                            x       y       z     vdW  Elec       q    Type
REMARK                         _______ _______ _______ _____ _____    ______ ____
ROOT
ATOM      1  C   UNL     1     -10.053   2.861   7.572  0.00  0.00    +0.151 A 
ATOM      2  N   UNL     1     -10.336   4.083   7.214  0.00  0.00    -0.132 NA
ATOM      3  N   UNL     1      -9.622   4.424   6.197  0.00  0.00    -0.121 NA
ATOM      4  C   UNL     1      -8.850   3.430   5.856  0.00  0.00    +0.209 A 
ATOM      5  N   UNL     1      -9.089   2.401   6.722  0.00  0.00    -0.225 N 
ATOM      6  N   UNL     1      -8.486   1.184   6.732  0.00  0.00    -0.272 N 
ATOM      7  C   UNL     1      -7.894   0.810   5.447  0.00  0.00    +0.140 C 
ATOM      8  C   UNL     1      -6.832   1.834   5.028  0.00  0.00    +0.166 C 
ATOM      9  S   UNL     1      -7.691   3.356   4.526  0.00  0.00    -0.069 S 
ATOM     10  H   UNL     1      -8.416   0.500   7.591  0.00  0.00    +0.167 HD
ENDROOT
BRANCH   7  11
ATOM     11  C   UNL     1      -7.254  -0.549   5.571  0.00  0.00    -0.024 A 
ATOM     12  C   UNL     1      -6.532  -0.873   6.705  0.00  0.00    +0.007 A 
ATOM     13  C   UNL     1      -5.950  -2.121   6.821  0.00  0.00    +0.020 A 
ATOM     14  C   UNL     1      -6.080  -3.042   5.797  0.00  0.00    +0.041 A 
ATOM     15  C   UNL     1      -6.797  -2.716   4.660  0.00  0.00    +0.020 A 
ATOM     16  C   UNL     1      -7.384  -1.469   4.548  0.00  0.00    +0.007 A 
ATOM     17 CL   UNL     1      -5.342  -4.607   5.939  0.00  0.00    -0.084 Cl
ENDBRANCH   7  11
BRANCH   8  18
ATOM     18  C   UNL     1      -6.032   1.295   3.870  0.00  0.00    +0.233 C 
ATOM     19  O   UNL     1      -6.566   0.592   3.039  0.00  0.00    -0.274 OA
ATOM     20  N   UNL     1      -4.722   1.593   3.759  0.00  0.00    -0.284 N 
ATOM     21  H   UNL     1      -4.217   2.157   4.557  0.00  0.00    +0.155 HD
BRANCH  20  22
ATOM     22  C   UNL     1      -4.005   1.185   2.629  0.00  0.00    +0.037 A 
ATOM     23  C   UNL     1      -2.663   0.845   2.742  0.00  0.00    +0.023 A 
ATOM     24  C   UNL     1      -1.955   0.442   1.627  0.00  0.00    +0.005 A 
ATOM     25  C   UNL     1      -2.579   0.377   0.395  0.00  0.00    +0.046 A 
ATOM     26  C   UNL     1      -3.920   0.717   0.276  0.00  0.00    +0.122 A 
ATOM     27  C   UNL     1      -4.632   1.127   1.393  0.00  0.00    +0.069 A 
BRANCH  26  28
ATOM     28  O   UNL     1      -4.532   0.654  -0.936  0.00  0.00    -0.495 OA
ATOM     29  C   UNL     1      -3.736   0.229  -2.043  0.00  0.00    +0.277 C 
ENDBRANCH  26  28
ENDBRANCH  20  22
ENDBRANCH   8  18
BRANCH   1  30
ATOM     30  C   UNL     1     -10.676   2.098   8.713  0.00  0.00    +0.078 C 
BRANCH  30  32
ATOM     31  C   UNL     1     -10.498   1.562  11.147  0.00  0.00    +0.004 C 
ATOM     32  C   UNL     1      -9.866   2.337   9.989  0.00  0.00    +0.004 C 
ENDBRANCH  30  32
ENDBRANCH   1  30
TORSDOF 6
