REMARK  Name = ZINC42405740
REMARK  7 active torsions:
REMARK  status: ('A' for Active; 'I' for Inactive)
REMARK    1  A    between atoms: C_1  and  C_2
REMARK    2  A    between atoms: C_2  and  C_3
REMARK    3  A    between atoms: C_3  and  N_4
REMARK    4  A    between atoms: N_4  and  C_5
REMARK    5  A    between atoms: C_5  and  C_6
REMARK    6  A    between atoms: C_11  and  N_12
REMARK    7  A    between atoms: C_17  and  C_19
REMARK                            x       y       z     vdW  Elec       q    Type
REMARK                         _______ _______ _______ _____ _____    ______ ____
ROOT
ATOM      1  C   UNL     1       2.702  -2.088   3.516  0.00  0.00    -0.043 A 
ATOM      2  C   UNL     1       1.849  -1.978   4.597  0.00  0.00    +0.004 A 
ATOM      3  C   UNL     1       0.798  -2.865   4.744  0.00  0.00    +0.015 A 
ATOM      4  C   UNL     1       0.597  -3.864   3.808  0.00  0.00    +0.020 A 
ATOM      5  C   UNL     1       1.447  -3.979   2.724  0.00  0.00    +0.038 A 
ATOM      6  C   UNL     1       2.500  -3.086   2.572  0.00  0.00    +0.033 A 
ATOM      7 BR   UNL     1      -0.842  -5.074   4.013  0.00  0.00    -0.050 Br
ENDROOT
BRANCH   6   8
ATOM      8  N   UNL     1       3.357  -3.196   1.475  0.00  0.00    -0.318 N 
ATOM      9  C   UNL     1       2.997  -2.600   0.181  0.00  0.00    +0.106 C 
ATOM     10  C   UNL     1       3.090  -3.680  -0.902  0.00  0.00    +0.019 C 
ATOM     11  C   UNL     1       4.483  -4.313  -0.867  0.00  0.00    +0.004 C 
ATOM     12  C   UNL     1       4.712  -4.973   0.495  0.00  0.00    +0.032 C 
ATOM     13  C   UNL     1       4.639  -3.903   1.595  0.00  0.00    +0.159 C 
BRANCH  13  14
ATOM     14  C   UNL     1       4.730  -4.560   2.948  0.00  0.00    +0.231 C 
ATOM     15  O   UNL     1       3.749  -5.082   3.435  0.00  0.00    -0.274 OA
ATOM     16  N   UNL     1       5.899  -4.566   3.617  0.00  0.00    -0.328 N 
ATOM     17  H   UNL     1       6.683  -4.148   3.228  0.00  0.00    +0.145 HD
ATOM     18  H   UNL     1       5.958  -4.989   4.488  0.00  0.00    +0.145 HD
ENDBRANCH  13  14
ENDBRANCH   6   8
BRANCH   1  19
ATOM     19  C   UNL     1       3.847  -1.121   3.358  0.00  0.00    -0.045 C 
BRANCH  19  20
ATOM     20  N   UNL     1       3.513  -0.132   2.324  0.00  0.00    +0.382 N 
ATOM     21  H   UNL     1       2.672   0.359   2.587  0.00  0.00    -0.085 HD
ATOM     22  H   UNL     1       3.366  -0.603   1.443  0.00  0.00    -0.085 HD
BRANCH  20  23
ATOM     23  C   UNL     1       4.618   0.826   2.188  0.00  0.00    -0.082 C 
BRANCH  23  25
ATOM     24  C   UNL     1       5.422   2.854   0.969  0.00  0.00    +0.002 C 
ATOM     25  C   UNL     1       4.271   1.856   1.110  0.00  0.00    -0.022 C 
ENDBRANCH  23  25
ENDBRANCH  20  23
ENDBRANCH  19  20
ENDBRANCH   1  19
TORSDOF 6
