REMARK  Name = ZINC22196010
REMARK  9 active torsions:
REMARK  status: ('A' for Active; 'I' for Inactive)
REMARK    1  A    between atoms: C_1  and  C_2
REMARK    2  A    between atoms: N_7  and  S_9
REMARK    3  A    between atoms: S_9  and  C_12
REMARK    4  A    between atoms: C_15  and  N_21
REMARK    5  A    between atoms: C_16  and  N_18
REMARK    6  A    between atoms: N_24  and  C_27
REMARK    7  A    between atoms: C_27  and  C_29
REMARK    8  A    between atoms: C_27  and  C_30
REMARK    9  A    between atoms: N_32  and  C_33
REMARK                            x       y       z     vdW  Elec       q    Type
REMARK                         _______ _______ _______ _____ _____    ______ ____
ROOT
ATOM      1  C   UNL     1      -4.296  -3.455  -5.592  0.00  0.00    +0.108 A 
ATOM      2  C   UNL     1      -3.044  -4.005  -5.800  0.00  0.00    +0.030 A 
ATOM      3  C   UNL     1      -2.568  -4.983  -4.950  0.00  0.00    +0.027 A 
ATOM      4  C   UNL     1      -3.353  -5.423  -3.891  0.00  0.00    +0.060 A 
ATOM      5  C   UNL     1      -4.612  -4.872  -3.688  0.00  0.00    +0.149 A 
ATOM      6  C   UNL     1      -5.080  -3.890  -4.539  0.00  0.00    +0.063 A 
ENDROOT
BRANCH   4   7
ATOM      7  N   UNL     1      -2.877  -6.417  -3.033  0.00  0.00    -0.332 N 
ATOM      8  C   UNL     1      -1.688  -5.956  -2.302  0.00  0.00    +0.086 C 
ATOM      9  C   UNL     1      -1.246  -7.041  -1.317  0.00  0.00    -0.059 C 
ATOM     10  N   UNL     1      -0.961  -8.280  -2.053  0.00  0.00    +0.389 N 
ATOM     11  C   UNL     1      -2.150  -8.741  -2.784  0.00  0.00    -0.059 C 
ATOM     12  C   UNL     1      -2.592  -7.656  -3.769  0.00  0.00    +0.086 C 
ATOM     13  H   UNL     1      -0.172  -8.065  -2.789  0.00  0.00    -0.081 HD
BRANCH  10  14
ATOM     14  C   UNL     1      -0.460  -9.325  -1.150  0.00  0.00    +0.016 C 
ATOM     15  C   UNL     1       0.626  -8.740  -0.245  0.00  0.00    -0.004 C 
BRANCH  14  16
ATOM     16  C   UNL     1      -1.594  -9.844  -0.304  0.00  0.00    +0.199 C 
ATOM     17  O   UNL     1      -2.529  -9.119  -0.032  0.00  0.00    -0.278 OA
ATOM     18  N   UNL     1      -1.571 -11.112   0.152  0.00  0.00    -0.314 N 
ATOM     19  H   UNL     1      -0.723 -11.769  -0.094  0.00  0.00    +0.149 HD
BRANCH  18  20
ATOM     20  C   UNL     1      -2.673 -11.615   0.975  0.00  0.00    +0.073 C 
ATOM     21  C   UNL     1      -2.312 -12.443   2.210  0.00  0.00    +0.024 C 
ATOM     22  C   UNL     1      -2.917 -13.126   0.981  0.00  0.00    +0.024 C 
ENDBRANCH  18  20
ENDBRANCH  14  16
ENDBRANCH  10  14
ENDBRANCH   4   7
BRANCH   1  23
ATOM     23  S   UNL     1      -4.897  -2.202  -6.676  0.00  0.00    +0.061 S 
ATOM     24  O   UNL     1      -6.315  -2.242  -6.596  0.00  0.00    -0.153 OA
ATOM     25  O   UNL     1      -4.198  -2.357  -7.903  0.00  0.00    -0.153 OA
BRANCH  23  31
ATOM     26  C   UNL     1      -1.072   0.927  -5.519  0.00  0.00    +0.009 C 
ATOM     27  C   UNL     1      -2.355   0.179  -5.150  0.00  0.00    +0.002 C 
ATOM     28  C   UNL     1      -3.212   1.056  -4.233  0.00  0.00    +0.006 C 
ATOM     29  C   UNL     1      -4.480   0.295  -3.838  0.00  0.00    +0.017 C 
ATOM     30  C   UNL     1      -5.292  -0.027  -5.097  0.00  0.00    +0.109 C 
ATOM     31  N   UNL     1      -4.429  -0.744  -6.046  0.00  0.00    -0.176 NA
ATOM     32  C   UNL     1      -3.143  -0.143  -6.424  0.00  0.00    +0.112 C 
ENDBRANCH  23  31
ENDBRANCH   1  23
BRANCH   5  33
ATOM     33  N   UNL     1      -5.451  -5.337  -2.561  0.00  0.00    +0.058 N 
ATOM     34  O   UNL     1      -6.554  -4.853  -2.384  0.00  0.00    -0.126 OA
ATOM     35  O   UNL     1      -5.038  -6.203  -1.811  0.00  0.00    -0.126 OA
ENDBRANCH   5  33
TORSDOF 7
