REMARK  Name = ZINC20438816
REMARK  11 active torsions:
REMARK  status: ('A' for Active; 'I' for Inactive)
REMARK    1  A    between atoms: C_1  and  C_2
REMARK    2  A    between atoms: C_2  and  C_33
REMARK    3  A    between atoms: C_6  and  N_25
REMARK    4  A    between atoms: C_13  and  S_19
REMARK    5  A    between atoms: C_15  and  S_17
REMARK    6  A    between atoms: S_17  and  C_18
REMARK    7  A    between atoms: S_19  and  C_20
REMARK    8  A    between atoms: C_20  and  C_21
REMARK    9  A    between atoms: C_21  and  N_22
REMARK   10  A    between atoms: N_22  and  C_23
REMARK   11  A    between atoms: N_22  and  C_24
REMARK                            x       y       z     vdW  Elec       q    Type
REMARK                         _______ _______ _______ _____ _____    ______ ____
ROOT
ATOM      1  C   UNL     1      -4.969   2.178  -0.094  0.00  0.00    +0.041 C 
ATOM      2  C   UNL     1      -3.582   2.722   0.254  0.00  0.00    +0.068 C 
ATOM      3  C   UNL     1      -2.516   1.687  -0.114  0.00  0.00    +0.070 C 
ATOM      4  C   UNL     1      -1.151   2.318  -0.042  0.00  0.00    -0.024 A 
ATOM      5  C   UNL     1      -0.981   3.667  -0.029  0.00  0.00    +0.022 A 
ATOM      6  C   UNL     1       0.309   4.207   0.021  0.00  0.00    +0.128 A 
ATOM      7  N   UNL     1       1.367   3.412   0.064  0.00  0.00    -0.224 NA
ATOM      8  C   UNL     1       1.237   2.102   0.062  0.00  0.00    +0.113 A 
ATOM      9  C   UNL     1      -0.018   1.470   0.011  0.00  0.00    +0.037 A 
ATOM     10  C   UNL     1       0.002  -0.004   0.013  0.00  0.00    +0.093 A 
ATOM     11  C   UNL     1       1.268  -0.599   0.069  0.00  0.00    +0.072 A 
ATOM     12  S   UNL     1       2.401   0.762   0.115  0.00  0.00    -0.064 S 
ATOM     13  C   UNL     1       1.411  -1.980   0.078  0.00  0.00    +0.116 A 
ATOM     14  N   UNL     1       0.311  -2.732   0.031  0.00  0.00    -0.214 NA
ATOM     15  C   UNL     1      -0.883  -2.156  -0.023  0.00  0.00    +0.190 A 
ATOM     16  N   UNL     1      -1.052  -0.851  -0.033  0.00  0.00    -0.221 NA
ATOM     17  C   UNL     1      -2.157   4.609  -0.064  0.00  0.00    +0.199 C 
ATOM     18  O   UNL     1      -3.331   3.917  -0.495  0.00  0.00    -0.369 OA
ATOM     19  C   UNL     1      -3.508   3.028   1.751  0.00  0.00    +0.041 C 
ENDROOT
BRANCH   6  20
ATOM     20  N   UNL     1       0.480   5.584   0.024  0.00  0.00    -0.310 N 
ATOM     21  C   UNL     1       1.241   6.023  -1.155  0.00  0.00    +0.134 C 
ATOM     22  C   UNL     1       1.355   7.550  -1.143  0.00  0.00    +0.178 C 
ATOM     23  O   UNL     1       1.965   7.967   0.082  0.00  0.00    -0.377 OA
ATOM     24  C   UNL     1       1.251   7.557   1.250  0.00  0.00    +0.178 C 
ATOM     25  C   UNL     1       1.136   6.030   1.262  0.00  0.00    +0.134 C 
ENDBRANCH   6  20
BRANCH  15  26
ATOM     26  S   UNL     1      -2.311  -3.188  -0.084  0.00  0.00    -0.089 S 
ATOM     27  C   UNL     1      -1.523  -4.817  -0.045  0.00  0.00    +0.093 C 
ENDBRANCH  15  26
BRANCH  13  28
ATOM     28  S   UNL     1       3.007  -2.721   0.151  0.00  0.00    -0.107 S 
BRANCH  28  29
ATOM     29  C   UNL     1       2.543  -4.470   0.133  0.00  0.00    +0.057 C 
BRANCH  29  30
ATOM     30  C   UNL     1       3.805  -5.333   0.191  0.00  0.00    -0.068 C 
BRANCH  30  31
ATOM     31  N   UNL     1       3.428  -6.753   0.177  0.00  0.00    +0.376 N 
ATOM     32  C   UNL     1       4.608  -7.609  -0.007  0.00  0.00    -0.097 C 
ATOM     33  C   UNL     1       2.700  -7.117   1.400  0.00  0.00    -0.097 C 
ATOM     34  H   UNL     1       2.756  -6.916  -0.678  0.00  0.00    -0.083 HD
ENDBRANCH  30  31
ENDBRANCH  29  30
ENDBRANCH  28  29
ENDBRANCH  13  28
TORSDOF 6
