REMARK  Name = ZINC08297978
REMARK  10 active torsions:
REMARK  status: ('A' for Active; 'I' for Inactive)
REMARK    1  A    between atoms: C_1  and  C_2
REMARK    2  A    between atoms: C_2  and  C_3
REMARK    3  A    between atoms: C_2  and  N_4
REMARK    4  A    between atoms: C_5  and  C_7
REMARK    5  A    between atoms: C_15  and  C_17
REMARK    6  A    between atoms: C_17  and  N_18
REMARK    7  A    between atoms: C_20  and  C_23
REMARK    8  A    between atoms: C_23  and  C_24
REMARK    9  A    between atoms: C_23  and  C_25
REMARK   10  A    between atoms: C_23  and  C_26
REMARK                            x       y       z     vdW  Elec       q    Type
REMARK                         _______ _______ _______ _____ _____    ______ ____
ROOT
ATOM      1  C   UNL     1      -4.207  -0.357   2.499  0.00  0.00    +0.061 C 
ATOM      2  C   UNL     1      -2.737   0.073   2.526  0.00  0.00    -0.065 C 
ATOM      3  C   UNL     1      -3.309   2.152   3.628  0.00  0.00    -0.078 C 
ATOM      4  C   UNL     1      -4.795   1.782   3.632  0.00  0.00    -0.015 C 
ATOM      5  C   UNL     1      -5.088   0.895   2.415  0.00  0.00    -0.004 C 
ATOM      6  C   UNL     1      -4.718   1.670   1.144  0.00  0.00    -0.010 C 
ATOM      7  C   UNL     1      -3.234   2.045   1.209  0.00  0.00    -0.046 C 
ATOM      8  N   UNL     1      -2.630   1.546   2.463  0.00  0.00    +0.383 N 
ATOM      9  H   UNL     1      -1.637   1.809   2.482  0.00  0.00    -0.081 HD
ENDROOT
BRANCH   1  11
ATOM     10  N   UNL     1      -3.776  -2.386   1.150  0.00  0.00    -0.313 N 
ATOM     11  C   UNL     1      -4.455  -1.230   1.296  0.00  0.00    +0.215 C 
ATOM     12  O   UNL     1      -5.265  -0.894   0.459  0.00  0.00    -0.276 OA
ATOM     13  H   UNL     1      -3.128  -2.655   1.819  0.00  0.00    +0.149 HD
BRANCH  10  15
ATOM     14  C   UNL     1      -3.155  -2.751  -1.187  0.00  0.00    +0.027 C 
ATOM     15  C   UNL     1      -4.017  -3.235  -0.019  0.00  0.00    +0.067 C 
ATOM     16  C   UNL     1      -3.654  -4.682   0.318  0.00  0.00    +0.027 C 
ENDBRANCH  10  15
ENDBRANCH   1  11
BRANCH   7  17
ATOM     17  C   UNL     1      -2.499   1.421   0.021  0.00  0.00    +0.130 C 
BRANCH  17  18
ATOM     18  N   UNL     1      -1.105   1.874   0.017  0.00  0.00    -0.253 N 
ATOM     19  C   UNL     1      -0.013   1.076   0.008  0.00  0.00    +0.134 A 
ATOM     20  C   UNL     1       1.058   1.903   0.002  0.00  0.00    +0.088 A 
ATOM     21  N   UNL     1       0.575   3.151   0.013  0.00  0.00    -0.134 NA
ATOM     22  N   UNL     1      -0.710   3.099   0.024  0.00  0.00    -0.065 NA
BRANCH  20  23
ATOM     23  C   UNL     1       2.510   1.499  -0.013  0.00  0.00    +0.008 C 
ATOM     24  C   UNL     1       2.888   1.010  -1.413  0.00  0.00    +0.017 C 
ATOM     25  C   UNL     1       3.379   2.703   0.358  0.00  0.00    +0.017 C 
ATOM     26  C   UNL     1       2.737   0.375   0.999  0.00  0.00    +0.017 C 
ENDBRANCH  20  23
ENDBRANCH  17  18
ENDBRANCH   7  17
TORSDOF 5
