REMARK  Name = ZINC02850841
REMARK  11 active torsions:
REMARK  status: ('A' for Active; 'I' for Inactive)
REMARK    1  A    between atoms: C_1  and  C_2
REMARK    2  A    between atoms: C_2  and  C_3
REMARK    3  A    between atoms: C_3  and  O_4
REMARK    4  A    between atoms: O_4  and  C_5
REMARK    5  A    between atoms: C_8  and  C_14
REMARK    6  A    between atoms: C_10  and  O_11
REMARK    7  A    between atoms: O_11  and  C_12
REMARK    8  A    between atoms: C_12  and  C_13
REMARK    9  A    between atoms: N_29  and  C_30
REMARK   10  A    between atoms: C_30  and  C_31
REMARK   11  A    between atoms: C_31  and  N_68
REMARK                            x       y       z     vdW  Elec       q    Type
REMARK                         _______ _______ _______ _____ _____    ______ ____
ROOT
ATOM      1  C   UNL     1      -2.513   0.978   0.020  0.00  0.00    +0.145 C 
ATOM      2  C   UNL     1      -3.109   0.960  -1.364  0.00  0.00    +0.072 A 
ATOM      3  C   UNL     1      -2.626   0.442  -2.647  0.00  0.00    +0.199 A 
ATOM      4  O   UNL     1      -1.543  -0.106  -2.748  0.00  0.00    -0.287 OA
ATOM      5  C   UNL     1      -3.518   0.616  -3.810  0.00  0.00    +0.066 A 
ATOM      6  C   UNL     1      -3.158   0.162  -5.077  0.00  0.00    +0.035 A 
ATOM      7  C   UNL     1      -4.021   0.346  -6.136  0.00  0.00    +0.042 A 
ATOM      8  C   UNL     1      -5.241   0.981  -5.939  0.00  0.00    +0.023 A 
ATOM      9  C   UNL     1      -5.607   1.434  -4.691  0.00  0.00    +0.048 A 
ATOM     10  C   UNL     1      -4.752   1.259  -3.608  0.00  0.00    +0.140 A 
ATOM     11  O   UNL     1      -5.099   1.698  -2.384  0.00  0.00    -0.450 OA
ATOM     12  C   UNL     1      -4.321   1.563  -1.293  0.00  0.00    +0.199 A 
ATOM     13  C   UNL     1      -4.551   1.986   0.112  0.00  0.00    +0.283 C 
ATOM     14  O   UNL     1      -5.546   2.557   0.511  0.00  0.00    -0.267 OA
ATOM     15  N   UNL     1      -3.499   1.646   0.877  0.00  0.00    -0.285 N 
ATOM     16 CL   UNL     1      -3.583  -0.217  -7.718  0.00  0.00    -0.084 Cl
ENDROOT
BRANCH   1  20
ATOM     17  C   UNL     1       1.155   3.176   0.008  0.00  0.00    +0.162 A 
ATOM     18  C   UNL     1      -0.057   3.846   0.022  0.00  0.00    +0.050 A 
ATOM     19  C   UNL     1      -1.241   3.133   0.030  0.00  0.00    +0.009 A 
ATOM     20  C   UNL     1      -1.219   1.751   0.017  0.00  0.00    -0.019 A 
ATOM     21  C   UNL     1      -0.013   1.076   0.008  0.00  0.00    +0.055 A 
ATOM     22  C   UNL     1       1.178   1.785   0.000  0.00  0.00    +0.162 A 
BRANCH  17  23
ATOM     23  O   UNL     1       2.321   3.877  -0.000  0.00  0.00    -0.488 OA
BRANCH  23  24
ATOM     24  C   UNL     1       2.221   5.302   0.008  0.00  0.00    +0.229 C 
BRANCH  24  26
ATOM     25  C   UNL     1       3.518   7.438   0.006  0.00  0.00    +0.007 C 
ATOM     26  C   UNL     1       3.625   5.912  -0.003  0.00  0.00    +0.038 C 
ENDBRANCH  24  26
ENDBRANCH  23  24
ENDBRANCH  17  23
BRANCH  22  27
ATOM     27  O   UNL     1       2.365   1.123  -0.015  0.00  0.00    -0.489 OA
BRANCH  27  28
ATOM     28  C   UNL     1       2.312  -0.305  -0.022  0.00  0.00    +0.226 C 
ATOM     29  C   UNL     1       3.734  -0.869  -0.038  0.00  0.00    +0.048 C 
ENDBRANCH  27  28
ENDBRANCH  22  27
ENDBRANCH   1  20
BRANCH  15  30
ATOM     30  C   UNL     1      -3.362   1.898   2.314  0.00  0.00    +0.090 C 
BRANCH  30  31
ATOM     31  C   UNL     1      -2.697   3.259   2.532  0.00  0.00    -0.059 C 
BRANCH  31  37
ATOM     32  C   UNL     1      -3.877   3.667   4.608  0.00  0.00    -0.050 C 
ATOM     33  C   UNL     1      -3.690   3.869   6.114  0.00  0.00    +0.141 C 
ATOM     34  O   UNL     1      -2.844   5.000   6.337  0.00  0.00    -0.383 OA
ATOM     35  C   UNL     1      -1.553   4.881   5.733  0.00  0.00    +0.141 C 
ATOM     36  C   UNL     1      -1.718   4.690   4.223  0.00  0.00    -0.050 C 
ATOM     37  N   UNL     1      -2.548   3.491   3.985  0.00  0.00    +0.384 N 
ATOM     38  H   UNL     1      -2.086   2.676   4.407  0.00  0.00    -0.082 HD
ENDBRANCH  31  37
ENDBRANCH  30  31
ENDBRANCH  15  30
TORSDOF 9
