REMARK  Name = ZINC02146422
REMARK  3 active torsions:
REMARK  status: ('A' for Active; 'I' for Inactive)
REMARK    1  A    between atoms: C_14  and  C_16
REMARK    2  A    between atoms: C_16  and  C_18
REMARK    3  A    between atoms: C_22  and  N_24
REMARK                            x       y       z     vdW  Elec       q    Type
REMARK                         _______ _______ _______ _____ _____    ______ ____
ROOT
ATOM      1  C   UNL     1      -4.252   3.243  -0.534  0.00  0.00    +0.000 A 
ATOM      2  C   UNL     1      -4.969   2.585  -1.517  0.00  0.00    +0.002 A 
ATOM      3  C   UNL     1      -4.337   1.704  -2.369  0.00  0.00    +0.023 A 
ATOM      4  C   UNL     1      -2.969   1.470  -2.246  0.00  0.00    +0.038 A 
ATOM      5  C   UNL     1      -2.257   2.138  -1.254  0.00  0.00    -0.012 A 
ATOM      6  C   UNL     1      -2.893   3.017  -0.406  0.00  0.00    +0.006 A 
ATOM      7  C   UNL     1      -0.837   1.673  -1.388  0.00  0.00    +0.071 C 
ATOM      8  C   UNL     1      -0.316   1.040  -0.095  0.00  0.00    -0.046 C 
ATOM      9  C   UNL     1      -1.108   1.572   1.116  0.00  0.00    -0.016 C 
ATOM     10  C   UNL     1      -0.014   1.820   2.178  0.00  0.00    -0.020 C 
ATOM     11  C   UNL     1       1.177   2.292   1.308  0.00  0.00    -0.076 C 
ATOM     12  C   UNL     1       1.445   2.309  -1.095  0.00  0.00    +0.052 C 
ATOM     13  C   UNL     1       0.117   2.853  -1.657  0.00  0.00    +0.080 C 
ATOM     14  C   UNL     1       2.373   3.431  -0.724  0.00  0.00    -0.027 A 
ATOM     15  C   UNL     1       2.282   4.484   0.158  0.00  0.00    +0.004 A 
ATOM     16  C   UNL     1       3.331   5.378   0.280  0.00  0.00    +0.000 A 
ATOM     17  C   UNL     1       4.471   5.210  -0.485  0.00  0.00    +0.002 A 
ATOM     18  C   UNL     1       4.567   4.156  -1.370  0.00  0.00    +0.023 A 
ATOM     19  C   UNL     1       3.515   3.251  -1.499  0.00  0.00    +0.036 A 
ATOM     20  N   UNL     1       3.376   2.123  -2.311  0.00  0.00    -0.286 N 
ATOM     21  C   UNL     1       2.188   1.514  -2.133  0.00  0.00    +0.212 C 
ATOM     22  O   UNL     1       1.793   0.516  -2.700  0.00  0.00    -0.277 OA
ATOM     23  C   UNL     1      -0.845   0.699  -2.531  0.00  0.00    +0.227 C 
ATOM     24  O   UNL     1       0.107   0.089  -2.970  0.00  0.00    -0.275 OA
ATOM     25  N   UNL     1      -2.116   0.637  -2.975  0.00  0.00    -0.285 N 
ATOM     26  H   UNL     1       4.055   1.815  -2.931  0.00  0.00    +0.155 HD
ATOM     27  H   UNL     1      -2.405   0.079  -3.714  0.00  0.00    +0.155 HD
ATOM     28  N   UNL     1       1.071   1.488   0.069  0.00  0.00    +0.395 N 
ATOM     29  H   UNL     1       1.694   0.674   0.132  0.00  0.00    -0.079 HD
ENDROOT
BRANCH  13  30
ATOM     30  C   UNL     1      -0.322   4.085  -0.909  0.00  0.00    +0.167 C 
ATOM     31  O   UNL     1      -0.484   4.040   0.291  0.00  0.00    -0.292 OA
BRANCH  30  32
ATOM     32  C   UNL     1      -0.554   5.343  -1.636  0.00  0.00    +0.020 A 
ATOM     33  C   UNL     1      -0.367   5.400  -3.022  0.00  0.00    +0.011 A 
ATOM     34  C   UNL     1      -0.587   6.582  -3.695  0.00  0.00    +0.003 A 
ATOM     35  C   UNL     1      -0.992   7.712  -3.005  0.00  0.00    +0.033 A 
ATOM     36  C   UNL     1      -1.178   7.664  -1.635  0.00  0.00    +0.127 A 
ATOM     37  C   UNL     1      -0.967   6.488  -0.947  0.00  0.00    +0.044 A 
BRANCH  36  38
ATOM     38  N   UNL     1      -1.612   8.877  -0.906  0.00  0.00    +0.056 N 
ATOM     39  O   UNL     1      -1.804   9.916  -1.512  0.00  0.00    -0.126 OA
ATOM     40  O   UNL     1      -1.777   8.837   0.300  0.00  0.00    -0.126 OA
ENDBRANCH  36  38
ENDBRANCH  30  32
ENDBRANCH  13  30
TORSDOF 3
