REMARK  Name = ZINC09293064
REMARK  10 active torsions:
REMARK  status: ('A' for Active; 'I' for Inactive)
REMARK    1  A    between atoms: C_1  and  C_2
REMARK    2  A    between atoms: C_2  and  O_3
REMARK    3  A    between atoms: O_3  and  C_4
REMARK    4  A    between atoms: C_8  and  C_10
REMARK    5  A    between atoms: C_13  and  C_24
REMARK    6  A    between atoms: N_20  and  C_21
REMARK    7  A    between atoms: C_21  and  C_22
REMARK    8  A    between atoms: C_22  and  O_23
REMARK    9  A    between atoms: C_27  and  C_31
REMARK   10  A    between atoms: C_29  and  O_30
REMARK                            x       y       z     vdW  Elec       q    Type
REMARK                         _______ _______ _______ _____ _____    ______ ____
ROOT
ATOM      1  C   UNL     1      -4.331  -4.275  -0.151  0.00  0.00    +0.141 C 
ATOM      2  C   UNL     1      -4.626  -4.645   1.277  0.00  0.00    +0.035 A 
ATOM      3  C   UNL     1      -4.808  -4.211   2.594  0.00  0.00    +0.102 A 
ATOM      4  N   UNL     1      -5.060  -5.276   3.329  0.00  0.00    -0.173 NA
ATOM      5  N   UNL     1      -5.056  -6.339   2.607  0.00  0.00    -0.272 N 
ATOM      6  H   UNL     1      -5.218  -7.237   2.936  0.00  0.00    +0.189 HD
ATOM      7  C   UNL     1      -4.790  -6.017   1.306  0.00  0.00    +0.126 A 
ATOM      8  C   UNL     1      -4.610  -6.537  -0.054  0.00  0.00    +0.266 C 
ATOM      9  O   UNL     1      -4.691  -7.710  -0.364  0.00  0.00    -0.268 OA
ATOM     10  N   UNL     1      -4.344  -5.532  -0.910  0.00  0.00    -0.283 N 
ENDROOT
BRANCH   3  11
ATOM     11  C   UNL     1      -4.729  -2.809   3.076  0.00  0.00    +0.045 A 
ATOM     12  C   UNL     1      -4.582  -1.765   2.167  0.00  0.00    +0.034 A 
ATOM     13  C   UNL     1      -4.509  -0.462   2.621  0.00  0.00    +0.045 A 
ATOM     14  C   UNL     1      -4.583  -0.191   3.977  0.00  0.00    -0.029 A 
ATOM     15  C   UNL     1      -4.730  -1.221   4.886  0.00  0.00    +0.050 A 
ATOM     16  C   UNL     1      -4.810  -2.532   4.443  0.00  0.00    +0.126 A 
ATOM     17  C   UNL     1      -4.504   1.233   4.463  0.00  0.00    +0.045 C 
ATOM     18 CL   UNL     1      -4.324   0.840   1.487  0.00  0.00    -0.083 Cl
BRANCH  16  19
ATOM     19  O   UNL     1      -4.960  -3.545   5.337  0.00  0.00    -0.506 OA
ATOM     20  H   UNL     1      -4.125  -3.910   5.661  0.00  0.00    +0.292 HD
ENDBRANCH  16  19
ENDBRANCH   3  11
BRANCH   1  25
ATOM     21  C   UNL     1      -1.626  -1.689  -0.677  0.00  0.00    +0.121 A 
ATOM     22  C   UNL     1      -0.483  -2.434  -0.428  0.00  0.00    +0.045 A 
ATOM     23  C   UNL     1      -0.589  -3.769  -0.090  0.00  0.00    +0.004 A 
ATOM     24  C   UNL     1      -1.834  -4.364  -0.001  0.00  0.00    +0.006 A 
ATOM     25  C   UNL     1      -2.976  -3.624  -0.249  0.00  0.00    -0.019 A 
ATOM     26  C   UNL     1      -2.875  -2.286  -0.581  0.00  0.00    +0.051 A 
BRANCH  21  27
ATOM     27  O   UNL     1      -1.524  -0.375  -1.008  0.00  0.00    -0.492 OA
BRANCH  27  29
ATOM     28  C   UNL     1      -0.293   1.652  -1.471  0.00  0.00    +0.048 C 
ATOM     29  C   UNL     1      -0.207   0.173  -1.088  0.00  0.00    +0.225 C 
ENDBRANCH  27  29
ENDBRANCH  21  27
ENDBRANCH   1  25
BRANCH  10  30
ATOM     30  C   UNL     1      -4.107  -5.669  -2.349  0.00  0.00    +0.137 C 
BRANCH  30  31
ATOM     31  C   UNL     1      -2.637  -6.017  -2.594  0.00  0.00    +0.175 C 
BRANCH  31  32
ATOM     32  O   UNL     1      -2.356  -7.307  -2.048  0.00  0.00    -0.393 OA
ATOM     33  H   UNL     1      -1.440  -7.593  -2.167  0.00  0.00    +0.209 HD
ENDBRANCH  31  32
ENDBRANCH  30  31
ENDBRANCH  10  30
TORSDOF 8
