REMARK  Name = ZINC40557961
REMARK  4 active torsions:
REMARK  status: ('A' for Active; 'I' for Inactive)
REMARK    1  A    between atoms: CG_2  and  CB_7
REMARK    2  A    between atoms: CB_7  and  CA_8
REMARK    3  A    between atoms: CA_8  and  C_10
REMARK    4  A    between atoms: CA_8  and  N_13
REMARK                            x       y       z     vdW  Elec       q    Type
REMARK                         _______ _______ _______ _____ _____    ______ ____
ROOT
ATOM      1  CA  HIS A   1       1.769   3.723   1.442  0.00  0.00    +0.193 C 
ENDROOT
BRANCH   1   2
ATOM      2  N   HIS A   1       0.414   3.749   1.998  0.00  0.00    -0.286 N 
ATOM      3  C   UNK A   0       0.231   3.672   3.331  0.00  0.00    +0.303 C 
ATOM      4  O   UNK A   0       1.191   3.580   4.072  0.00  0.00    -0.253 OA
ATOM      5  N   UNK A   0      -1.016   3.697   3.843  0.00  0.00    -0.286 N 
ATOM      6  C   UNK A   0      -2.181   3.801   2.954  0.00  0.00    +0.109 C 
ATOM      7  C   UNK A   0      -2.313   2.513   2.152  0.00  0.00    +0.019 C 
ATOM      8  C   UNK A   0      -2.812   1.391   3.078  0.00  0.00    +0.002 C 
ATOM      9  C   UNK A   0      -1.654   0.883   3.929  0.00  0.00    +0.000 C 
ATOM     10  C   UNK A   0      -1.885   1.213   5.415  0.00  0.00    +0.002 C 
ATOM     11  C   UNK A   0      -2.381   2.653   5.552  0.00  0.00    +0.019 C 
ATOM     12  C   UNK A   0      -1.221   3.614   5.279  0.00  0.00    +0.109 C 
ATOM     13  H   HIS A   1      -0.352   3.823   1.407  0.00  0.00    +0.151 HD
ENDBRANCH   1   2
BRANCH   1  14
ATOM     14  C   HIS A   1       2.345   5.115   1.456  0.00  0.00    +0.376 C 
ATOM     15  O   HIS A   1       1.631   6.068   1.716  0.00  0.00    -0.244 OA
ATOM     16  OXT HIS A   1       3.526   5.289   1.207  0.00  0.00    -0.244 OA
ENDBRANCH   1  14
BRANCH   1  17
ATOM     17  CB  HIS A   1       1.719   3.206   0.002  0.00  0.00    +0.088 C 
BRANCH  17  19
ATOM     18  CD2 HIS A   1      -0.016   1.337   0.009  0.00  0.00    +0.105 A 
ATOM     19  CG  HIS A   1       1.259   1.771  -0.000  0.00  0.00    +0.035 A 
ATOM     20  ND1 HIS A   1       2.056   0.658  -0.014  0.00  0.00    -0.350 N 
ATOM     21  CE1 HIS A   1       1.240  -0.418  -0.012  0.00  0.00    +0.171 A 
ATOM     22  NE2 HIS A   1       0.002  -0.004   0.002  0.00  0.00    -0.352 N 
ATOM     23  HD1 HIS A   1       3.026   0.645  -0.023  0.00  0.00    +0.166 HD
ATOM     24  HE2 HIS A   1      -0.781  -0.576   0.007  0.00  0.00    +0.166 HD
ENDBRANCH  17  19
ENDBRANCH   1  17
TORSDOF 4
