REMARK  Name = ZINC24439966
REMARK  8 active torsions:
REMARK  status: ('A' for Active; 'I' for Inactive)
REMARK    1  A    between atoms: C_1  and  C_2
REMARK    2  A    between atoms: C_7  and  C_33
REMARK    3  A    between atoms: N_12  and  C_16
REMARK    4  A    between atoms: C_16  and  N_17
REMARK    5  A    between atoms: N_20  and  C_23
REMARK    6  A    between atoms: C_23  and  C_24
REMARK    7  A    between atoms: C_24  and  O_25
REMARK    8  A    between atoms: O_25  and  C_26
REMARK                            x       y       z     vdW  Elec       q    Type
REMARK                         _______ _______ _______ _____ _____    ______ ____
ROOT
ATOM      1  N   UNL     1      -3.987   2.877  -1.354  0.00  0.00    -0.290 NA
ATOM      2  C   UNL     1      -4.372   3.905  -0.376  0.00  0.00    +0.067 C 
ATOM      3  C   UNL     1      -3.722   5.237  -0.757  0.00  0.00    -0.063 C 
ATOM      4  N   UNL     1      -4.148   5.617  -2.111  0.00  0.00    +0.384 N 
ATOM      5  C   UNL     1      -3.763   4.590  -3.090  0.00  0.00    -0.063 C 
ATOM      6  C   UNL     1      -4.413   3.258  -2.708  0.00  0.00    +0.067 C 
ATOM      7  H   UNL     1      -5.245   5.694  -2.113  0.00  0.00    -0.082 HD
ENDROOT
BRANCH   1   8
ATOM      8  C   UNL     1      -4.531   1.565  -0.981  0.00  0.00    +0.204 C 
BRANCH   8  18
ATOM      9  C   UNL     1      -0.575   1.778   1.061  0.00  0.00    +0.010 C 
ATOM     10  C   UNL     1      -0.608   0.258   1.226  0.00  0.00    +0.019 C 
ATOM     11  C   UNL     1      -0.057  -0.118   2.604  0.00  0.00    +0.006 C 
ATOM     12  C   UNL     1      -0.109  -1.638   2.775  0.00  0.00    +0.001 C 
ATOM     13  C   UNL     1      -1.558  -2.117   2.666  0.00  0.00    +0.006 C 
ATOM     14  C   UNL     1      -2.113  -1.748   1.288  0.00  0.00    +0.019 C 
ATOM     15  C   UNL     1      -2.044  -0.237   1.099  0.00  0.00    +0.118 C 
ATOM     16  C   UNL     1      -2.620   0.153  -0.243  0.00  0.00    +0.248 C 
ATOM     17  O   UNL     1      -2.221  -0.180  -1.338  0.00  0.00    -0.273 OA
ATOM     18  N   UNL     1      -3.672   0.952   0.035  0.00  0.00    -0.211 N 
ATOM     19  C   UNL     1      -3.833   1.114   1.354  0.00  0.00    +0.310 C 
ATOM     20  O   UNL     1      -4.712   1.790   1.850  0.00  0.00    -0.252 OA
ATOM     21  N   UNL     1      -2.910   0.443   2.070  0.00  0.00    -0.284 N 
ATOM     22  C   UNL     1      -1.283  -2.437   0.203  0.00  0.00    +0.010 C 
ATOM     23  H   UNL     1      -2.719   0.334   3.148  0.00  0.00    +0.151 HD
ENDBRANCH   8  18
ENDBRANCH   1   8
BRANCH   4  24
ATOM     24  C   UNL     1      -3.604   6.930  -2.485  0.00  0.00    -0.037 C 
BRANCH  24  25
ATOM     25  C   UNL     1      -4.422   7.510  -3.641  0.00  0.00    +0.210 C 
BRANCH  25  26
ATOM     26  O   UNL     1      -5.758   7.759  -3.201  0.00  0.00    -0.494 OA
BRANCH  26  27
ATOM     27  C   UNL     1      -6.621   8.279  -4.113  0.00  0.00    +0.120 A 
ATOM     28  C   UNL     1      -6.189   8.550  -5.403  0.00  0.00    +0.047 A 
ATOM     29  C   UNL     1      -7.069   9.074  -6.330  0.00  0.00    +0.023 A 
ATOM     30  C   UNL     1      -8.378   9.339  -5.969  0.00  0.00    +0.041 A 
ATOM     31  C   UNL     1      -8.810   9.075  -4.682  0.00  0.00    +0.023 A 
ATOM     32  C   UNL     1      -7.934   8.546  -3.753  0.00  0.00    +0.047 A 
ATOM     33 CL   UNL     1      -9.480  10.004  -7.134  0.00  0.00    -0.084 Cl
ENDBRANCH  26  27
ENDBRANCH  25  26
ENDBRANCH  24  25
ENDBRANCH   4  24
TORSDOF 6
