REMARK  Name = ZINC63296121
REMARK  10 active torsions:
REMARK  status: ('A' for Active; 'I' for Inactive)
REMARK    1  A    between atoms: C_1  and  O_2
REMARK    2  A    between atoms: O_2  and  C_3
REMARK    3  A    between atoms: C_6  and  C_9
REMARK    4  A    between atoms: C_13  and  C_35
REMARK    5  A    between atoms: N_15  and  C_22
REMARK    6  A    between atoms: C_22  and  C_23
REMARK    7  A    between atoms: C_23  and  C_24
REMARK    8  A    between atoms: C_27  and  O_33
REMARK    9  A    between atoms: O_33  and  C_34
REMARK   10  A    between atoms: C_39  and  O_41
REMARK                            x       y       z     vdW  Elec       q    Type
REMARK                         _______ _______ _______ _____ _____    ______ ____
ROOT
ATOM      1  C   UNL     1      -4.981  -2.629   0.035  0.00  0.00    +0.136 C 
ATOM      2  C   UNL     1      -5.292  -3.186   1.376  0.00  0.00    +0.077 C 
ATOM      3  C   UNL     1      -6.004  -2.716   2.588  0.00  0.00    +0.114 C 
ATOM      4  N   UNL     1      -6.486  -4.013   3.164  0.00  0.00    -0.292 N 
ATOM      5  C   UNL     1      -6.583  -4.950   2.166  0.00  0.00    +0.243 C 
ATOM      6  O   UNL     1      -6.775  -6.139   2.303  0.00  0.00    -0.273 OA
ATOM      7  C   UNL     1      -6.421  -4.195   0.874  0.00  0.00    +0.218 C 
ATOM      8  N   UNL     1      -5.692  -4.775  -0.244  0.00  0.00    -0.203 NA
ATOM      9  N   UNL     1      -4.934  -3.904  -0.753  0.00  0.00    -0.305 N 
ATOM     10  H   UNL     1      -4.393  -4.040  -1.547  0.00  0.00    +0.183 HD
ENDROOT
BRANCH   1  14
ATOM     11  C   UNL     1      -1.200  -0.637   0.010  0.00  0.00    +0.120 A 
ATOM     12  C   UNL     1      -2.375   0.101   0.019  0.00  0.00    +0.046 A 
ATOM     13  C   UNL     1      -3.596  -0.545   0.027  0.00  0.00    +0.009 A 
ATOM     14  C   UNL     1      -3.648  -1.927   0.026  0.00  0.00    -0.023 A 
ATOM     15  C   UNL     1      -2.479  -2.665   0.017  0.00  0.00    +0.009 A 
ATOM     16  C   UNL     1      -1.255  -2.024   0.003  0.00  0.00    +0.046 A 
BRANCH  11  18
ATOM     17  C   UNL     1      -0.017   1.425   0.010  0.00  0.00    +0.277 C 
ATOM     18  O   UNL     1       0.002  -0.004   0.002  0.00  0.00    -0.495 OA
ENDBRANCH  11  18
ENDBRANCH   1  14
BRANCH   3  19
ATOM     19  C   UNL     1      -5.061  -2.018   3.534  0.00  0.00    -0.023 A 
ATOM     20  C   UNL     1      -4.241  -2.760   4.364  0.00  0.00    +0.006 A 
ATOM     21  C   UNL     1      -3.375  -2.123   5.233  0.00  0.00    +0.004 A 
ATOM     22  C   UNL     1      -3.328  -0.742   5.274  0.00  0.00    +0.045 A 
ATOM     23  C   UNL     1      -4.149   0.004   4.443  0.00  0.00    +0.117 A 
ATOM     24  C   UNL     1      -5.013  -0.638   3.567  0.00  0.00    +0.051 A 
BRANCH  23  25
ATOM     25  O   UNL     1      -4.105   1.362   4.482  0.00  0.00    -0.507 OA
ATOM     26  H   UNL     1      -3.465   1.752   3.871  0.00  0.00    +0.292 HD
ENDBRANCH  23  25
ENDBRANCH   3  19
BRANCH   4  27
ATOM     27  C   UNL     1      -6.803  -4.245   4.575  0.00  0.00    +0.113 C 
BRANCH  27  28
ATOM     28  C   UNL     1      -8.279  -3.926   4.825  0.00  0.00    +0.052 C 
BRANCH  28  29
ATOM     29  C   UNL     1      -8.606  -4.165   6.277  0.00  0.00    -0.040 C 
ATOM     30  C   UNL     1      -8.617  -3.246   7.269  0.00  0.00    +0.002 A 
ATOM     31  C   UNL     1      -8.341  -1.805   7.295  0.00  0.00    +0.055 A 
ATOM     32  C   UNL     1      -8.434  -1.129   8.466  0.00  0.00    +0.121 A 
ATOM     33  C   UNL     1      -8.789  -1.760   9.670  0.00  0.00    +0.047 A 
ATOM     34  C   UNL     1      -9.062  -3.080   9.747  0.00  0.00    +0.029 A 
ATOM     35  C   UNL     1      -8.992  -3.909   8.539  0.00  0.00    +0.043 A 
ATOM     36  N   UNL     1      -9.203  -5.186   8.340  0.00  0.00    -0.380 N 
ATOM     37  C   UNL     1      -8.993  -5.479   6.918  0.00  0.00    +0.144 C 
ATOM     38  H   UNL     1      -9.460  -5.830   9.019  0.00  0.00    +0.160 HD
BRANCH  32  39
ATOM     39  O   UNL     1      -8.174   0.205   8.475  0.00  0.00    -0.495 OA
ATOM     40  C   UNL     1      -8.284   0.878   9.730  0.00  0.00    +0.277 C 
ENDBRANCH  32  39
ENDBRANCH  28  29
ENDBRANCH  27  28
ENDBRANCH   4  27
TORSDOF 8
