REMARK  Name = ZINC04860766
REMARK  7 active torsions:
REMARK  status: ('A' for Active; 'I' for Inactive)
REMARK    1  A    between atoms: C_1  and  C_2
REMARK    2  A    between atoms: C_2  and  C_4
REMARK    3  A    between atoms: C_6  and  C_18
REMARK    4  A    between atoms: C_8  and  C_16
REMARK    5  A    between atoms: C_13  and  C_14
REMARK    6  A    between atoms: C_13  and  O_15
REMARK    7  A    between atoms: C_22  and  N_24
REMARK                            x       y       z     vdW  Elec       q    Type
REMARK                         _______ _______ _______ _____ _____    ______ ____
ROOT
ATOM      1  C   UNL     1      -1.266  -0.774   0.004  0.00  0.00    +0.114 C 
ATOM      2  C   UNL     1      -1.057  -2.170   0.604  0.00  0.00    +0.059 C 
ATOM      3  C   UNL     1       0.101  -2.845  -0.135  0.00  0.00    +0.185 C 
ATOM      4  C   UNL     1      -0.097  -2.722  -1.618  0.00  0.00    +0.233 C 
ATOM      5  O   UNL     1       0.532  -3.461  -2.345  0.00  0.00    -0.274 OA
ATOM      6  N   UNL     1      -0.929  -1.843  -2.179  0.00  0.00    -0.286 N 
ATOM      7  C   UNL     1      -1.781  -0.924  -1.428  0.00  0.00    +0.140 C 
ATOM      8  C   UNL     1      -1.784   0.445  -2.111  0.00  0.00    +0.064 C 
ATOM      9  H   UNL     1      -0.970  -1.811  -3.148  0.00  0.00    +0.151 HD
ENDROOT
BRANCH   2  10
ATOM     10  C   UNL     1      -0.724  -2.048   2.068  0.00  0.00    -0.040 A 
ATOM     11  C   UNL     1      -1.325  -1.067   2.835  0.00  0.00    +0.004 A 
ATOM     12  C   UNL     1      -1.020  -0.955   4.178  0.00  0.00    +0.002 A 
ATOM     13  C   UNL     1      -0.113  -1.825   4.755  0.00  0.00    +0.033 A 
ATOM     14  C   UNL     1       0.487  -2.807   3.989  0.00  0.00    +0.126 A 
ATOM     15  C   UNL     1       0.178  -2.921   2.647  0.00  0.00    +0.036 A 
BRANCH  14  16
ATOM     16  N   UNL     1       1.458  -3.737   4.607  0.00  0.00    +0.056 N 
ATOM     17  O   UNL     1       1.726  -3.639   5.782  0.00  0.00    -0.126 OA
ATOM     18  O   UNL     1       1.983  -4.596   3.937  0.00  0.00    -0.126 OA
ENDBRANCH  14  16
ENDBRANCH   2  10
BRANCH   1  20
ATOM     19  C   UNL     1       0.479   0.745   1.214  0.00  0.00    +0.086 C 
ATOM     20  C   UNL     1       0.043  -0.027  -0.005  0.00  0.00    +0.138 C 
ATOM     21  O   UNL     1       0.742  -0.046  -0.990  0.00  0.00    -0.297 OA
ENDBRANCH   1  20
BRANCH   7  22
ATOM     22  O   UNL     1      -3.115  -1.435  -1.399  0.00  0.00    -0.371 OA
ATOM     23  H   UNL     1      -3.509  -1.558  -2.273  0.00  0.00    +0.212 HD
ENDBRANCH   7  22
BRANCH   3  24
ATOM     24  C   UNL     1       1.367  -2.196   0.243  0.00  0.00    +0.076 C 
ATOM     25  N   UNL     1       2.344  -1.694   0.535  0.00  0.00    -0.196 NA
ENDBRANCH   3  24
TORSDOF 5
