REMARK  Name = ZINC36801449
REMARK  11 active torsions:
REMARK  status: ('A' for Active; 'I' for Inactive)
REMARK    1  A    between atoms: C_1  and  C_2
REMARK    2  A    between atoms: C_7  and  C_8
REMARK    3  A    between atoms: C_11  and  S_14
REMARK    4  A    between atoms: N_12  and  C_13
REMARK    5  A    between atoms: S_14  and  C_15
REMARK    6  A    between atoms: C_15  and  C_16
REMARK    7  A    between atoms: C_16  and  C_18
REMARK    8  A    between atoms: C_19  and  N_34
REMARK    9  A    between atoms: N_20  and  C_27
REMARK   10  A    between atoms: N_23  and  C_26
REMARK   11  A    between atoms: C_27  and  C_28
REMARK                            x       y       z     vdW  Elec       q    Type
REMARK                         _______ _______ _______ _____ _____    ______ ____
ROOT
ATOM      1  C   UNL     1       0.022   3.429   9.149  0.00  0.00    +0.120 A 
ATOM      2  C   UNL     1       0.084   3.499  10.552  0.00  0.00    +0.116 A 
ATOM      3  N   UNL     1       0.123   4.726  11.150  0.00  0.00    -0.277 N 
ATOM      4  C   UNL     1       0.102   5.856  10.427  0.00  0.00    +0.333 A 
ATOM      5  O   UNL     1       0.138   6.924  11.007  0.00  0.00    -0.246 OA
ATOM      6  N   UNL     1       0.043   5.851   9.085  0.00  0.00    -0.263 N 
ATOM      7  C   UNL     1       0.007   4.691   8.399  0.00  0.00    +0.269 A 
ATOM      8  O   UNL     1      -0.041   4.690   7.182  0.00  0.00    -0.267 OA
ATOM      9  C   UNL     1       0.023   7.123   8.358  0.00  0.00    +0.157 C 
ENDROOT
BRANCH   2  10
ATOM     10  N   UNL     1       0.105   2.364  11.301  0.00  0.00    -0.344 N 
ATOM     11  H   UNL     1      -0.002   1.499  10.874  0.00  0.00    +0.144 HD
ATOM     12  H   UNL     1       0.227   2.418  12.262  0.00  0.00    +0.144 HD
ENDBRANCH   2  10
BRANCH   1  13
ATOM     13  C   UNL     1      -0.020   2.185   8.484  0.00  0.00    +0.182 C 
ATOM     14  O   UNL     1      -0.112   1.157   9.123  0.00  0.00    -0.291 OA
BRANCH  13  15
ATOM     15  C   UNL     1       0.051   2.133   6.979  0.00  0.00    +0.157 C 
BRANCH  15  16
ATOM     16  S   UNL     1      -0.025   0.406   6.430  0.00  0.00    -0.078 S 
BRANCH  16  20
ATOM     17  C   UNL     1       0.142   0.029   2.545  0.00  0.00    +0.165 A 
ATOM     18  N   UNL     1       0.212   1.329   2.711  0.00  0.00    -0.128 NA
ATOM     19  N   UNL     1       0.168   1.614   3.964  0.00  0.00    -0.122 NA
ATOM     20  C   UNL     1       0.067   0.512   4.674  0.00  0.00    +0.192 A 
ATOM     21  N   UNL     1       0.042  -0.534   3.796  0.00  0.00    -0.305 N 
ATOM     22  C   UNL     1      -0.068  -1.958   4.120  0.00  0.00    +0.153 C 
BRANCH  17  29
ATOM     23  C   UNL     1      -1.594   0.889   0.396  0.00  0.00    +0.044 C 
ATOM     24  C   UNL     1      -0.671  -0.288   0.212  0.00  0.00    -0.040 A 
ATOM     25  C   UNL     1      -0.644  -0.964  -0.991  0.00  0.00    +0.004 A 
ATOM     26  C   UNL     1       0.203  -2.044  -1.162  0.00  0.00    +0.000 A 
ATOM     27  C   UNL     1       1.027  -2.455  -0.129  0.00  0.00    +0.001 A 
ATOM     28  C   UNL     1       1.009  -1.789   1.078  0.00  0.00    +0.012 A 
ATOM     29  C   UNL     1       0.162  -0.694   1.255  0.00  0.00    +0.022 A 
ENDBRANCH  17  29
ENDBRANCH  16  20
ENDBRANCH  15  16
ENDBRANCH  13  15
ENDBRANCH   1  13
BRANCH   3  30
ATOM     30  C   UNL     1       0.188   4.810  12.611  0.00  0.00    +0.163 C 
BRANCH  30  31
ATOM     31  C   UNL     1       1.629   4.825  13.050  0.00  0.00    -0.028 A 
ATOM     32  C   UNL     1       2.283   3.636  13.315  0.00  0.00    +0.005 A 
ATOM     33  C   UNL     1       3.606   3.650  13.718  0.00  0.00    +0.000 A 
ATOM     34  C   UNL     1       4.274   4.852  13.854  0.00  0.00    +0.000 A 
ATOM     35  C   UNL     1       3.621   6.040  13.589  0.00  0.00    +0.000 A 
ATOM     36  C   UNL     1       2.300   6.027  13.182  0.00  0.00    +0.005 A 
ENDBRANCH  30  31
ENDBRANCH   3  30
TORSDOF 8
