REMARK  Name = ZINC61826052
REMARK  6 active torsions:
REMARK  status: ('A' for Active; 'I' for Inactive)
REMARK    1  A    between atoms: C_1  and  C_2
REMARK    2  A    between atoms: C_2  and  O_3
REMARK    3  A    between atoms: O_3  and  C_4
REMARK    4  A    between atoms: C_10  and  O_18
REMARK    5  A    between atoms: C_13  and  C_16
REMARK    6  A    between atoms: C_13  and  C_17
REMARK                            x       y       z     vdW  Elec       q    Type
REMARK                         _______ _______ _______ _____ _____    ______ ____
ROOT
ATOM      1  C   UNL     1      -1.308  -1.965   0.021  0.00  0.00    +0.121 A 
ATOM      2  C   UNL     1      -0.227  -2.834  -0.028  0.00  0.00    +0.046 A 
ATOM      3  C   UNL     1      -0.438  -4.199  -0.051  0.00  0.00    +0.007 A 
ATOM      4  C   UNL     1      -1.731  -4.693  -0.026  0.00  0.00    -0.041 A 
ATOM      5  C   UNL     1      -2.801  -3.837   0.023  0.00  0.00    -0.013 A 
ATOM      6  C   UNL     1      -2.600  -2.469   0.052  0.00  0.00    +0.052 A 
ATOM      7  C   UNL     1      -4.213  -4.385   0.051  0.00  0.00    +0.145 C 
ATOM      8  C   UNL     1      -4.530  -4.979  -1.323  0.00  0.00    +0.042 C 
ATOM      9  C   UNL     1      -4.050  -6.413  -1.418  0.00  0.00    -0.032 C 
ATOM     10  C   UNL     1      -2.542  -6.570  -1.413  0.00  0.00    +0.011 C 
ATOM     11  C   UNL     1      -1.956  -6.191  -0.052  0.00  0.00    +0.036 C 
ATOM     12  C   UNL     1      -4.623  -7.196  -0.236  0.00  0.00    +0.011 C 
ATOM     13  C   UNL     1      -4.597  -7.024  -2.710  0.00  0.00    +0.011 C 
ENDROOT
BRANCH   7  14
ATOM     14  O   UNL     1      -5.131  -3.331   0.347  0.00  0.00    -0.387 OA
ATOM     15  H   UNL     1      -4.975  -2.901   1.200  0.00  0.00    +0.210 HD
ENDBRANCH   7  14
BRANCH   1  16
ATOM     16  O   UNL     1      -1.101  -0.622   0.046  0.00  0.00    -0.492 OA
BRANCH  16  18
ATOM     17  C   UNL     1       0.289   1.355   0.047  0.00  0.00    +0.048 C 
ATOM     18  C   UNL     1       0.256  -0.174   0.012  0.00  0.00    +0.225 C 
ENDBRANCH  16  18
ENDBRANCH   1  16
TORSDOF 3
