REMARK  Name = ZINC04299441
REMARK  6 active torsions:
REMARK  status: ('A' for Active; 'I' for Inactive)
REMARK    1  A    between atoms: C_5  and  N_7
REMARK    2  A    between atoms: N_10  and  C_11
REMARK    3  A    between atoms: C_11  and  C_12
REMARK    4  A    between atoms: C_12  and  N_13
REMARK    5  A    between atoms: N_13  and  C_14
REMARK    6  A    between atoms: C_17  and  C_19
REMARK                            x       y       z     vdW  Elec       q    Type
REMARK                         _______ _______ _______ _____ _____    ______ ____
ROOT
ATOM      1  C   UNL     1      -3.062   3.925   6.881  0.00  0.00    +0.124 C 
ENDROOT
BRANCH   1   5
ATOM      2  N   UNL     1      -2.377   4.889  10.362  0.00  0.00    -0.268 N 
ATOM      3  C   UNL     1      -3.030   4.640   9.210  0.00  0.00    +0.304 C 
ATOM      4  O   UNL     1      -4.231   4.815   9.143  0.00  0.00    -0.253 OA
ATOM      5  N   UNL     1      -2.352   4.196   8.133  0.00  0.00    -0.298 N 
ATOM      6  H   UNL     1      -1.431   4.688  10.437  0.00  0.00    +0.156 HD
ATOM      7  H   UNL     1      -1.394   4.056   8.188  0.00  0.00    +0.150 HD
BRANCH   2  12
ATOM      8  C   UNL     1      -5.062   5.636  12.762  0.00  0.00    +0.002 A 
ATOM      9  C   UNL     1      -4.421   6.525  13.605  0.00  0.00    +0.002 A 
ATOM     10  C   UNL     1      -3.103   6.873  13.374  0.00  0.00    +0.022 A 
ATOM     11  C   UNL     1      -2.422   6.332  12.300  0.00  0.00    +0.062 A 
ATOM     12  C   UNL     1      -3.063   5.438  11.452  0.00  0.00    +0.053 A 
ATOM     13  C   UNL     1      -4.388   5.095  11.684  0.00  0.00    +0.025 A 
ATOM     14 CL   UNL     1      -0.767   6.771  12.011  0.00  0.00    -0.082 Cl
ENDBRANCH   2  12
ENDBRANCH   1   5
BRANCH   1  15
ATOM     15  C   UNL     1      -2.068   3.436   5.826  0.00  0.00    +0.121 C 
BRANCH  15  16
ATOM     16  N   UNL     1      -2.778   3.165   4.574  0.00  0.00    -0.329 N 
ATOM     17  H   UNL     1      -3.736   3.305   4.520  0.00  0.00    +0.147 HD
BRANCH  16  18
ATOM     18  C   UNL     1      -2.079   2.708   3.463  0.00  0.00    +0.096 A 
ATOM     19  C   UNL     1      -0.704   2.509   3.547  0.00  0.00    +0.042 A 
ATOM     20  C   UNL     1      -0.021   2.054   2.435  0.00  0.00    +0.017 A 
ATOM     21  C   UNL     1      -0.737   1.811   1.270  0.00  0.00    +0.071 A 
ATOM     22  C   UNL     1      -2.099   2.035   1.256  0.00  0.00    +0.096 A 
ATOM     23  N   UNL     1      -2.804   2.477   2.331  0.00  0.00    -0.349 N 
ATOM     24  H   UNL     1      -3.819   2.627   2.294  0.00  0.00    +0.167 HD
BRANCH  21  25
ATOM     25  C   UNL     1      -0.034   1.313   0.034  0.00  0.00    +0.419 C 
ATOM     26  F   UNL     1      -0.020  -0.085   0.036  0.00  0.00    -0.166 F 
ATOM     27  F   UNL     1       1.280   1.793   0.020  0.00  0.00    -0.166 F 
ATOM     28  F   UNL     1      -0.710   1.771  -1.103  0.00  0.00    -0.166 F 
ENDBRANCH  21  25
ENDBRANCH  16  18
ENDBRANCH  15  16
ENDBRANCH   1  15
TORSDOF 6
