REMARK  Name = ZINC11103930
REMARK  8 active torsions:
REMARK  status: ('A' for Active; 'I' for Inactive)
REMARK    1  A    between atoms: C_1  and  S_2
REMARK    2  A    between atoms: S_2  and  N_5
REMARK    3  A    between atoms: N_5  and  C_6
REMARK    4  A    between atoms: C_11  and  C_13
REMARK    5  A    between atoms: C_11  and  C_19
REMARK    6  A    between atoms: C_11  and  N_54
REMARK    7  A    between atoms: N_21  and  C_22
REMARK    8  A    between atoms: C_26  and  N_28
REMARK                            x       y       z     vdW  Elec       q    Type
REMARK                         _______ _______ _______ _____ _____    ______ ____
ROOT
ATOM      1  C   UNL     1      -5.461   2.277   0.751  0.00  0.00    +0.050 C 
ENDROOT
BRANCH   1   7
ATOM      2  C   UNL     1      -1.290   1.687   0.022  0.00  0.00    +0.073 C 
ATOM      3  C   UNL     1      -1.793   1.805   1.463  0.00  0.00    +0.002 C 
ATOM      4  C   UNL     1      -3.159   2.496   1.466  0.00  0.00    -0.076 C 
ATOM      5  C   UNL     1      -3.667   1.632  -0.740  0.00  0.00    -0.076 C 
ATOM      6  C   UNL     1      -2.317   0.913  -0.809  0.00  0.00    +0.002 C 
ATOM      7  N   UNL     1      -4.108   1.690   0.670  0.00  0.00    +0.390 N 
ATOM      8  H   UNL     1      -4.135   0.736   1.050  0.00  0.00    -0.080 HD
BRANCH   2   9
ATOM      9  N   UNL     1      -0.011   0.973   0.007  0.00  0.00    -0.192 NA
ATOM     10  H   UNL     1       0.003   0.003  -0.006  0.00  0.00    +0.148 HD
BRANCH   9  12
ATOM     11  C   UNL     1       1.447   2.676   1.605  0.00  0.00    +0.214 C 
ATOM     12  S   UNL     1       1.412   1.821   0.005  0.00  0.00    +0.027 S 
ATOM     13  O   UNL     1       2.426   0.828  -0.042  0.00  0.00    -0.158 OA
ATOM     14  O   UNL     1       1.271   2.763  -1.050  0.00  0.00    -0.158 OA
ENDBRANCH   9  12
ENDBRANCH   2   9
ENDBRANCH   1   7
BRANCH   1  15
ATOM     15  C   UNL     1      -5.783   2.579   2.192  0.00  0.00    -0.052 A 
ATOM     16  C   UNL     1      -5.394   1.699   3.185  0.00  0.00    +0.002 A 
ATOM     17  C   UNL     1      -5.685   1.978   4.508  0.00  0.00    +0.000 A 
ATOM     18  C   UNL     1      -6.373   3.131   4.836  0.00  0.00    +0.000 A 
ATOM     19  C   UNL     1      -6.766   4.008   3.842  0.00  0.00    +0.000 A 
ATOM     20  C   UNL     1      -6.471   3.731   2.520  0.00  0.00    +0.002 A 
ENDBRANCH   1  15
BRANCH   1  21
ATOM     21  C   UNL     1      -6.454   1.280   0.212  0.00  0.00    +0.208 C 
ATOM     22  O   UNL     1      -6.071   0.208  -0.207  0.00  0.00    -0.277 OA
ATOM     23  N   UNL     1      -7.769   1.579   0.197  0.00  0.00    -0.286 N 
ATOM     24  H   UNL     1      -8.082   2.407   0.594  0.00  0.00    +0.155 HD
BRANCH  23  25
ATOM     25  C   UNL     1      -8.681   0.694  -0.390  0.00  0.00    +0.036 A 
ATOM     26  C   UNL     1      -9.794   1.186  -1.058  0.00  0.00    +0.025 A 
ATOM     27  C   UNL     1     -10.690   0.311  -1.642  0.00  0.00    +0.024 A 
ATOM     28  C   UNL     1     -10.484  -1.054  -1.552  0.00  0.00    +0.071 A 
ATOM     29  C   UNL     1      -9.378  -1.547  -0.881  0.00  0.00    +0.146 A 
ATOM     30  C   UNL     1      -8.476  -0.676  -0.301  0.00  0.00    +0.057 A 
ATOM     31 CL   UNL     1     -11.615  -2.151  -2.281  0.00  0.00    -0.081 Cl
BRANCH  29  32
ATOM     32  N   UNL     1      -9.161  -3.008  -0.787  0.00  0.00    +0.058 N 
ATOM     33  O   UNL     1      -8.188  -3.442  -0.197  0.00  0.00    -0.126 OA
ATOM     34  O   UNL     1      -9.956  -3.776  -1.298  0.00  0.00    -0.126 OA
ENDBRANCH  29  32
ENDBRANCH  23  25
ENDBRANCH   1  21
TORSDOF 7
