REMARK  Name = ZINC38777333
REMARK  6 active torsions:
REMARK  status: ('A' for Active; 'I' for Inactive)
REMARK    1  A    between atoms: C_3  and  N_40
REMARK    2  A    between atoms: C_11  and  C_14
REMARK    3  A    between atoms: N_16  and  C_17
REMARK    4  A    between atoms: N_16  and  C_28
REMARK    5  A    between atoms: C_17  and  C_18
REMARK    6  A    between atoms: C_28  and  C_29
REMARK                            x       y       z     vdW  Elec       q    Type
REMARK                         _______ _______ _______ _____ _____    ______ ____
ROOT
ATOM      1  C   UNL     1       3.636  -3.655   0.249  0.00  0.00    +0.231 C 
ATOM      2  O   UNL     1       3.352  -2.709  -0.456  0.00  0.00    -0.274 OA
ATOM      3  N   UNL     1       4.282  -4.716  -0.275  0.00  0.00    -0.292 N 
ENDROOT
BRANCH   1  11
ATOM      4  C   UNL     1       4.211  -0.507   5.414  0.00  0.00    -0.002 C 
ATOM      5  C   UNL     1       2.975  -0.060   5.230  0.00  0.00    +0.006 C 
ATOM      6  C   UNL     1       2.158  -0.518   4.047  0.00  0.00    +0.209 C 
ATOM      7  C   UNL     1       2.464  -1.989   3.769  0.00  0.00    +0.108 C 
ATOM      8  C   UNL     1       3.980  -2.153   3.663  0.00  0.00    -0.035 C 
ATOM      9  C   UNL     1       4.804  -1.469   4.471  0.00  0.00    +0.002 C 
ATOM     10  C   UNL     1       4.420  -3.081   2.571  0.00  0.00    +0.129 C 
ATOM     11  C   UNL     1       3.267  -3.644   1.710  0.00  0.00    +0.155 C 
ATOM     12  S   UNL     1       1.919  -2.412   2.060  0.00  0.00    -0.136 S 
ATOM     13 CL   UNL     1       5.557  -2.193   1.490  0.00  0.00    -0.115 Cl
BRANCH   6  14
ATOM     14  N   UNL     1       0.733  -0.361   4.346  0.00  0.00    +0.031 N 
ATOM     15  O   UNL     1       0.046   0.355   3.656  0.00  0.00    -0.131 OA
ATOM     16  O   UNL     1       0.243  -0.948   5.283  0.00  0.00    -0.131 OA
ENDBRANCH   6  14
ENDBRANCH   1  11
BRANCH   3  17
ATOM     17  C   UNL     1       4.731  -4.685  -1.670  0.00  0.00    +0.143 C 
BRANCH  17  18
ATOM     18  C   UNL     1       6.159  -4.207  -1.727  0.00  0.00    -0.025 C 
ATOM     19  C   UNL     1       7.220  -5.069  -1.750  0.00  0.00    +0.005 C 
ATOM     20  C   UNL     1       8.580  -4.551  -1.865  0.00  0.00    -0.002 C 
ATOM     21  C   UNL     1       8.892  -3.269  -1.642  0.00  0.00    +0.004 C 
ATOM     22  C   UNL     1       7.813  -2.325  -1.203  0.00  0.00    +0.158 C 
ATOM     23  C   UNL     1       6.496  -2.842  -1.767  0.00  0.00    -0.013 C 
ATOM     24  C   UNL     1       5.879  -1.761  -2.270  0.00  0.00    +0.025 C 
ATOM     25  C   UNL     1       6.787  -0.678  -2.306  0.00  0.00    +0.106 C 
ATOM     26  N   UNL     1       7.923  -0.971  -1.724  0.00  0.00    -0.279 NA
ENDBRANCH  17  18
ENDBRANCH   3  17
BRANCH   3  27
ATOM     27  C   UNL     1       4.535  -5.900   0.549  0.00  0.00    +0.143 C 
BRANCH  27  28
ATOM     28  C   UNL     1       3.514  -6.962   0.230  0.00  0.00    -0.025 C 
ATOM     29  C   UNL     1       3.746  -7.951  -0.685  0.00  0.00    +0.005 C 
ATOM     30  C   UNL     1       2.744  -8.987  -0.912  0.00  0.00    -0.002 C 
ATOM     31  C   UNL     1       1.473  -8.871  -0.508  0.00  0.00    +0.004 C 
ATOM     32  C   UNL     1       1.037  -7.602   0.161  0.00  0.00    +0.158 C 
ATOM     33  C   UNL     1       2.255  -7.010   0.856  0.00  0.00    -0.013 C 
ATOM     34  C   UNL     1       1.825  -6.645   2.075  0.00  0.00    +0.025 C 
ATOM     35  C   UNL     1       0.537  -7.184   2.296  0.00  0.00    +0.106 C 
ATOM     36  N   UNL     1       0.058  -7.767   1.225  0.00  0.00    -0.279 NA
ENDBRANCH  27  28
ENDBRANCH   3  27
TORSDOF 6
