REMARK  Name = ZINC09641812
REMARK  5 active torsions:
REMARK  status: ('A' for Active; 'I' for Inactive)
REMARK    1  A    between atoms: C_1  and  C_2
REMARK    2  A    between atoms: C_2  and  C_24
REMARK    3  A    between atoms: N_5  and  C_9
REMARK    4  A    between atoms: C_9  and  N_68
REMARK    5  A    between atoms: C_12  and  C_15
REMARK                            x       y       z     vdW  Elec       q    Type
REMARK                         _______ _______ _______ _____ _____    ______ ____
ROOT
ATOM      1  C   UNL     1      -7.011   1.041  -2.619  0.00  0.00    +0.047 C 
ATOM      2  C   UNL     1      -7.156   2.563  -2.555  0.00  0.00    +0.135 C 
ATOM      3  C   UNL     1      -6.320   3.132  -1.426  0.00  0.00    +0.249 C 
ATOM      4  O   UNL     1      -6.431   2.897  -0.242  0.00  0.00    -0.272 OA
ATOM      5  N   UNL     1      -5.427   3.954  -2.013  0.00  0.00    -0.241 N 
ATOM      6  C   UNL     1      -5.585   3.987  -3.341  0.00  0.00    +0.308 C 
ATOM      7  O   UNL     1      -4.900   4.660  -4.086  0.00  0.00    -0.252 OA
ATOM      8  N   UNL     1      -6.584   3.189  -3.759  0.00  0.00    -0.281 N 
ATOM      9  H   UNL     1      -6.874   3.056  -4.675  0.00  0.00    +0.152 HD
ENDROOT
BRANCH   2  10
ATOM     10  C   UNL     1      -8.603   2.953  -2.391  0.00  0.00    -0.012 A 
ATOM     11  C   UNL     1      -9.125   3.152  -1.126  0.00  0.00    +0.010 A 
ATOM     12  C   UNL     1     -10.451   3.508  -0.972  0.00  0.00    +0.050 A 
ATOM     13  C   UNL     1     -11.262   3.666  -2.086  0.00  0.00    +0.162 A 
ATOM     14  C   UNL     1     -10.737   3.468  -3.357  0.00  0.00    +0.162 A 
ATOM     15  C   UNL     1      -9.404   3.115  -3.505  0.00  0.00    +0.055 A 
ATOM     16  O   UNL     1     -11.514   3.622  -4.464  0.00  0.00    -0.485 OA
ATOM     17  C   UNL     1     -12.932   3.610  -4.261  0.00  0.00    +0.270 C 
ATOM     18  C   UNL     1     -13.254   4.519  -3.067  0.00  0.00    +0.270 C 
ATOM     19  O   UNL     1     -12.569   4.008  -1.917  0.00  0.00    -0.485 OA
ENDBRANCH   2  10
BRANCH   5  20
ATOM     20  C   UNL     1      -4.413   4.721  -1.285  0.00  0.00    +0.043 C 
BRANCH  20  26
ATOM     21  C   UNL     1      -2.392   4.345  -0.007  0.00  0.00    -0.076 C 
ATOM     22  C   UNL     1      -1.058   3.596   0.001  0.00  0.00    -0.006 C 
ATOM     23  C   UNL     1      -1.325   2.089   0.062  0.00  0.00    +0.072 C 
ATOM     24  C   UNL     1      -2.194   1.683  -1.131  0.00  0.00    -0.006 C 
ATOM     25  C   UNL     1      -3.494   2.489  -1.107  0.00  0.00    -0.076 C 
ATOM     26  N   UNL     1      -3.170   3.929  -1.193  0.00  0.00    +0.391 N 
ATOM     27  H   UNL     1      -2.606   4.093  -2.035  0.00  0.00    -0.079 HD
BRANCH  23  28
ATOM     28  C   UNL     1      -0.016   1.344   0.009  0.00  0.00    +0.219 C 
ATOM     29  O   UNL     1       0.959   1.865  -0.489  0.00  0.00    -0.275 OA
ATOM     30  N   UNL     1       0.069   0.096   0.511  0.00  0.00    -0.301 N 
ATOM     31  C   UNL     1       1.304  -0.637   0.341  0.00  0.00    +0.108 C 
ATOM     32  C   UNL     1       1.269  -1.424  -0.986  0.00  0.00    +0.019 C 
ATOM     33  C   UNL     1       0.329  -2.551  -0.886  0.00  0.00    +0.002 C 
ATOM     34  C   UNL     1      -1.122  -2.141  -0.651  0.00  0.00    +0.002 C 
ATOM     35  C   UNL     1      -1.351  -1.941   0.827  0.00  0.00    +0.019 C 
ATOM     36  C   UNL     1      -1.105  -0.469   1.206  0.00  0.00    +0.108 C 
ENDBRANCH  23  28
ENDBRANCH  20  26
ENDBRANCH   5  20
TORSDOF 4
