REMARK  Name = ZINC45344009
REMARK  7 active torsions:
REMARK  status: ('A' for Active; 'I' for Inactive)
REMARK    1  A    between atoms: C_1  and  C_2
REMARK    2  A    between atoms: C_5  and  C_28
REMARK    3  A    between atoms: C_6  and  S_8
REMARK    4  A    between atoms: S_8  and  C_11
REMARK    5  A    between atoms: C_11  and  C_16
REMARK    6  A    between atoms: N_18  and  C_19
REMARK    7  A    between atoms: C_23  and  N_25
REMARK                            x       y       z     vdW  Elec       q    Type
REMARK                         _______ _______ _______ _____ _____    ______ ____
ROOT
ATOM      1  C   UNL     1      -1.427  -3.457   2.051  0.00  0.00    +0.168 C 
ATOM      2  C   UNL     1      -0.881  -4.181   0.795  0.00  0.00    +0.039 C 
ATOM      3  C   UNL     1      -2.067  -5.086   0.380  0.00  0.00    +0.003 C 
ATOM      4  C   UNL     1      -2.659  -5.572   1.718  0.00  0.00    +0.003 C 
ATOM      5  C   UNL     1      -2.252  -4.537   2.781  0.00  0.00    +0.039 C 
ENDROOT
BRANCH   1   6
ATOM      6  C   UNL     1      -2.306  -2.299   1.655  0.00  0.00    +0.245 C 
ATOM      7  O   UNL     1      -3.512  -2.392   1.753  0.00  0.00    -0.273 OA
ATOM      8  N   UNL     1      -1.754  -1.160   1.192  0.00  0.00    -0.284 N 
ATOM      9  H   UNL     1      -0.798  -1.115   1.034  0.00  0.00    +0.155 HD
BRANCH   8  10
ATOM     10  C   UNL     1      -2.559  -0.044   0.939  0.00  0.00    +0.036 A 
ATOM     11  C   UNL     1      -3.673   0.204   1.731  0.00  0.00    +0.023 A 
ATOM     12  C   UNL     1      -4.465   1.307   1.478  0.00  0.00    +0.004 A 
ATOM     13  C   UNL     1      -4.151   2.163   0.439  0.00  0.00    +0.033 A 
ATOM     14  C   UNL     1      -3.043   1.918  -0.351  0.00  0.00    +0.128 A 
ATOM     15  C   UNL     1      -2.242   0.821  -0.100  0.00  0.00    +0.056 A 
BRANCH  14  16
ATOM     16  N   UNL     1      -2.710   2.837  -1.463  0.00  0.00    +0.056 N 
ATOM     17  O   UNL     1      -3.408   3.800  -1.680  0.00  0.00    -0.126 OA
ATOM     18  O   UNL     1      -1.742   2.623  -2.154  0.00  0.00    -0.126 OA
ENDBRANCH  14  16
ENDBRANCH   8  10
ENDBRANCH   1   6
BRANCH   1  19
ATOM     19  S   UNL     1      -0.061  -2.885   3.099  0.00  0.00    +0.011 S 
ATOM     20  O   UNL     1      -0.566  -2.368   4.323  0.00  0.00    -0.168 OA
ATOM     21  O   UNL     1       0.869  -2.139   2.326  0.00  0.00    -0.168 OA
BRANCH  19  27
ATOM     22  C   UNL     1       3.160  -6.846   1.977  0.00  0.00    +0.044 C 
ATOM     23  C   UNL     1       2.286  -6.144   2.985  0.00  0.00    -0.049 A 
ATOM     24  C   UNL     1       2.164  -6.651   4.265  0.00  0.00    +0.004 A 
ATOM     25  C   UNL     1       1.362  -6.008   5.189  0.00  0.00    +0.005 A 
ATOM     26  C   UNL     1       0.682  -4.858   4.833  0.00  0.00    -0.026 A 
ATOM     27  C   UNL     1       0.805  -4.351   3.553  0.00  0.00    +0.092 A 
ATOM     28  C   UNL     1       1.611  -4.992   2.630  0.00  0.00    +0.030 A 
ATOM     29  C   UNL     1      -0.193  -4.157   5.840  0.00  0.00    +0.046 C 
ENDBRANCH  19  27
ENDBRANCH   1  19
TORSDOF 5
