REMARK  Name = ZINC65331358
REMARK  9 active torsions:
REMARK  status: ('A' for Active; 'I' for Inactive)
REMARK    1  A    between atoms: C_1  and  C_2
REMARK    2  A    between atoms: C_3  and  N_9
REMARK    3  A    between atoms: C_14  and  C_20
REMARK    4  A    between atoms: C_22  and  O_30
REMARK    5  A    between atoms: C_23  and  O_28
REMARK    6  A    between atoms: C_25  and  O_26
REMARK    7  A    between atoms: O_26  and  C_27
REMARK    8  A    between atoms: O_28  and  C_29
REMARK    9  A    between atoms: O_30  and  C_31
REMARK                            x       y       z     vdW  Elec       q    Type
REMARK                         _______ _______ _______ _____ _____    ______ ____
ROOT
ATOM      1  N   UNL     1      -0.161  -0.119  -2.481  0.00  0.00    -0.218 N 
ATOM      2  C   UNL     1      -0.347  -0.722  -3.673  0.00  0.00    +0.132 A 
ATOM      3  C   UNL     1      -0.375   0.258  -4.631  0.00  0.00    +0.020 A 
ATOM      4  C   UNL     1      -0.204   1.480  -3.999  0.00  0.00    +0.141 A 
ATOM      5  N   UNL     1      -0.081   1.264  -2.710  0.00  0.00    -0.173 NA
ATOM      6  C   UNL     1      -0.563  -0.055  -6.094  0.00  0.00    +0.066 C 
ATOM      7  C   UNL     1       0.003  -1.452  -6.365  0.00  0.00    +0.109 C 
ATOM      8  C   UNL     1      -0.401  -2.425  -5.295  0.00  0.00    +0.219 C 
ATOM      9  O   UNL     1      -0.648  -3.571  -5.609  0.00  0.00    -0.275 OA
ATOM     10  N   UNL     1      -0.499  -2.070  -3.996  0.00  0.00    -0.270 N 
ATOM     11  H   UNL     1      -0.670  -2.732  -3.308  0.00  0.00    +0.156 HD
ENDROOT
BRANCH   1  14
ATOM     12  C   UNL     1      -1.710   0.906  -0.324  0.00  0.00    +0.047 C 
ATOM     13  C   UNL     1      -0.808  -0.290  -0.158  0.00  0.00    -0.007 A 
ATOM     14  C   UNL     1      -0.069  -0.758  -1.236  0.00  0.00    +0.072 A 
ATOM     15  C   UNL     1       0.760  -1.860  -1.080  0.00  0.00    +0.028 A 
ATOM     16  C   UNL     1       0.849  -2.489   0.147  0.00  0.00    +0.004 A 
ATOM     17  C   UNL     1       0.112  -2.022   1.219  0.00  0.00    +0.020 A 
ATOM     18  C   UNL     1      -0.712  -0.919   1.069  0.00  0.00    +0.046 A 
ATOM     19 CL   UNL     1      -1.630  -0.331   2.420  0.00  0.00    -0.083 Cl
ENDBRANCH   1  14
BRANCH   6  20
ATOM     20  C   UNL     1      -2.030  -0.025  -6.435  0.00  0.00    +0.006 A 
ATOM     21  C   UNL     1      -2.906  -0.882  -5.793  0.00  0.00    +0.057 A 
ATOM     22  C   UNL     1      -4.255  -0.857  -6.105  0.00  0.00    +0.162 A 
ATOM     23  C   UNL     1      -4.730   0.032  -7.065  0.00  0.00    +0.165 A 
ATOM     24  C   UNL     1      -3.851   0.890  -7.707  0.00  0.00    +0.095 A 
ATOM     25  C   UNL     1      -2.502   0.864  -7.388  0.00  0.00    +0.128 A 
BRANCH  25  26
ATOM     26  O   UNL     1      -1.640   1.710  -8.014  0.00  0.00    -0.495 OA
ATOM     27  C   UNL     1      -2.194   2.600  -8.985  0.00  0.00    +0.277 C 
ENDBRANCH  25  26
BRANCH  23  28
ATOM     28  O   UNL     1      -6.054   0.059  -7.373  0.00  0.00    -0.491 OA
ATOM     29  C   UNL     1      -6.470   0.996  -8.367  0.00  0.00    +0.277 C 
ENDBRANCH  23  28
BRANCH  22  30
ATOM     30  O   UNL     1      -5.116  -1.700  -5.473  0.00  0.00    -0.491 OA
ATOM     31  C   UNL     1      -4.559  -2.586  -4.500  0.00  0.00    +0.277 C 
ENDBRANCH  22  30
ENDBRANCH   6  20
TORSDOF 5
