REMARK  Name = ZINC41334457
REMARK  7 active torsions:
REMARK  status: ('A' for Active; 'I' for Inactive)
REMARK    1  A    between atoms: C_1  and  C_2
REMARK    2  A    between atoms: C_4  and  C_8
REMARK    3  A    between atoms: N_5  and  C_7
REMARK    4  A    between atoms: C_11  and  S_14
REMARK    5  A    between atoms: N_12  and  C_13
REMARK    6  A    between atoms: S_14  and  C_15
REMARK    7  A    between atoms: C_15  and  C_16
REMARK                            x       y       z     vdW  Elec       q    Type
REMARK                         _______ _______ _______ _____ _____    ______ ____
ROOT
ATOM      1  C   UNL     1      -0.640  -3.272  -1.576  0.00  0.00    +0.183 A 
ATOM      2  N   UNL     1      -0.726  -3.251  -2.887  0.00  0.00    -0.127 NA
ATOM      3  N   UNL     1      -0.671  -4.448  -3.350  0.00  0.00    -0.122 NA
ATOM      4  C   UNL     1      -0.548  -5.309  -2.364  0.00  0.00    +0.192 A 
ATOM      5  N   UNL     1      -0.519  -4.591  -1.201  0.00  0.00    -0.304 N 
ATOM      6  C   UNL     1      -0.388  -5.117   0.160  0.00  0.00    +0.153 C 
ENDROOT
BRANCH   1  10
ATOM      7  C   UNL     1      -0.737  -0.376   2.592  0.00  0.00    +0.067 C 
ATOM      8  C   UNL     1      -0.707  -0.812   1.150  0.00  0.00    +0.061 A 
ATOM      9  C   UNL     1      -0.692  -2.132   0.701  0.00  0.00    +0.055 A 
ATOM     10  C   UNL     1      -0.664  -2.105  -0.677  0.00  0.00    +0.106 A 
ATOM     11  N   UNL     1      -0.663  -0.792  -1.052  0.00  0.00    -0.263 N 
ATOM     12  N   UNL     1      -0.696  -0.015   0.112  0.00  0.00    -0.176 NA
ATOM     13  C   UNL     1      -0.638  -0.287  -2.427  0.00  0.00    +0.173 C 
ENDBRANCH   1  10
BRANCH   4  14
ATOM     14  S   UNL     1      -0.435  -7.061  -2.513  0.00  0.00    -0.077 S 
BRANCH  14  15
ATOM     15  C   UNL     1      -0.528  -7.355  -4.301  0.00  0.00    +0.172 C 
BRANCH  15  16
ATOM     16  C   UNL     1      -0.441  -8.835  -4.571  0.00  0.00    +0.221 C 
ATOM     17  O   UNL     1      -0.328  -9.614  -3.649  0.00  0.00    -0.275 OA
ATOM     18  N   UNL     1      -0.489  -9.293  -5.838  0.00  0.00    -0.329 N 
ATOM     19  H   UNL     1      -0.580  -8.669  -6.576  0.00  0.00    +0.145 HD
ATOM     20  H   UNL     1      -0.434 -10.245  -6.012  0.00  0.00    +0.145 HD
ENDBRANCH  15  16
ENDBRANCH  14  15
ENDBRANCH   4  14
TORSDOF 4
