REMARK  Name = ZINC20563493
REMARK  8 active torsions:
REMARK  status: ('A' for Active; 'I' for Inactive)
REMARK    1  A    between atoms: C_1  and  C_2
REMARK    2  A    between atoms: C_7  and  N_8
REMARK    3  A    between atoms: C_9  and  C_11
REMARK    4  A    between atoms: C_11  and  C_12
REMARK    5  A    between atoms: C_12  and  N_13
REMARK    6  A    between atoms: C_18  and  C_20
REMARK    7  A    between atoms: C_21  and  C_30
REMARK    8  A    between atoms: N_22  and  C_24
REMARK                            x       y       z     vdW  Elec       q    Type
REMARK                         _______ _______ _______ _____ _____    ______ ____
ROOT
ATOM      1  N   UNL     1      -0.889   1.019  -1.306  0.00  0.00    -0.227 N 
ATOM      2  C   UNL     1      -0.396   2.150  -1.853  0.00  0.00    +0.295 A 
ATOM      3  O   UNL     1       0.462   2.795  -1.278  0.00  0.00    -0.264 OA
ATOM      4  C   UNL     1      -0.910   2.584  -3.157  0.00  0.00    +0.161 A 
ATOM      5  C   UNL     1      -1.952   1.749  -3.784  0.00  0.00    +0.051 A 
ATOM      6  C   UNL     1      -2.397   0.552  -3.075  0.00  0.00    +0.070 A 
ATOM      7  N   UNL     1      -1.874   0.252  -1.924  0.00  0.00    -0.173 NA
ATOM      8  C   UNL     1      -3.460  -0.331  -3.675  0.00  0.00    +0.068 C 
ATOM      9  C   UNL     1      -2.239   2.385  -4.965  0.00  0.00    +0.052 A 
ATOM     10  N   UNL     1      -1.448   3.477  -5.023  0.00  0.00    -0.236 N 
ATOM     11  N   UNL     1      -0.695   3.577  -3.985  0.00  0.00    -0.161 NA
ATOM     12  C   UNL     1      -3.244   1.949  -6.000  0.00  0.00    +0.066 C 
ENDROOT
BRANCH  10  13
ATOM     13  C   UNL     1      -1.446   4.391  -6.084  0.00  0.00    +0.066 A 
ATOM     14  C   UNL     1      -0.245   4.880  -6.580  0.00  0.00    +0.028 A 
ATOM     15  C   UNL     1      -0.246   5.778  -7.630  0.00  0.00    +0.002 A 
ATOM     16  C   UNL     1      -1.443   6.198  -8.180  0.00  0.00    +0.000 A 
ATOM     17  C   UNL     1      -2.642   5.717  -7.685  0.00  0.00    +0.002 A 
ATOM     18  C   UNL     1      -2.647   4.815  -6.639  0.00  0.00    +0.028 A 
ENDBRANCH  10  13
BRANCH   1  19
ATOM     19  C   UNL     1      -0.371   0.583  -0.007  0.00  0.00    +0.157 C 
BRANCH  19  20
ATOM     20  C   UNL     1      -1.211   1.205   1.111  0.00  0.00    +0.119 C 
BRANCH  20  22
ATOM     21  N   UNL     1      -1.265   1.183   3.584  0.00  0.00    -0.285 N 
ATOM     22  C   UNL     1      -0.678   0.757   2.448  0.00  0.00    +0.219 C 
ATOM     23  O   UNL     1       0.278   0.014   2.501  0.00  0.00    -0.275 OA
ATOM     24  H   UNL     1      -2.169   1.808   3.535  0.00  0.00    +0.155 HD
BRANCH  21  31
ATOM     25  C   UNL     1      -1.666   2.953   5.775  0.00  0.00    +0.045 C 
ATOM     26  C   UNL     1      -0.896   1.665   5.921  0.00  0.00    -0.029 A 
ATOM     27  C   UNL     1      -0.366   1.312   7.147  0.00  0.00    +0.006 A 
ATOM     28  C   UNL     1       0.346   0.135   7.281  0.00  0.00    +0.020 A 
ATOM     29  C   UNL     1       0.523  -0.698   6.189  0.00  0.00    +0.043 A 
ATOM     30  C   UNL     1      -0.010  -0.353   4.962  0.00  0.00    +0.043 A 
ATOM     31  C   UNL     1      -0.725   0.830   4.825  0.00  0.00    +0.038 A 
ATOM     32 CL   UNL     1       1.417  -2.176   6.362  0.00  0.00    -0.083 Cl
ENDBRANCH  21  31
ENDBRANCH  20  22
ENDBRANCH  19  20
ENDBRANCH   1  19
TORSDOF 5
