REMARK  Name = ZINC09199848
REMARK  7 active torsions:
REMARK  status: ('A' for Active; 'I' for Inactive)
REMARK    1  A    between atoms: C_1  and  C_2
REMARK    2  A    between atoms: C_4  and  C_30
REMARK    3  A    between atoms: C_6  and  N_8
REMARK    4  A    between atoms: C_12  and  S_13
REMARK    5  A    between atoms: S_13  and  C_14
REMARK    6  A    between atoms: C_14  and  C_15
REMARK    7  A    between atoms: N_17  and  N_18
REMARK                            x       y       z     vdW  Elec       q    Type
REMARK                         _______ _______ _______ _____ _____    ______ ____
ROOT
ATOM      1  C   UNL     1      -5.510   2.971   3.973  0.00  0.00    +0.240 C 
ATOM      2  O   UNL     1      -4.686   3.791   4.321  0.00  0.00    -0.273 OA
ATOM      3  N   UNL     1      -6.690   2.884   4.618  0.00  0.00    -0.223 N 
ATOM      4  H   UNL     1      -7.348   2.229   4.340  0.00  0.00    +0.174 HD
ENDROOT
BRANCH   3   5
ATOM      5  N   UNL     1      -6.965   3.741   5.692  0.00  0.00    -0.137 N 
ATOM      6  C   UNL     1      -7.800   4.800   5.622  0.00  0.00    +0.263 C 
ATOM      7  O   UNL     1      -8.429   5.175   4.657  0.00  0.00    -0.271 OA
ATOM      8  C   UNL     1      -7.784   5.417   7.002  0.00  0.00    +0.114 C 
ATOM      9  C   UNL     1      -9.178   5.380   7.617  0.00  0.00    +0.035 C 
ATOM     10  C   UNL     1      -9.136   5.983   9.023  0.00  0.00    +0.003 C 
ATOM     11  C   UNL     1      -8.635   7.427   8.942  0.00  0.00    +0.000 C 
ATOM     12  C   UNL     1      -7.225   7.446   8.346  0.00  0.00    +0.003 C 
ATOM     13  C   UNL     1      -7.260   6.848   6.937  0.00  0.00    +0.035 C 
ATOM     14  N   UNL     1      -6.862   4.565   7.763  0.00  0.00    -0.284 N 
ATOM     15  C   UNL     1      -6.438   3.609   6.915  0.00  0.00    +0.326 C 
ATOM     16  O   UNL     1      -5.662   2.726   7.224  0.00  0.00    -0.251 OA
ATOM     17  H   UNL     1      -6.611   4.668   8.695  0.00  0.00    +0.151 HD
ENDBRANCH   3   5
BRANCH   1  18
ATOM     18  C   UNL     1      -5.213   2.049   2.818  0.00  0.00    +0.174 C 
BRANCH  18  19
ATOM     19  S   UNL     1      -3.563   2.409   2.167  0.00  0.00    -0.078 S 
BRANCH  19  24
ATOM     20  N   UNL     1      -2.429   1.039   0.019  0.00  0.00    -0.295 N 
ATOM     21  C   UNL     1      -2.776   0.012  -0.834  0.00  0.00    +0.113 A 
ATOM     22  C   UNL     1      -4.011  -0.386  -0.486  0.00  0.00    +0.131 A 
ATOM     23  N   UNL     1      -4.423   0.365   0.549  0.00  0.00    -0.230 NA
ATOM     24  C   UNL     1      -3.481   1.222   0.868  0.00  0.00    +0.174 A 
BRANCH  20  30
ATOM     25  C   UNL     1      -0.064   5.351   0.033  0.00  0.00    +0.044 C 
ATOM     26  C   UNL     1      -0.049   3.844   0.024  0.00  0.00    -0.048 A 
ATOM     27  C   UNL     1       1.156   3.166   0.009  0.00  0.00    +0.006 A 
ATOM     28  C   UNL     1       1.174   1.783   0.000  0.00  0.00    -0.048 A 
ATOM     29  C   UNL     1      -0.013   1.076   0.008  0.00  0.00    +0.029 A 
ATOM     30  C   UNL     1      -1.224   1.754   0.017  0.00  0.00    +0.049 A 
ATOM     31  C   UNL     1      -1.239   3.142   0.030  0.00  0.00    +0.029 A 
ATOM     32  C   UNL     1       2.489   1.048  -0.016  0.00  0.00    +0.044 C 
ENDBRANCH  20  30
ENDBRANCH  19  24
ENDBRANCH  18  19
ENDBRANCH   1  18
TORSDOF 5
