REMARK  Name = ZINC04680232
REMARK  7 active torsions:
REMARK  status: ('A' for Active; 'I' for Inactive)
REMARK    1  A    between atoms: C_1  and  C_2
REMARK    2  A    between atoms: C_2  and  C_3
REMARK    3  A    between atoms: C_2  and  C_4
REMARK    4  A    between atoms: N_6  and  C_7
REMARK    5  A    between atoms: C_11  and  C_13
REMARK    6  A    between atoms: N_15  and  C_16
REMARK    7  A    between atoms: C_19  and  N_23
REMARK                            x       y       z     vdW  Elec       q    Type
REMARK                         _______ _______ _______ _____ _____    ______ ____
ROOT
ATOM      1  C   UNL     1       2.409  -0.245   0.115  0.00  0.00    +0.248 C 
ATOM      2  O   UNL     1       1.371  -0.876   0.125  0.00  0.00    -0.270 OA
ATOM      3  N   UNL     1       2.380   1.099   0.028  0.00  0.00    -0.280 N 
ATOM      4  H   UNL     1       3.209   1.599  -0.047  0.00  0.00    +0.155 HD
ENDROOT
BRANCH   3   5
ATOM      5  C   UNL     1       1.155   1.775   0.045  0.00  0.00    +0.052 A 
ATOM      6  C   UNL     1       0.037   1.204  -0.549  0.00  0.00    +0.027 A 
ATOM      7  C   UNL     1      -1.169   1.876  -0.535  0.00  0.00    +0.034 A 
ATOM      8  C   UNL     1      -1.268   3.112   0.077  0.00  0.00    +0.128 A 
ATOM      9  C   UNL     1      -0.157   3.684   0.669  0.00  0.00    +0.054 A 
ATOM     10  C   UNL     1       1.055   3.020   0.655  0.00  0.00    +0.064 A 
ATOM     11 CL   UNL     1       2.449   3.739   1.399  0.00  0.00    -0.082 Cl
BRANCH   8  12
ATOM     12  N   UNL     1      -2.564   3.827   0.093  0.00  0.00    +0.056 N 
ATOM     13  O   UNL     1      -2.651   4.918   0.628  0.00  0.00    -0.126 OA
ATOM     14  O   UNL     1      -3.543   3.324  -0.428  0.00  0.00    -0.126 OA
ENDBRANCH   8  12
ENDBRANCH   3   5
BRANCH   1  19
ATOM     15  C   UNL     1       4.956  -3.000   0.369  0.00  0.00    +0.034 A 
ATOM     16  C   UNL     1       6.140  -2.272   0.357  0.00  0.00    +0.023 A 
ATOM     17  C   UNL     1       6.107  -0.893   0.267  0.00  0.00    +0.003 A 
ATOM     18  C   UNL     1       4.899  -0.230   0.189  0.00  0.00    +0.013 A 
ATOM     19  C   UNL     1       3.705  -0.952   0.200  0.00  0.00    +0.039 A 
ATOM     20  C   UNL     1       3.738  -2.344   0.296  0.00  0.00    +0.036 A 
BRANCH  15  23
ATOM     21  C   UNL     1       4.079  -5.140  -0.192  0.00  0.00    +0.220 C 
ATOM     22  O   UNL     1       3.172  -4.599  -0.789  0.00  0.00    -0.275 OA
ATOM     23  N   UNL     1       4.995  -4.396   0.460  0.00  0.00    -0.285 N 
ATOM     24  H   UNL     1       5.680  -4.829   0.993  0.00  0.00    +0.155 HD
BRANCH  21  26
ATOM     25  C   UNL     1       3.027  -7.240  -0.987  0.00  0.00    +0.017 C 
ATOM     26  C   UNL     1       4.180  -6.643  -0.178  0.00  0.00    +0.069 C 
ATOM     27  C   UNL     1       5.512  -7.070  -0.798  0.00  0.00    +0.017 C 
ENDBRANCH  21  26
ENDBRANCH  15  23
ENDBRANCH   1  19
TORSDOF 5
