REMARK  Name = ZINC06526823
REMARK  3 active torsions:
REMARK  status: ('A' for Active; 'I' for Inactive)
REMARK    1  A    between atoms: C_3  and  N_23
REMARK    2  A    between atoms: C_6  and  N_7
REMARK    3  A    between atoms: C_8  and  C_10
REMARK                            x       y       z     vdW  Elec       q    Type
REMARK                         _______ _______ _______ _____ _____    ______ ____
ROOT
ATOM      1  N   UNL     1      -2.112   5.794  -0.958  0.00  0.00    -0.285 N 
ATOM      2  C   UNL     1      -1.512   5.123   0.045  0.00  0.00    +0.223 C 
ATOM      3  O   UNL     1      -0.994   5.731   0.958  0.00  0.00    -0.275 OA
ATOM      4  H   UNL     1      -2.468   5.311  -1.720  0.00  0.00    +0.155 HD
ENDROOT
BRANCH   2   5
ATOM      5  C   UNL     1      -1.484   3.616   0.032  0.00  0.00    +0.048 C 
ATOM      6  C   UNL     1      -0.759   3.130  -1.225  0.00  0.00    +0.019 C 
ATOM      7  C   UNL     1      -0.731   1.600  -1.238  0.00  0.00    -0.009 C 
ATOM      8  C   UNL     1       0.006   1.093   0.004  0.00  0.00    +0.007 C 
ATOM      9  C   UNL     1      -0.719   1.579   1.261  0.00  0.00    -0.009 C 
ATOM     10  C   UNL     1      -0.748   3.109   1.274  0.00  0.00    +0.019 C 
ATOM     11  C   UNL     1      -2.152   1.042   1.262  0.00  0.00    +0.007 C 
ATOM     12  C   UNL     1      -2.888   1.550   0.021  0.00  0.00    -0.009 C 
ATOM     13  C   UNL     1      -2.163   1.064  -1.236  0.00  0.00    +0.007 C 
ATOM     14  C   UNL     1      -2.917   3.079   0.034  0.00  0.00    +0.019 C 
ENDBRANCH   2   5
BRANCH   1  20
ATOM     15  C   UNL     1      -3.346   7.818  -1.420  0.00  0.00    +0.025 A 
ATOM     16  C   UNL     1      -3.457   9.193  -1.357  0.00  0.00    +0.030 A 
ATOM     17  C   UNL     1      -2.442   9.946  -0.782  0.00  0.00    +0.069 A 
ATOM     18  C   UNL     1      -1.318   9.316  -0.264  0.00  0.00    +0.030 A 
ATOM     19  C   UNL     1      -1.209   7.942  -0.322  0.00  0.00    +0.025 A 
ATOM     20  C   UNL     1      -2.223   7.188  -0.898  0.00  0.00    +0.034 A 
BRANCH  17  21
ATOM     21  N   UNL     1      -2.553  11.344  -0.723  0.00  0.00    -0.200 N 
ATOM     22  C   UNL     1      -3.572  12.105  -1.177  0.00  0.00    +0.250 A 
ATOM     23  N   UNL     1      -3.270  13.351  -0.921  0.00  0.00    -0.116 NA
ATOM     24  N   UNL     1      -2.129  13.429  -0.337  0.00  0.00    -0.023 NA
ATOM     25  N   UNL     1      -1.630  12.251  -0.174  0.00  0.00    -0.039 NA
ENDBRANCH  17  21
ENDBRANCH   1  20
TORSDOF 3
