REMARK  Name = ZINC10256263
REMARK  3 active torsions:
REMARK  status: ('A' for Active; 'I' for Inactive)
REMARK    1  A    between atoms: C_1  and  N_2
REMARK    2  A    between atoms: C_3  and  C_5
REMARK    3  A    between atoms: N_17  and  C_18
REMARK                            x       y       z     vdW  Elec       q    Type
REMARK                         _______ _______ _______ _____ _____    ______ ____
ROOT
ATOM      1  C   UNL     1      -0.924   1.708   3.665  0.00  0.00    +0.173 C 
ATOM      2  C   UNL     1      -2.358   1.157   3.714  0.00  0.00    +0.069 C 
ATOM      3  C   UNL     1      -2.409   0.339   4.985  0.00  0.00    -0.024 A 
ATOM      4  C   UNL     1      -3.436  -0.390   5.553  0.00  0.00    +0.005 A 
ATOM      5  C   UNL     1      -3.234  -1.065   6.742  0.00  0.00    +0.000 A 
ATOM      6  C   UNL     1      -2.000  -1.009   7.363  0.00  0.00    +0.002 A 
ATOM      7  C   UNL     1      -0.972  -0.283   6.800  0.00  0.00    +0.024 A 
ATOM      8  C   UNL     1      -1.169   0.402   5.599  0.00  0.00    +0.042 A 
ATOM      9  N   UNL     1      -0.271   1.187   4.869  0.00  0.00    -0.243 N 
ATOM     10  C   UNL     1       1.008   1.428   5.220  0.00  0.00    +0.307 C 
ATOM     11  O   UNL     1       1.434   1.018   6.283  0.00  0.00    -0.252 OA
ATOM     12  N   UNL     1       1.814   2.123   4.394  0.00  0.00    -0.296 N 
ATOM     13  H   UNL     1       1.456   2.513   3.581  0.00  0.00    +0.151 HD
ENDROOT
BRANCH  12  14
ATOM     14  C   UNL     1       3.232   2.289   4.723  0.00  0.00    +0.074 C 
ATOM     15  C   UNL     1       3.401   3.488   5.658  0.00  0.00    +0.022 C 
ATOM     16  C   UNL     1       4.882   3.662   6.001  0.00  0.00    +0.002 C 
ATOM     17  C   UNL     1       5.679   3.900   4.717  0.00  0.00    +0.000 C 
ATOM     18  C   UNL     1       5.510   2.701   3.782  0.00  0.00    +0.002 C 
ATOM     19  C   UNL     1       4.029   2.528   3.438  0.00  0.00    +0.022 C 
ENDBRANCH  12  14
BRANCH   1  22
ATOM     20  C   UNL     1      -0.001   1.047   0.008  0.00  0.00    +0.128 C 
ATOM     21  N   UNL     1      -0.689   1.529   1.209  0.00  0.00    -0.317 N 
ATOM     22  C   UNL     1      -0.216   1.212   2.430  0.00  0.00    +0.234 C 
ATOM     23  O   UNL     1       0.780   0.528   2.535  0.00  0.00    -0.274 OA
ATOM     24  H   UNL     1      -1.486   2.076   1.124  0.00  0.00    +0.148 HD
ENDBRANCH   1  22
TORSDOF 2
