REMARK  Name = ZINC47191056
REMARK  7 active torsions:
REMARK  status: ('A' for Active; 'I' for Inactive)
REMARK    1  A    between atoms: C_1  and  C_2
REMARK    2  A    between atoms: C_2  and  C_4
REMARK    3  A    between atoms: C_2  and  O_21
REMARK    4  A    between atoms: N_6  and  C_7
REMARK    5  A    between atoms: C_11  and  C_13
REMARK    6  A    between atoms: C_13  and  C_20
REMARK    7  A    between atoms: O_21  and  C_22
REMARK                            x       y       z     vdW  Elec       q    Type
REMARK                         _______ _______ _______ _____ _____    ______ ____
ROOT
ATOM      1  C   UNL     1       1.438  -0.802   3.249  0.00  0.00    +0.034 A 
ATOM      2  C   UNL     1       2.772  -0.898   2.873  0.00  0.00    +0.023 A 
ATOM      3  C   UNL     1       3.740  -1.143   3.826  0.00  0.00    +0.002 A 
ATOM      4  C   UNL     1       3.384  -1.294   5.154  0.00  0.00    +0.006 A 
ATOM      5  C   UNL     1       2.057  -1.200   5.532  0.00  0.00    -0.014 A 
ATOM      6  C   UNL     1       1.084  -0.948   4.584  0.00  0.00    +0.029 A 
ENDROOT
BRANCH   5   7
ATOM      7  C   UNL     1       1.672  -1.365   6.979  0.00  0.00    +0.135 C 
ATOM      8  C   UNL     1       0.836  -2.615   7.170  0.00  0.00    +0.248 C 
ATOM      9  O   UNL     1      -0.244  -2.856   6.673  0.00  0.00    -0.273 OA
ATOM     10  N   UNL     1       1.542  -3.403   8.004  0.00  0.00    -0.238 N 
ATOM     11  C   UNL     1       2.697  -2.831   8.364  0.00  0.00    +0.307 C 
ATOM     12  O   UNL     1       3.503  -3.349   9.111  0.00  0.00    -0.252 OA
ATOM     13  N   UNL     1       2.865  -1.618   7.806  0.00  0.00    -0.282 N 
ATOM     14  C   UNL     1       0.922  -0.130   7.480  0.00  0.00    +0.047 C 
ATOM     15  H   UNL     1       1.249  -4.277   8.307  0.00  0.00    +0.159 HD
ATOM     16  H   UNL     1       3.624  -1.026   7.926  0.00  0.00    +0.152 HD
ENDBRANCH   5   7
BRANCH   1  19
ATOM     17  C   UNL     1       0.586  -1.057   1.042  0.00  0.00    +0.258 C 
ATOM     18  O   UNL     1       1.503  -1.809   0.787  0.00  0.00    -0.271 OA
ATOM     19  N   UNL     1       0.454  -0.554   2.286  0.00  0.00    -0.282 N 
ATOM     20  H   UNL     1      -0.323  -0.020   2.513  0.00  0.00    +0.155 HD
BRANCH  17  22
ATOM     21  C   UNL     1      -0.297   0.811  -0.328  0.00  0.00    +0.062 C 
ATOM     22  C   UNL     1      -0.405  -0.685  -0.030  0.00  0.00    +0.256 C 
BRANCH  22  23
ATOM     23  O   UNL     1      -0.124  -1.429  -1.217  0.00  0.00    -0.480 OA
BRANCH  23  24
ATOM     24  C   UNL     1      -1.154  -1.626  -2.081  0.00  0.00    +0.122 A 
ATOM     25  C   UNL     1      -0.984  -2.439  -3.192  0.00  0.00    +0.045 A 
ATOM     26  C   UNL     1      -2.034  -2.639  -4.068  0.00  0.00    +0.004 A 
ATOM     27  C   UNL     1      -3.253  -2.028  -3.838  0.00  0.00    +0.000 A 
ATOM     28  C   UNL     1      -3.425  -1.218  -2.731  0.00  0.00    +0.004 A 
ATOM     29  C   UNL     1      -2.381  -1.020  -1.849  0.00  0.00    +0.045 A 
ENDBRANCH  23  24
ENDBRANCH  22  23
ENDBRANCH  17  22
ENDBRANCH   1  19
TORSDOF 5
