REMARK  Name = ZINC25045984
REMARK  5 active torsions:
REMARK  status: ('A' for Active; 'I' for Inactive)
REMARK    1  A    between atoms: N_4  and  C_7
REMARK    2  A    between atoms: C_7  and  C_8
REMARK    3  A    between atoms: N_10  and  C_14
REMARK    4  A    between atoms: C_14  and  N_15
REMARK    5  A    between atoms: N_18  and  C_21
REMARK                            x       y       z     vdW  Elec       q    Type
REMARK                         _______ _______ _______ _____ _____    ______ ____
ROOT
ATOM      1  C   UNL     1      -1.161  -0.894   0.008  0.00  0.00    +0.073 C 
ENDROOT
BRANCH   1   2
ATOM      2  N   UNL     1      -1.564  -1.184  -1.374  0.00  0.00    +0.394 N 
ATOM      3  C   UNL     1      -2.058   0.027  -2.044  0.00  0.00    -0.061 C 
ATOM      4  C   UNL     1      -2.390  -0.299  -3.502  0.00  0.00    +0.066 C 
ATOM      5  N   UNL     1      -3.397  -1.369  -3.544  0.00  0.00    -0.301 NA
ATOM      6  C   UNL     1      -2.903  -2.580  -2.874  0.00  0.00    +0.066 C 
ATOM      7  C   UNL     1      -2.571  -2.254  -1.417  0.00  0.00    -0.061 C 
ATOM      8  H   UNL     1      -0.673  -1.534  -1.918  0.00  0.00    -0.079 HD
BRANCH   5   9
ATOM      9  C   UNL     1      -3.800  -1.659  -4.927  0.00  0.00    +0.079 C 
ATOM     10  C   UNL     1      -4.426  -0.405  -5.560  0.00  0.00    +0.043 C 
ATOM     11  C   UNL     1      -4.557  -0.595  -7.090  0.00  0.00    +0.167 C 
ATOM     12  S   UNL     1      -3.183  -1.757  -7.471  0.00  0.00    -0.029 S 
ATOM     13  O   UNL     1      -3.728  -2.968  -7.978  0.00  0.00    -0.174 OA
ATOM     14  O   UNL     1      -2.191  -1.070  -8.221  0.00  0.00    -0.174 OA
ATOM     15  C   UNL     1      -2.550  -2.052  -5.766  0.00  0.00    +0.184 C 
ENDBRANCH   5   9
ENDBRANCH   1   2
BRANCH   1  18
ATOM     16  C   UNL     1       1.207   1.812   0.000  0.00  0.00    +0.200 A 
ATOM     17  N   UNL     1      -0.017   1.399   0.010  0.00  0.00    -0.138 NA
ATOM     18  N   UNL     1       0.002  -0.004   0.002  0.00  0.00    -0.240 N 
ATOM     19  C   UNL     1       1.300  -0.375  -0.012  0.00  0.00    +0.265 A 
ATOM     20  S   UNL     1       1.898  -1.979  -0.028  0.00  0.00    +0.011 S 
ATOM     21  O   UNL     1       2.036   0.750  -0.013  0.00  0.00    -0.418 OA
BRANCH  16  22
ATOM     22  C   UNL     1       1.640   3.256   0.004  0.00  0.00    +0.021 C 
BRANCH  22  26
ATOM     23  C   UNL     1       1.392   5.448   3.667  0.00  0.00    -0.004 C 
ATOM     24  C   UNL     1       2.713   5.419   2.893  0.00  0.00    -0.019 C 
ATOM     25  C   UNL     1       2.438   5.036   1.437  0.00  0.00    -0.078 C 
ATOM     26  N   UNL     1       1.793   3.717   1.390  0.00  0.00    +0.386 N 
ATOM     27  C   UNL     1       0.500   3.733   2.086  0.00  0.00    -0.078 C 
ATOM     28  C   UNL     1       0.718   4.077   3.561  0.00  0.00    -0.019 C 
ATOM     29  H   UNL     1       2.448   3.006   1.915  0.00  0.00    -0.081 HD
ENDBRANCH  22  26
ENDBRANCH  16  22
ENDBRANCH   1  18
TORSDOF 5
