REMARK  Name = ZINC42414330
REMARK  1 active torsions:
REMARK  status: ('A' for Active; 'I' for Inactive)
REMARK    1  A    between atoms: C_8  and  C_10
REMARK                            x       y       z     vdW  Elec       q    Type
REMARK                         _______ _______ _______ _____ _____    ______ ____
ROOT
ATOM      1  C   UNL     1      -0.017   1.400   0.010  0.00  0.00    +0.064 A 
ATOM      2  C   UNL     1       1.264   1.832  -0.000  0.00  0.00    +0.107 A 
ATOM      3  N   UNL     1       2.067   0.748  -0.014  0.00  0.00    -0.283 N 
ATOM      4  H   UNL     1       3.037   0.757  -0.023  0.00  0.00    +0.188 HD
ATOM      5  N   UNL     1       1.255  -0.394  -0.012  0.00  0.00    -0.159 NA
ATOM      6  C   UNL     1       0.002  -0.004   0.002  0.00  0.00    +0.147 A 
ATOM      7  N   UNL     1      -1.120  -0.842   0.009  0.00  0.00    -0.264 N 
ATOM      8  C   UNL     1      -2.358  -0.310   0.024  0.00  0.00    +0.269 C 
ATOM      9  O   UNL     1      -2.501   0.897   0.032  0.00  0.00    -0.268 OA
ATOM     10  H   UNL     1      -1.006  -1.806   0.002  0.00  0.00    +0.157 HD
ENDROOT
BRANCH   8  11
ATOM     11  C   UNL     1      -3.544  -1.196   0.031  0.00  0.00    +0.145 A 
ATOM     12  C   UNL     1      -4.823  -0.639   0.041  0.00  0.00    +0.091 A 
ATOM     13  C   UNL     1      -5.925  -1.483   0.047  0.00  0.00    +0.081 A 
ATOM     14  C   UNL     1      -5.708  -2.855   0.043  0.00  0.00    +0.079 A 
ATOM     15  C   UNL     1      -4.407  -3.337   0.033  0.00  0.00    +0.133 A 
ATOM     16  N   UNL     1      -3.381  -2.514   0.022  0.00  0.00    -0.247 NA
ATOM     17 CL   UNL     1      -7.050  -3.955   0.050  0.00  0.00    -0.080 Cl
ATOM     18 CL   UNL     1      -7.537  -0.840   0.059  0.00  0.00    -0.080 Cl
ATOM     19 CL   UNL     1      -5.033   1.084   0.046  0.00  0.00    -0.080 Cl
ENDBRANCH   8  11
TORSDOF 1
