REMARK  Name = ZINC22635193
REMARK  8 active torsions:
REMARK  status: ('A' for Active; 'I' for Inactive)
REMARK    1  A    between atoms: C_1  and  C_2
REMARK    2  A    between atoms: C_2  and  C_3
REMARK    3  A    between atoms: C_2  and  N_4
REMARK    4  A    between atoms: C_12  and  O_28
REMARK    5  A    between atoms: C_14  and  C_17
REMARK    6  A    between atoms: C_20  and  O_26
REMARK    7  A    between atoms: C_21  and  N_23
REMARK    8  A    between atoms: O_26  and  C_27
REMARK                            x       y       z     vdW  Elec       q    Type
REMARK                         _______ _______ _______ _____ _____    ______ ____
ROOT
ATOM      1  N   UNL     1       3.250   1.039   6.925  0.00  0.00    +0.384 N 
ATOM      2  C   UNL     1       3.489  -0.325   6.433  0.00  0.00    -0.073 C 
ATOM      3  C   UNL     1       2.804  -0.522   5.078  0.00  0.00    +0.018 C 
ATOM      4  C   UNL     1       3.231   0.616   4.158  0.00  0.00    -0.027 A 
ATOM      5  C   UNL     1       3.772   1.742   4.683  0.00  0.00    -0.021 A 
ATOM      6  S   UNL     1       4.115   2.776   3.285  0.00  0.00    -0.080 S 
ATOM      7  C   UNL     1       3.557   1.738   2.044  0.00  0.00    +0.080 A 
ATOM      8  C   UNL     1       3.101   0.596   2.714  0.00  0.00    +0.067 A 
ATOM      9  C   UNL     1       2.534  -0.499   1.884  0.00  0.00    +0.220 C 
ATOM     10  N   UNL     1       2.313  -0.254   0.622  0.00  0.00    -0.223 NA
ATOM     11  C   UNL     1       2.490   1.045  -0.016  0.00  0.00    +0.224 C 
ATOM     12  N   UNL     1       3.506   1.859   0.676  0.00  0.00    -0.313 N 
ATOM     13  C   UNL     1       4.013   2.021   6.133  0.00  0.00    -0.035 C 
ATOM     14  H   UNL     1       4.171   2.517   0.097  0.00  0.00    +0.149 HD
ATOM     15  H   UNL     1       2.178   1.259   6.810  0.00  0.00    -0.081 HD
ENDROOT
BRANCH  11  16
ATOM     16  C   UNL     1       1.175   1.783   0.000  0.00  0.00    -0.003 A 
ATOM     17  C   UNL     1       1.160   3.166   0.008  0.00  0.00    +0.011 A 
ATOM     18  C   UNL     1      -0.043   3.844   0.023  0.00  0.00    +0.048 A 
ATOM     19  C   UNL     1      -1.237   3.137   0.030  0.00  0.00    +0.150 A 
ATOM     20  C   UNL     1      -1.219   1.750   0.017  0.00  0.00    +0.168 A 
ATOM     21  C   UNL     1      -0.013   1.076   0.008  0.00  0.00    +0.043 A 
BRANCH  20  22
ATOM     22  N   UNL     1      -2.490   0.992   0.019  0.00  0.00    +0.060 N 
ATOM     23  O   UNL     1      -2.474  -0.226   0.013  0.00  0.00    -0.126 OA
ATOM     24  O   UNL     1      -3.553   1.587   0.028  0.00  0.00    -0.126 OA
ENDBRANCH  20  22
BRANCH  19  25
ATOM     25  O   UNL     1      -2.422   3.802   0.044  0.00  0.00    -0.493 OA
ATOM     26  C   UNL     1      -2.364   5.230   0.051  0.00  0.00    +0.277 C 
ENDBRANCH  19  25
ENDBRANCH  11  16
BRANCH   1  28
ATOM     27  C   UNL     1       5.065   0.862   8.560  0.00  0.00    -0.014 C 
ATOM     28  C   UNL     1       3.576   1.148   8.354  0.00  0.00    -0.074 C 
ATOM     29  C   UNL     1       3.255   2.561   8.844  0.00  0.00    -0.014 C 
ENDBRANCH   1  28
BRANCH   9  30
ATOM     30  O   UNL     1       2.254  -1.709   2.420  0.00  0.00    -0.492 OA
ATOM     31  H   UNL     1       1.834  -2.506   1.789  0.00  0.00    +0.294 HD
ENDBRANCH   9  30
TORSDOF 5
