REMARK  Name = ZINC16474913
REMARK  7 active torsions:
REMARK  status: ('A' for Active; 'I' for Inactive)
REMARK    1  A    between atoms: C_1  and  C_2
REMARK    2  A    between atoms: C_5  and  C_31
REMARK    3  A    between atoms: N_8  and  C_10
REMARK    4  A    between atoms: C_10  and  C_11
REMARK    5  A    between atoms: N_13  and  C_14
REMARK    6  A    between atoms: C_18  and  S_20
REMARK    7  A    between atoms: S_20  and  N_23
REMARK                            x       y       z     vdW  Elec       q    Type
REMARK                         _______ _______ _______ _____ _____    ______ ____
ROOT
ATOM      1  C   UNL     1       1.972   0.462   6.034  0.00  0.00    +0.035 A 
ATOM      2  C   UNL     1       0.821   1.230   5.909  0.00  0.00    +0.023 A 
ATOM      3  C   UNL     1       0.195   1.720   7.038  0.00  0.00    +0.004 A 
ATOM      4  C   UNL     1       0.713   1.449   8.291  0.00  0.00    +0.029 A 
ATOM      5  C   UNL     1       1.859   0.685   8.418  0.00  0.00    +0.114 A 
ATOM      6  C   UNL     1       2.486   0.186   7.293  0.00  0.00    +0.052 A 
ENDROOT
BRANCH   1   9
ATOM      7  C   UNL     1       3.950  -0.173   4.873  0.00  0.00    +0.201 C 
ATOM      8  O   UNL     1       4.613   0.225   5.808  0.00  0.00    -0.278 OA
ATOM      9  N   UNL     1       2.609  -0.036   4.892  0.00  0.00    -0.287 N 
ATOM     10  H   UNL     1       2.086  -0.284   4.114  0.00  0.00    +0.155 HD
BRANCH   7  11
ATOM     11  C   UNL     1       4.625  -0.819   3.691  0.00  0.00    +0.019 C 
BRANCH  11  17
ATOM     12  C   UNL     1       8.320  -0.172   5.624  0.00  0.00    +0.005 C 
ATOM     13  C   UNL     1       8.089   0.504   4.271  0.00  0.00    -0.031 C 
ATOM     14  C   UNL     1       8.820  -0.279   3.176  0.00  0.00    +0.003 C 
ATOM     15  C   UNL     1       8.226  -1.687   3.086  0.00  0.00    -0.031 C 
ATOM     16  C   UNL     1       6.723  -1.584   2.819  0.00  0.00    -0.075 C 
ATOM     17  N   UNL     1       6.077  -0.848   3.913  0.00  0.00    +0.386 N 
ATOM     18  C   UNL     1       6.591   0.527   3.961  0.00  0.00    -0.075 C 
ATOM     19  C   UNL     1       8.897  -2.452   1.943  0.00  0.00    +0.005 C 
ATOM     20  H   UNL     1       6.273  -1.310   4.788  0.00  0.00    -0.081 HD
ENDBRANCH  11  17
ENDBRANCH   7  11
ENDBRANCH   1   9
BRANCH   5  21
ATOM     21  S   UNL     1       2.515   0.342  10.017  0.00  0.00    +0.100 S 
ATOM     22  O   UNL     1       3.897   0.065   9.838  0.00  0.00    -0.146 OA
ATOM     23  O   UNL     1       2.050   1.373  10.877  0.00  0.00    -0.146 OA
BRANCH  21  24
ATOM     24  N   UNL     1       1.815  -1.064  10.542  0.00  0.00    -0.118 NA
ATOM     25  C   UNL     1       2.125  -1.547  11.701  0.00  0.00    +0.117 C 
ATOM     26  C   UNL     1       3.131  -0.819  12.590  0.00  0.00    +0.073 C 
ATOM     27  C   UNL     1       2.366  -0.258  13.769  0.00  0.00    +0.008 C 
ATOM     28  C   UNL     1       2.250  -1.234  14.941  0.00  0.00    +0.002 C 
ATOM     29  C   UNL     1       1.925  -2.662  14.502  0.00  0.00    +0.019 C 
ATOM     30  C   UNL     1       0.868  -2.728  13.421  0.00  0.00    +0.102 C 
ATOM     31  N   UNL     1       1.569  -2.666  12.121  0.00  0.00    -0.331 N 
ATOM     32  H   UNL     1       1.620  -3.463  11.570  0.00  0.00    +0.147 HD
ENDBRANCH  21  24
ENDBRANCH   5  21
TORSDOF 5
