REMARK  Name = ZINC11998739
REMARK  6 active torsions:
REMARK  status: ('A' for Active; 'I' for Inactive)
REMARK    1  A    between atoms: C_3  and  C_15
REMARK    2  A    between atoms: C_5  and  N_7
REMARK    3  A    between atoms: N_17  and  C_18
REMARK    4  A    between atoms: C_18  and  C_19
REMARK    5  A    between atoms: C_19  and  C_21
REMARK    6  A    between atoms: C_19  and  N_58
REMARK                            x       y       z     vdW  Elec       q    Type
REMARK                         _______ _______ _______ _____ _____    ______ ____
ROOT
ATOM      1  C   UNL     1       4.970   0.642   1.329  0.00  0.00    +0.244 C 
ATOM      2  O   UNL     1       4.766   1.480   0.472  0.00  0.00    -0.270 OA
ATOM      3  N   UNL     1       4.559  -0.628   1.142  0.00  0.00    -0.313 N 
ATOM      4  H   UNL     1       4.722  -1.296   1.826  0.00  0.00    +0.149 HD
ENDROOT
BRANCH   1   7
ATOM      5  C   UNL     1       6.554   0.410   4.728  0.00  0.00    +0.003 A 
ATOM      6  C   UNL     1       5.906   0.057   3.562  0.00  0.00    +0.013 A 
ATOM      7  C   UNL     1       5.670   1.017   2.576  0.00  0.00    +0.039 A 
ATOM      8  C   UNL     1       6.096   2.330   2.772  0.00  0.00    +0.038 A 
ATOM      9  C   UNL     1       6.751   2.674   3.944  0.00  0.00    +0.060 A 
ATOM     10  C   UNL     1       6.981   1.711   4.920  0.00  0.00    +0.025 A 
BRANCH   9  11
ATOM     11  N   UNL     1       7.181   3.991   4.146  0.00  0.00    -0.144 N 
ATOM     12  C   UNL     1       7.469   4.883   3.186  0.00  0.00    +0.240 C 
ATOM     13  O   UNL     1       7.339   4.596   2.014  0.00  0.00    -0.274 OA
ATOM     14  C   UNL     1       7.949   6.242   3.594  0.00  0.00    +0.122 C 
ATOM     15  C   UNL     1       7.569   6.480   5.080  0.00  0.00    +0.198 C 
ATOM     16  S   UNL     1       7.433   4.729   5.627  0.00  0.00    +0.052 S 
ATOM     17  O   UNL     1       6.239   4.520   6.369  0.00  0.00    -0.155 OA
ATOM     18  O   UNL     1       8.686   4.244   6.090  0.00  0.00    -0.155 OA
ENDBRANCH   9  11
ENDBRANCH   1   7
BRANCH   3  19
ATOM     19  C   UNL     1       3.865  -0.999  -0.094  0.00  0.00    +0.094 C 
BRANCH  19  20
ATOM     20  C   UNL     1       3.630  -2.510  -0.113  0.00  0.00    -0.013 C 
BRANCH  20  27
ATOM     21  C   UNL     1       1.650  -2.018  -1.433  0.00  0.00    -0.078 C 
ATOM     22  C   UNL     1       0.687  -2.519  -2.475  0.00  0.00    -0.019 C 
ATOM     23  C   UNL     1      -0.361  -3.415  -1.783  0.00  0.00    -0.002 C 
ATOM     24  C   UNL     1       0.154  -4.750  -1.502  0.00  0.00    -0.002 C 
ATOM     25  C   UNL     1       1.370  -4.717  -0.552  0.00  0.00    -0.019 C 
ATOM     26  C   UNL     1       2.586  -4.325  -1.347  0.00  0.00    -0.078 C 
ATOM     27  N   UNL     1       2.895  -2.855  -1.340  0.00  0.00    +0.386 N 
ATOM     28  H   UNL     1       3.488  -2.645  -2.151  0.00  0.00    -0.081 HD
ENDBRANCH  20  27
BRANCH  20  29
ATOM     29  C   UNL     1       4.956  -3.225  -0.141  0.00  0.00    -0.022 A 
ATOM     30  C   UNL     1       5.635  -3.806   0.878  0.00  0.00    +0.009 A 
ATOM     31  C   UNL     1       6.849  -4.412   0.615  0.00  0.00    +0.008 A 
ATOM     32  C   UNL     1       7.325  -4.408  -0.654  0.00  0.00    +0.045 A 
ATOM     33  S   UNL     1       6.037  -3.534  -1.528  0.00  0.00    -0.103 S 
ENDBRANCH  20  29
ENDBRANCH  19  20
ENDBRANCH   3  19
TORSDOF 6
