REMARK  Name = ZINC66687123
REMARK  7 active torsions:
REMARK  status: ('A' for Active; 'I' for Inactive)
REMARK    1  A    between atoms: C_1  and  C_2
REMARK    2  A    between atoms: C_7  and  N_10
REMARK    3  A    between atoms: C_11  and  C_13
REMARK    4  A    between atoms: C_13  and  N_14
REMARK    5  A    between atoms: N_22  and  C_23
REMARK    6  A    between atoms: C_23  and  C_24
REMARK    7  A    between atoms: C_24  and  N_25
REMARK                            x       y       z     vdW  Elec       q    Type
REMARK                         _______ _______ _______ _____ _____    ______ ____
ROOT
ATOM      1  N   UNL     1       1.468  -5.606   4.456  0.00  0.00    -0.291 NA
ATOM      2  C   UNL     1       0.056  -5.600   4.859  0.00  0.00    +0.104 C 
ATOM      3  C   UNL     1      -0.434  -7.044   5.017  0.00  0.00    +0.124 C 
ATOM      4  N   UNL     1       0.473  -7.747   5.937  0.00  0.00    -0.283 N 
ATOM      5  C   UNL     1       1.919  -7.683   5.674  0.00  0.00    +0.124 C 
ATOM      6  C   UNL     1       2.316  -6.214   5.491  0.00  0.00    +0.104 C 
ATOM      7  C   UNL     1      -0.008  -8.432   6.993  0.00  0.00    +0.302 C 
ATOM      8  O   UNL     1      -1.196  -8.397   7.250  0.00  0.00    -0.253 OA
ATOM      9  N   UNL     1       0.827  -9.156   7.764  0.00  0.00    -0.301 N 
ATOM     10  H   UNL     1       1.783  -9.127   7.603  0.00  0.00    +0.150 HD
ENDROOT
BRANCH   1  11
ATOM     11  C   UNL     1       1.928  -4.250   4.128  0.00  0.00    +0.180 C 
BRANCH  11  13
ATOM     12  N   UNL     1       1.462  -2.526   2.417  0.00  0.00    -0.311 N 
ATOM     13  C   UNL     1       1.200  -3.755   2.905  0.00  0.00    +0.227 C 
ATOM     14  O   UNL     1       0.379  -4.462   2.360  0.00  0.00    -0.274 OA
ATOM     15  H   UNL     1       2.119  -1.961   2.852  0.00  0.00    +0.149 HD
BRANCH  12  21
ATOM     16  C   UNL     1      -0.036   1.518  -0.001  0.00  0.00    +0.007 C 
ATOM     17  C   UNL     1      -0.010  -0.012  -0.007  0.00  0.00    -0.012 C 
ATOM     18  C   UNL     1       0.710  -0.504  -1.264  0.00  0.00    +0.003 C 
ATOM     19  C   UNL     1       0.736  -2.034  -1.271  0.00  0.00    +0.002 C 
ATOM     20  C   UNL     1       1.475  -2.537  -0.029  0.00  0.00    +0.022 C 
ATOM     21  C   UNL     1       0.754  -2.045   1.228  0.00  0.00    +0.073 C 
ATOM     22  C   UNL     1       0.729  -0.515   1.234  0.00  0.00    +0.025 C 
ENDBRANCH  12  21
ENDBRANCH  11  13
ENDBRANCH   1  11
BRANCH   9  23
ATOM     23  C   UNL     1       0.291  -9.987   8.845  0.00  0.00    +0.087 C 
BRANCH  23  24
ATOM     24  C   UNL     1       1.442 -10.699   9.559  0.00  0.00    -0.060 C 
BRANCH  24  25
ATOM     25  N   UNL     1       0.904 -11.533  10.643  0.00  0.00    +0.381 N 
ATOM     26  C   UNL     1       0.280 -10.673  11.655  0.00  0.00    -0.079 C 
ATOM     27  C   UNL     1      -0.353 -11.540  12.746  0.00  0.00    -0.019 C 
ATOM     28  C   UNL     1       0.733 -12.398  13.402  0.00  0.00    -0.004 C 
ATOM     29  C   UNL     1       1.428 -13.236  12.325  0.00  0.00    -0.019 C 
ATOM     30  C   UNL     1       1.994 -12.306  11.249  0.00  0.00    -0.079 C 
ATOM     31  H   UNL     1       0.213 -12.165  10.268  0.00  0.00    -0.082 HD
ENDBRANCH  24  25
ENDBRANCH  23  24
ENDBRANCH   9  23
TORSDOF 6
