REMARK  Name = ZINC39711570
REMARK  9 active torsions:
REMARK  status: ('A' for Active; 'I' for Inactive)
REMARK    1  A    between atoms: C_1  and  C_2
REMARK    2  A    between atoms: C_2  and  C_3
REMARK    3  A    between atoms: C_2  and  C_4
REMARK    4  A    between atoms: C_2  and  N_5
REMARK    5  A    between atoms: C_6  and  C_11
REMARK    6  A    between atoms: C_11  and  C_13
REMARK    7  A    between atoms: C_11  and  N_28
REMARK    8  A    between atoms: C_31  and  C_34
REMARK    9  A    between atoms: C_34  and  C_35
REMARK                            x       y       z     vdW  Elec       q    Type
REMARK                         _______ _______ _______ _____ _____    ______ ____
ROOT
ATOM      1  C   UNL     1      -0.535  -0.896  -3.298  0.00  0.00    -0.010 C 
ENDROOT
BRANCH   1   2
ATOM      2  C   UNL     1      -1.706  -1.610  -2.620  0.00  0.00    +0.088 C 
ATOM      3  C   UNL     1      -2.845  -0.619  -2.492  0.00  0.00    -0.006 C 
ATOM      4  C   UNL     1      -3.319  -0.369  -1.242  0.00  0.00    -0.003 A 
ATOM      5  C   UNL     1      -4.418   0.577  -1.034  0.00  0.00    +0.059 A 
ATOM      6  C   UNL     1      -4.867   0.805   0.228  0.00  0.00    +0.167 A 
ATOM      7  C   UNL     1      -4.295   0.147   1.338  0.00  0.00    +0.168 A 
ATOM      8  C   UNL     1      -3.260  -0.752   1.194  0.00  0.00    +0.073 A 
ATOM      9  C   UNL     1      -2.735  -1.046  -0.070  0.00  0.00    +0.044 A 
ATOM     10  N   UNL     1      -1.731  -1.920  -0.187  0.00  0.00    -0.284 N 
ATOM     11  C   UNL     1      -1.188  -2.242  -1.347  0.00  0.00    +0.223 C 
ATOM     12  O   UNL     1      -0.275  -3.045  -1.391  0.00  0.00    -0.275 OA
ATOM     13  O   UNL     1      -4.943   0.569   2.462  0.00  0.00    -0.453 OA
ATOM     14  C   UNL     1      -5.618   1.784   2.089  0.00  0.00    +0.466 C 
ATOM     15  O   UNL     1      -5.862   1.628   0.680  0.00  0.00    -0.453 OA
ATOM     16  H   UNL     1      -1.385  -2.337   0.617  0.00  0.00    +0.155 HD
ENDBRANCH   1   2
BRANCH   1  17
ATOM     17  N   UNL     1      -0.992  -0.298  -4.560  0.00  0.00    +0.385 N 
ATOM     18  C   UNL     1      -1.686  -1.315  -5.359  0.00  0.00    -0.078 C 
ATOM     19  C   UNL     1      -2.234  -0.679  -6.638  0.00  0.00    -0.015 C 
ATOM     20  C   UNL     1      -1.074  -0.095  -7.449  0.00  0.00    -0.010 C 
ATOM     21  C   UNL     1      -0.312   0.910  -6.581  0.00  0.00    -0.015 C 
ATOM     22  C   UNL     1       0.165   0.215  -5.304  0.00  0.00    -0.078 C 
ATOM     23  H   UNL     1      -1.626   0.461  -4.362  0.00  0.00    -0.081 HD
BRANCH  20  24
ATOM     24  C   UNL     1      -1.622   0.613  -8.690  0.00  0.00    +0.038 C 
BRANCH  24  25
ATOM     25  C   UNL     1      -0.475   1.079  -9.549  0.00  0.00    -0.047 A 
ATOM     26  C   UNL     1       0.070   2.334  -9.352  0.00  0.00    +0.003 A 
ATOM     27  C   UNL     1       1.122   2.762 -10.141  0.00  0.00    +0.000 A 
ATOM     28  C   UNL     1       1.628   1.935 -11.126  0.00  0.00    +0.000 A 
ATOM     29  C   UNL     1       1.083   0.680 -11.322  0.00  0.00    +0.000 A 
ATOM     30  C   UNL     1       0.035   0.250 -10.531  0.00  0.00    +0.003 A 
ENDBRANCH  24  25
ENDBRANCH  20  24
ENDBRANCH   1  17
BRANCH   1  32
ATOM     31  N   UNL     1       1.228   0.796  -2.935  0.00  0.00    -0.183 NA
ATOM     32  C   UNL     1      -0.005   0.204  -2.376  0.00  0.00    +0.205 C 
ATOM     33  N   UNL     1      -0.954   1.323  -2.309  0.00  0.00    -0.152 NA
ATOM     34  N   UNL     1      -0.401   2.340  -2.734  0.00  0.00    -0.070 NA
ATOM     35  N   UNL     1       0.916   2.115  -3.133  0.00  0.00    -0.179 N 
ATOM     36  H   UNL     1       1.516   2.787  -3.494  0.00  0.00    +0.191 HD
BRANCH  31  38
ATOM     37  C   UNL     1       2.016   1.372  -0.689  0.00  0.00    +0.029 C 
ATOM     38  C   UNL     1       2.352   0.656  -1.999  0.00  0.00    +0.035 C 
ATOM     39  C   UNL     1       3.608   1.278  -2.612  0.00  0.00    +0.029 C 
ATOM     40  C   UNL     1       2.601  -0.828  -1.720  0.00  0.00    +0.029 C 
ENDBRANCH  31  38
ENDBRANCH   1  32
TORSDOF 6
