REMARK  Name = ZINC14116362
REMARK  5 active torsions:
REMARK  status: ('A' for Active; 'I' for Inactive)
REMARK    1  A    between atoms: C_1  and  N_2
REMARK    2  A    between atoms: C_6  and  N_9
REMARK    3  A    between atoms: C_10  and  C_12
REMARK    4  A    between atoms: C_13  and  C_14
REMARK    5  A    between atoms: N_22  and  C_25
REMARK                            x       y       z     vdW  Elec       q    Type
REMARK                         _______ _______ _______ _____ _____    ______ ____
ROOT
ATOM      1  C   UNL     1      -1.389   4.824   2.730  0.00  0.00    +0.155 C 
ATOM      2  N   UNL     1      -1.443   3.379   2.497  0.00  0.00    -0.281 N 
ATOM      3  C   UNL     1      -1.982   2.549   3.467  0.00  0.00    +0.150 A 
ATOM      4  C   UNL     1      -2.021   1.165   3.219  0.00  0.00    +0.084 A 
ATOM      5  C   UNL     1      -2.558   0.308   4.178  0.00  0.00    +0.041 A 
ATOM      6  C   UNL     1      -3.038   0.871   5.356  0.00  0.00    +0.053 A 
ATOM      7  C   UNL     1      -2.965   2.249   5.530  0.00  0.00    +0.136 A 
ATOM      8  N   UNL     1      -2.452   3.034   4.604  0.00  0.00    -0.235 NA
ATOM      9  C   UNL     1      -1.488   0.665   1.940  0.00  0.00    +0.266 A 
ATOM     10  O   UNL     1      -1.500  -0.523   1.680  0.00  0.00    -0.267 OA
ATOM     11  N   UNL     1      -0.985   1.562   1.064  0.00  0.00    -0.263 N 
ATOM     12  C   UNL     1      -0.964   2.873   1.348  0.00  0.00    +0.333 A 
ATOM     13  O   UNL     1      -0.496   3.638   0.528  0.00  0.00    -0.246 OA
ATOM     14  C   UNL     1      -0.447   1.094  -0.216  0.00  0.00    +0.157 C 
ENDROOT
BRANCH   6  15
ATOM     15  N   UNL     1      -3.589   0.059   6.355  0.00  0.00    -0.281 N 
ATOM     16  C   UNL     1      -3.117  -1.189   6.545  0.00  0.00    +0.241 C 
ATOM     17  O   UNL     1      -2.151  -1.577   5.916  0.00  0.00    -0.270 OA
ATOM     18  H   UNL     1      -4.310   0.396   6.910  0.00  0.00    +0.155 HD
BRANCH  16  19
ATOM     19  C   UNL     1      -3.768  -2.078   7.510  0.00  0.00    +0.068 C 
ATOM     20  C   UNL     1      -3.296  -3.326   7.700  0.00  0.00    +0.013 C 
BRANCH  20  21
ATOM     21  C   UNL     1      -3.950  -4.220   8.670  0.00  0.00    -0.025 A 
ATOM     22  C   UNL     1      -5.057  -3.776   9.399  0.00  0.00    +0.008 A 
ATOM     23  C   UNL     1      -5.668  -4.621  10.302  0.00  0.00    +0.001 A 
ATOM     24  C   UNL     1      -5.181  -5.902  10.495  0.00  0.00    +0.000 A 
ATOM     25  C   UNL     1      -4.082  -6.347   9.780  0.00  0.00    +0.001 A 
ATOM     26  C   UNL     1      -3.464  -5.516   8.870  0.00  0.00    +0.008 A 
ENDBRANCH  20  21
ENDBRANCH  16  19
ENDBRANCH   6  15
TORSDOF 3
