REMARK  Name = ZINC06624387
REMARK  6 active torsions:
REMARK  status: ('A' for Active; 'I' for Inactive)
REMARK    1  A    between atoms: C_1  and  C_2
REMARK    2  A    between atoms: C_9  and  C_31
REMARK    3  A    between atoms: C_10  and  C_17
REMARK    4  A    between atoms: C_15  and  C_16
REMARK    5  A    between atoms: C_17  and  C_18
REMARK    6  A    between atoms: C_18  and  N_20
REMARK                            x       y       z     vdW  Elec       q    Type
REMARK                         _______ _______ _______ _____ _____    ______ ____
ROOT
ATOM      1  C   UNL     1      -0.020   1.599   0.054  0.00  0.00    +0.047 C 
ATOM      2  C   UNL     1       0.000   0.092   0.030  0.00  0.00    -0.005 A 
ATOM      3  C   UNL     1       0.007  -0.694  -1.054  0.00  0.00    +0.199 A 
ATOM      4  O   UNL     1       0.026  -1.989  -0.690  0.00  0.00    -0.462 OA
ATOM      5  C   UNL     1       0.033  -2.113   0.653  0.00  0.00    +0.141 A 
ATOM      6  C   UNL     1       0.024  -0.809   1.190  0.00  0.00    +0.024 A 
ATOM      7  C   UNL     1       0.034  -0.614   2.564  0.00  0.00    +0.023 A 
ATOM      8  C   UNL     1       0.057  -1.722   3.411  0.00  0.00    +0.022 A 
ATOM      9  C   UNL     1       0.067  -1.553   4.868  0.00  0.00    -0.029 A 
ATOM     10  C   UNL     1       0.089  -2.667   5.643  0.00  0.00    +0.049 A 
ATOM     11  C   UNL     1       0.101  -3.942   5.038  0.00  0.00    +0.341 A 
ATOM     12  O   UNL     1       0.121  -4.933   5.746  0.00  0.00    -0.245 OA
ATOM     13  O   UNL     1       0.091  -4.092   3.705  0.00  0.00    -0.422 OA
ATOM     14  C   UNL     1       0.070  -3.026   2.874  0.00  0.00    +0.146 A 
ATOM     15  C   UNL     1       0.052  -3.210   1.502  0.00  0.00    +0.035 A 
ATOM     16  C   UNL     1       0.069  -4.603   0.929  0.00  0.00    +0.051 C 
ATOM     17  C   UNL     1       0.055  -0.179   5.487  0.00  0.00    +0.045 C 
ENDROOT
BRANCH  10  18
ATOM     18  C   UNL     1       0.101  -2.543   7.144  0.00  0.00    +0.140 C 
BRANCH  18  19
ATOM     19  C   UNL     1      -1.308  -2.643   7.668  0.00  0.00    +0.244 C 
ATOM     20  O   UNL     1      -2.234  -2.801   6.896  0.00  0.00    -0.273 OA
BRANCH  19  21
ATOM     21  N   UNL     1      -1.539  -2.560   8.975  0.00  0.00    -0.147 NA
ATOM     22  C   UNL     1      -2.790  -2.544   9.429  0.00  0.00    +0.198 A 
ATOM     23  N   UNL     1      -3.905  -2.722   8.673  0.00  0.00    -0.326 N 
ATOM     24  H   UNL     1      -3.923  -2.882   7.716  0.00  0.00    +0.169 HD
ATOM     25  C   UNL     1      -5.015  -2.637   9.506  0.00  0.00    +0.065 A 
ATOM     26  C   UNL     1      -6.380  -2.741   9.278  0.00  0.00    +0.028 A 
ATOM     27  C   UNL     1      -7.264  -2.609  10.331  0.00  0.00    +0.002 A 
ATOM     28  C   UNL     1      -6.796  -2.375  11.612  0.00  0.00    +0.002 A 
ATOM     29  C   UNL     1      -5.439  -2.270  11.849  0.00  0.00    +0.028 A 
ATOM     30  C   UNL     1      -4.542  -2.401  10.799  0.00  0.00    +0.065 A 
ATOM     31  N   UNL     1      -3.154  -2.352  10.724  0.00  0.00    -0.326 N 
ATOM     32  H   UNL     1      -2.550  -2.204  11.469  0.00  0.00    +0.169 HD
ENDBRANCH  19  21
ENDBRANCH  18  19
ENDBRANCH  10  18
TORSDOF 3
