REMARK  Name = ZINC57493074
REMARK  4 active torsions:
REMARK  status: ('A' for Active; 'I' for Inactive)
REMARK    1  A    between atoms: C_1  and  C_2
REMARK    2  A    between atoms: C_4  and  C_10
REMARK    3  A    between atoms: C_7  and  O_8
REMARK    4  A    between atoms: O_8  and  C_9
REMARK                            x       y       z     vdW  Elec       q    Type
REMARK                         _______ _______ _______ _____ _____    ______ ____
ROOT
ATOM      1  C   UNL     1      -0.018   1.503   0.010  0.00  0.00    +0.047 C 
ATOM      2  C   UNL     1       0.002  -0.004   0.002  0.00  0.00    -0.009 A 
ATOM      3  C   UNL     1       0.006  -0.689  -1.198  0.00  0.00    +0.011 A 
ATOM      4  C   UNL     1       0.024  -2.071  -1.206  0.00  0.00    -0.035 A 
ATOM      5  C   UNL     1       0.039  -2.772  -0.014  0.00  0.00    +0.008 A 
ATOM      6  C   UNL     1       0.036  -2.092   1.188  0.00  0.00    +0.046 A 
ATOM      7  C   UNL     1       0.023  -0.705   1.199  0.00  0.00    +0.123 A 
ENDROOT
BRANCH   4   8
ATOM      8  C   UNL     1       0.027  -2.816  -2.517  0.00  0.00    +0.106 C 
ATOM      9  C   UNL     1      -1.192  -3.764  -2.603  0.00  0.00    +0.036 C 
ATOM     10  C   UNL     1      -0.594  -4.978  -3.348  0.00  0.00    +0.105 C 
ATOM     11  N   UNL     1       0.845  -4.944  -3.061  0.00  0.00    -0.315 N 
ATOM     12  C   UNL     1       1.224  -3.737  -2.599  0.00  0.00    +0.221 C 
ATOM     13  O   UNL     1       2.357  -3.432  -2.293  0.00  0.00    -0.275 OA
ATOM     14  H   UNL     1       1.446  -5.694  -3.189  0.00  0.00    +0.149 HD
ENDBRANCH   4   8
BRANCH   7  15
ATOM     15  O   UNL     1       0.025  -0.033   2.381  0.00  0.00    -0.495 OA
ATOM     16  C   UNL     1       0.048  -0.820   3.574  0.00  0.00    +0.277 C 
ENDBRANCH   7  15
TORSDOF 2
