REMARK  Name = ZINC64045434
REMARK  6 active torsions:
REMARK  status: ('A' for Active; 'I' for Inactive)
REMARK    1  A    between atoms: C_1  and  C_2
REMARK    2  A    between atoms: C_2  and  C_15
REMARK    3  A    between atoms: N_5  and  C_9
REMARK    4  A    between atoms: C_9  and  C_10
REMARK    5  A    between atoms: N_18  and  C_21
REMARK    6  A    between atoms: C_21  and  C_22
REMARK                            x       y       z     vdW  Elec       q    Type
REMARK                         _______ _______ _______ _____ _____    ______ ____
ROOT
ATOM      1  C   UNL     1      -1.435  -0.895  -0.303  0.00  0.00    +0.018 C 
ATOM      2  C   UNL     1      -2.140  -0.426  -1.579  0.00  0.00    -0.013 C 
ATOM      3  C   UNL     1      -3.621  -0.802  -1.505  0.00  0.00    -0.078 C 
ATOM      4  N   UNL     1      -4.236  -0.157  -0.339  0.00  0.00    +0.381 N 
ATOM      5  C   UNL     1      -3.613  -0.656   0.893  0.00  0.00    -0.078 C 
ATOM      6  C   UNL     1      -2.132  -0.274   0.911  0.00  0.00    -0.013 C 
ATOM      7  H   UNL     1      -4.104   0.842  -0.400  0.00  0.00    -0.082 HD
ENDROOT
BRANCH   1   9
ATOM      8  C   UNL     1       0.129   1.073  -0.291  0.00  0.00    +0.042 C 
ATOM      9  C   UNL     1       0.029  -0.453  -0.335  0.00  0.00    +0.112 C 
ATOM     10  C   UNL     1       0.728  -0.997  -1.565  0.00  0.00    +0.247 C 
ATOM     11  O   UNL     1       0.453  -0.770  -2.724  0.00  0.00    -0.273 OA
ATOM     12  N   UNL     1       1.718  -1.786  -1.103  0.00  0.00    -0.220 N 
ATOM     13  C   UNL     1       1.742  -1.815   0.235  0.00  0.00    +0.310 C 
ATOM     14  O   UNL     1       2.545  -2.457   0.882  0.00  0.00    -0.252 OA
ATOM     15  N   UNL     1       0.777  -1.054   0.782  0.00  0.00    -0.285 N 
ATOM     16  H   UNL     1       0.607  -0.926   1.729  0.00  0.00    +0.151 HD
BRANCH  12  17
ATOM     17  C   UNL     1       2.652  -2.522  -1.958  0.00  0.00    +0.153 C 
BRANCH  17  18
ATOM     18  C   UNL     1       3.855  -1.661  -2.244  0.00  0.00    -0.023 A 
ATOM     19  C   UNL     1       3.872  -0.820  -3.341  0.00  0.00    +0.013 A 
ATOM     20  C   UNL     1       4.970  -0.059  -3.570  0.00  0.00    +0.045 A 
ATOM     21  S   UNL     1       6.030  -0.523  -2.211  0.00  0.00    -0.105 S 
ATOM     22  C   UNL     1       4.936  -1.695  -1.427  0.00  0.00    +0.050 A 
ENDBRANCH  17  18
ENDBRANCH  12  17
ENDBRANCH   1   9
BRANCH   4  23
ATOM     23  C   UNL     1      -5.674  -0.458  -0.316  0.00  0.00    -0.050 C 
BRANCH  23  24
ATOM     24  C   UNL     1      -6.351   0.197  -1.521  0.00  0.00    +0.086 C 
ATOM     25  C   UNL     1      -7.854   0.059  -1.413  0.00  0.00    +0.005 C 
ATOM     26  C   UNL     1      -8.344   1.319  -1.371  0.00  0.00    -0.004 A 
ATOM     27  C   UNL     1      -9.708   1.852  -1.270  0.00  0.00    +0.010 A 
ATOM     28  C   UNL     1      -9.888   3.192  -1.250  0.00  0.00    +0.001 A 
ATOM     29  C   UNL     1      -8.808   4.082  -1.322  0.00  0.00    +0.002 A 
ATOM     30  C   UNL     1      -7.527   3.668  -1.417  0.00  0.00    +0.026 A 
ATOM     31  C   UNL     1      -7.221   2.280  -1.446  0.00  0.00    +0.043 A 
ATOM     32  N   UNL     1      -6.079   1.639  -1.533  0.00  0.00    -0.380 N 
ATOM     33  H   UNL     1      -5.201   2.048  -1.595  0.00  0.00    +0.160 HD
ENDBRANCH  23  24
ENDBRANCH   4  23
TORSDOF 5
