REMARK  Name = ZINC09298316
REMARK  7 active torsions:
REMARK  status: ('A' for Active; 'I' for Inactive)
REMARK    1  A    between atoms: C_1  and  C_2
REMARK    2  A    between atoms: C_2  and  O_3
REMARK    3  A    between atoms: O_3  and  C_4
REMARK    4  A    between atoms: C_7  and  C_9
REMARK    5  A    between atoms: C_13  and  N_14
REMARK    6  A    between atoms: C_15  and  C_17
REMARK    7  A    between atoms: C_29  and  C_33
REMARK                            x       y       z     vdW  Elec       q    Type
REMARK                         _______ _______ _______ _____ _____    ______ ____
ROOT
ATOM      1  C   UNL     1      -1.237   2.311   0.032  0.00  0.00    +0.069 A 
ATOM      2  C   UNL     1      -0.019   1.520   0.010  0.00  0.00    -0.023 A 
ATOM      3  C   UNL     1       1.129   2.231   0.003  0.00  0.00    -0.004 A 
ATOM      4  S   UNL     1       0.613   3.924   0.018  0.00  0.00    -0.077 S 
ATOM      5  C   UNL     1      -1.104   3.693   0.033  0.00  0.00    +0.085 A 
ATOM      6  C   UNL     1       2.526   1.691  -0.014  0.00  0.00    +0.046 C 
ATOM      7  C   UNL     1       2.466   0.206  -0.400  0.00  0.00    -0.009 C 
ATOM      8  C   UNL     1       1.387  -0.480   0.443  0.00  0.00    +0.008 C 
ATOM      9  C   UNL     1       0.002  -0.004   0.002  0.00  0.00    +0.037 C 
ATOM     10  C   UNL     1       3.822  -0.450  -0.130  0.00  0.00    +0.008 C 
ENDROOT
BRANCH   1  14
ATOM     11  C   UNL     1      -4.394   0.803  -1.098  0.00  0.00    +0.407 C 
ATOM     12  O   UNL     1      -4.926   0.534  -0.040  0.00  0.00    -0.226 OA
ATOM     13  N   UNL     1      -3.180   1.389  -1.112  0.00  0.00    -0.217 N 
ATOM     14  C   UNL     1      -2.557   1.675   0.048  0.00  0.00    +0.255 C 
ATOM     15  O   UNL     1      -3.089   1.405   1.108  0.00  0.00    -0.270 OA
ATOM     16  H   UNL     1      -2.756   1.604  -1.957  0.00  0.00    +0.161 HD
BRANCH  11  17
ATOM     17  O   UNL     1      -5.017   0.517  -2.256  0.00  0.00    -0.450 OA
BRANCH  17  19
ATOM     18  C   UNL     1      -6.869  -0.359  -3.572  0.00  0.00    +0.048 C 
ATOM     19  C   UNL     1      -6.322  -0.113  -2.165  0.00  0.00    +0.230 C 
ENDBRANCH  17  19
ENDBRANCH  11  17
ENDBRANCH   1  14
BRANCH   5  20
ATOM     20  N   UNL     1      -2.102   4.655   0.047  0.00  0.00    -0.276 N 
ATOM     21  C   UNL     1      -1.778   5.963   0.052  0.00  0.00    +0.262 C 
ATOM     22  O   UNL     1      -0.612   6.299   0.043  0.00  0.00    -0.271 OA
ATOM     23  H   UNL     1      -3.034   4.386   0.054  0.00  0.00    +0.155 HD
BRANCH  21  24
ATOM     24  C   UNL     1      -2.863   7.008   0.067  0.00  0.00    +0.296 C 
ATOM     25  C   UNL     1      -3.662   6.945  -1.242  0.00  0.00    +0.283 C 
ATOM     26  O   UNL     1      -4.673   7.957  -1.199  0.00  0.00    -0.484 OA
ATOM     27  C   UNL     1      -4.284   9.194  -0.784  0.00  0.00    +0.162 A 
ATOM     28  C   UNL     1      -5.093  10.288  -1.052  0.00  0.00    +0.049 A 
ATOM     29  C   UNL     1      -4.713  11.549  -0.634  0.00  0.00    +0.004 A 
ATOM     30  C   UNL     1      -3.526  11.724   0.053  0.00  0.00    +0.004 A 
ATOM     31  C   UNL     1      -2.715  10.638   0.322  0.00  0.00    +0.049 A 
ATOM     32  C   UNL     1      -3.090   9.370  -0.096  0.00  0.00    +0.163 A 
ATOM     33  O   UNL     1      -2.277   8.311   0.173  0.00  0.00    -0.473 OA
ENDBRANCH  21  24
ENDBRANCH   5  20
TORSDOF 5
