REMARK  Name = ZINC47463915
REMARK  5 active torsions:
REMARK  status: ('A' for Active; 'I' for Inactive)
REMARK    1  A    between atoms: C_1  and  N_2
REMARK    2  A    between atoms: N_5  and  C_6
REMARK    3  A    between atoms: C_6  and  C_7
REMARK    4  A    between atoms: C_7  and  N_8
REMARK    5  A    between atoms: C_12  and  C_13
REMARK                            x       y       z     vdW  Elec       q    Type
REMARK                         _______ _______ _______ _____ _____    ______ ____
ROOT
ATOM      1  N   UNL     1      -2.908  -6.005   0.116  0.00  0.00    -0.227 N 
ATOM      2  C   UNL     1      -3.605  -6.021   1.240  0.00  0.00    +0.260 C 
ATOM      3  O   UNL     1      -3.116  -5.677   2.300  0.00  0.00    -0.269 OA
ATOM      4  C   UNL     1      -5.006  -6.477   1.143  0.00  0.00    +0.080 C 
ATOM      5  C   UNL     1      -5.946  -6.596   2.115  0.00  0.00    +0.028 C 
ATOM      6  S   UNL     1      -5.124  -6.829  -0.606  0.00  0.00    -0.026 S 
ATOM      7  C   UNL     1      -3.455  -6.383  -1.058  0.00  0.00    +0.286 C 
ATOM      8  O   UNL     1      -2.936  -6.413  -2.158  0.00  0.00    -0.262 OA
ENDROOT
BRANCH   5   9
ATOM      9  C   UNL     1      -7.235  -7.232   1.815  0.00  0.00    -0.020 A 
ATOM     10  C   UNL     1      -7.382  -8.012   0.662  0.00  0.00    +0.012 A 
ATOM     11  C   UNL     1      -8.592  -8.608   0.384  0.00  0.00    +0.050 A 
ATOM     12  C   UNL     1      -9.670  -8.439   1.245  0.00  0.00    +0.166 A 
ATOM     13  C   UNL     1      -9.531  -7.662   2.396  0.00  0.00    +0.167 A 
ATOM     14  C   UNL     1      -8.320  -7.066   2.685  0.00  0.00    +0.057 A 
ATOM     15  O   UNL     1     -10.723  -7.655   3.062  0.00  0.00    -0.453 OA
ATOM     16  C   UNL     1     -11.702  -8.093   2.102  0.00  0.00    +0.466 C 
ATOM     17  O   UNL     1     -10.947  -8.916   1.193  0.00  0.00    -0.453 OA
ENDBRANCH   5   9
BRANCH   1  18
ATOM     18  C   UNL     1      -1.512  -5.562   0.146  0.00  0.00    +0.136 C 
BRANCH  18  19
ATOM     19  C   UNL     1      -1.452  -4.051  -0.083  0.00  0.00    +0.125 C 
BRANCH  19  24
ATOM     20  C   UNL     1       1.850  -0.483  -0.400  0.00  0.00    +0.129 C 
ATOM     21  N   UNL     1       1.527  -1.898  -0.205  0.00  0.00    -0.302 N 
ATOM     22  C   UNL     1       0.242  -2.305  -0.233  0.00  0.00    +0.299 C 
ATOM     23  O   UNL     1      -0.648  -1.498  -0.419  0.00  0.00    -0.253 OA
ATOM     24  N   UNL     1      -0.055  -3.608  -0.053  0.00  0.00    -0.298 N 
ATOM     25  H   UNL     1       2.237  -2.542  -0.056  0.00  0.00    +0.150 HD
ATOM     26  H   UNL     1       0.655  -4.252   0.096  0.00  0.00    +0.150 HD
ENDBRANCH  19  24
ENDBRANCH  18  19
ENDBRANCH   1  18
TORSDOF 4
