REMARK  Name = ZINC34756651
REMARK  5 active torsions:
REMARK  status: ('A' for Active; 'I' for Inactive)
REMARK    1  A    between atoms: C_7  and  C_9
REMARK    2  A    between atoms: C_9  and  S_10
REMARK    3  A    between atoms: S_10  and  C_11
REMARK    4  A    between atoms: N_27  and  C_30
REMARK    5  A    between atoms: C_30  and  C_31
REMARK                            x       y       z     vdW  Elec       q    Type
REMARK                         _______ _______ _______ _____ _____    ______ ____
ROOT
ATOM      1  C   UNL     1       4.373  -4.609   1.803  0.00  0.00    +0.191 A 
ATOM      2  N   UNL     1       5.395  -5.447   1.938  0.00  0.00    -0.206 NA
ATOM      3  C   UNL     1       5.228  -6.757   1.986  0.00  0.00    +0.134 A 
ATOM      4  C   UNL     1       3.914  -7.295   1.891  0.00  0.00    +0.051 A 
ATOM      5  C   UNL     1       3.495  -8.699   1.918  0.00  0.00    -0.025 A 
ATOM      6  C   UNL     1       2.175  -8.945   1.808  0.00  0.00    -0.004 A 
ATOM      7  S   UNL     1       1.416  -7.349   1.664  0.00  0.00    -0.073 S 
ATOM      8  C   UNL     1       2.879  -6.349   1.750  0.00  0.00    +0.115 A 
ATOM      9  N   UNL     1       3.127  -5.054   1.715  0.00  0.00    -0.214 NA
ATOM     10  C   UNL     1       1.497 -10.282   1.808  0.00  0.00    +0.043 C 
ATOM     11  C   UNL     1       2.562 -11.364   1.577  0.00  0.00    +0.005 C 
ATOM     12  C   UNL     1       3.743 -11.098   2.515  0.00  0.00    +0.005 C 
ATOM     13  C   UNL     1       4.493  -9.845   2.063  0.00  0.00    +0.037 C 
ATOM     14  N   UNL     1       6.318  -7.596   2.127  0.00  0.00    -0.318 N 
ATOM     15  C   UNL     1       6.958  -8.209   0.953  0.00  0.00    +0.088 C 
ATOM     16  C   UNL     1       8.467  -7.955   1.034  0.00  0.00    -0.059 C 
ATOM     17  N   UNL     1       8.976  -8.440   2.323  0.00  0.00    +0.387 N 
ATOM     18  C   UNL     1       8.384  -7.661   3.419  0.00  0.00    -0.059 C 
ATOM     19  C   UNL     1       6.875  -7.897   3.455  0.00  0.00    +0.088 C 
ATOM     20  H   UNL     1       8.733  -9.413   2.434  0.00  0.00    -0.081 HD
ENDROOT
BRANCH   1  21
ATOM     21  S   UNL     1       4.678  -2.875   1.747  0.00  0.00    -0.077 S 
BRANCH  21  22
ATOM     22  C   UNL     1       3.027  -2.145   1.567  0.00  0.00    +0.173 C 
BRANCH  22  29
ATOM     23  C   UNL     1      -0.015   1.538   0.048  0.00  0.00    +0.003 C 
ATOM     24  C   UNL     1       1.420   2.071   0.052  0.00  0.00    +0.019 C 
ATOM     25  C   UNL     1       2.139   1.580   1.312  0.00  0.00    +0.108 C 
ATOM     26  N   UNL     1       2.040   0.115   1.373  0.00  0.00    -0.301 N 
ATOM     27  C   UNL     1       0.712  -0.507   1.286  0.00  0.00    +0.108 C 
ATOM     28  C   UNL     1       0.008   0.007   0.026  0.00  0.00    +0.019 C 
ATOM     29  C   UNL     1       3.146  -0.643   1.506  0.00  0.00    +0.226 C 
ATOM     30  O   UNL     1       4.237  -0.118   1.576  0.00  0.00    -0.275 OA
ENDBRANCH  22  29
ENDBRANCH  21  22
ENDBRANCH   1  21
BRANCH  17  31
ATOM     31  C   UNL     1      10.437  -8.297   2.356  0.00  0.00    +0.019 C 
BRANCH  31  32
ATOM     32  C   UNL     1      10.973  -8.906   3.626  0.00  0.00    +0.199 C 
ATOM     33  O   UNL     1      10.212  -9.409   4.425  0.00  0.00    -0.278 OA
ATOM     34  N   UNL     1      12.298  -8.890   3.874  0.00  0.00    -0.300 N 
ATOM     35  C   UNL     1      13.645  -8.509   3.444  0.00  0.00    +0.126 C 
ATOM     36  C   UNL     1      13.406  -9.238   4.767  0.00  0.00    +0.126 C 
ENDBRANCH  31  32
ENDBRANCH  17  31
TORSDOF 5
