REMARK  Name = ZINC43128512
REMARK  6 active torsions:
REMARK  status: ('A' for Active; 'I' for Inactive)
REMARK    1  A    between atoms: C_1  and  C_2
REMARK    2  A    between atoms: C_2  and  C_3
REMARK    3  A    between atoms: C_2  and  C_4
REMARK    4  A    between atoms: C_2  and  N_5
REMARK    5  A    between atoms: C_6  and  C_8
REMARK    6  A    between atoms: C_8  and  N_9
REMARK                            x       y       z     vdW  Elec       q    Type
REMARK                         _______ _______ _______ _____ _____    ______ ____
ROOT
ATOM      1  N   UNL     1       4.051  -0.111  -2.677  0.00  0.00    -0.291 N 
ATOM      2  C   UNL     1       4.876  -0.420  -3.698  0.00  0.00    +0.306 C 
ATOM      3  O   UNL     1       4.479  -1.119  -4.610  0.00  0.00    -0.252 OA
ATOM      4  N   UNL     1       6.140   0.046  -3.707  0.00  0.00    -0.247 N 
ATOM      5  C   UNL     1       6.991  -0.272  -4.760  0.00  0.00    +0.189 A 
ATOM      6  N   UNL     1       6.751  -1.002  -5.832  0.00  0.00    -0.126 NA
ATOM      7  N   UNL     1       7.634  -1.205  -6.713  0.00  0.00    -0.148 NA
ATOM      8  C   UNL     1       8.829  -0.673  -6.558  0.00  0.00    +0.183 A 
ATOM      9  S   UNL     1       8.597   0.180  -5.004  0.00  0.00    -0.039 S 
ATOM     10  H   UNL     1       4.368   0.447  -1.950  0.00  0.00    +0.151 HD
ATOM     11  H   UNL     1       6.457   0.605  -2.980  0.00  0.00    +0.158 HD
ENDROOT
BRANCH   1  12
ATOM     12  C   UNL     1       2.677  -0.618  -2.667  0.00  0.00    +0.201 C 
BRANCH  12  14
ATOM     13  N   UNL     1       0.688  -0.476  -1.203  0.00  0.00    -0.309 N 
ATOM     14  C   UNL     1       1.972  -0.132  -1.427  0.00  0.00    +0.231 C 
ATOM     15  O   UNL     1       2.559   0.569  -0.630  0.00  0.00    -0.274 OA
ATOM     16  H   UNL     1       0.218  -1.037  -1.840  0.00  0.00    +0.149 HD
BRANCH  13  18
ATOM     17  C   UNL     1      -0.019   1.526   0.010  0.00  0.00    +0.031 C 
ATOM     18  C   UNL     1       0.002  -0.004   0.002  0.00  0.00    +0.026 C 
ATOM     19  C   UNL     1       0.742  -0.511   1.242  0.00  0.00    +0.031 C 
ATOM     20  C   UNL     1      -1.433  -0.534   0.013  0.00  0.00    +0.031 C 
ENDBRANCH  13  18
ENDBRANCH  12  14
ENDBRANCH   1  12
TORSDOF 3
