REMARK  Name = ZINC29068117
REMARK  9 active torsions:
REMARK  status: ('A' for Active; 'I' for Inactive)
REMARK    1  A    between atoms: C_1  and  C_2
REMARK    2  A    between atoms: C_5  and  N_8
REMARK    3  A    between atoms: N_8  and  C_9
REMARK    4  A    between atoms: C_12  and  C_18
REMARK    5  A    between atoms: C_14  and  N_15
REMARK    6  A    between atoms: N_20  and  C_21
REMARK    7  A    between atoms: C_21  and  C_22
REMARK    8  A    between atoms: C_22  and  O_24
REMARK    9  A    between atoms: O_24  and  C_25
REMARK                            x       y       z     vdW  Elec       q    Type
REMARK                         _______ _______ _______ _____ _____    ______ ____
ROOT
ATOM      1  C   UNL     1      -3.742   3.240   0.092  0.00  0.00    +0.058 A 
ATOM      2  C   UNL     1      -2.576   3.966   0.319  0.00  0.00    +0.026 A 
ATOM      3  C   UNL     1      -1.352   3.341   0.255  0.00  0.00    +0.015 A 
ATOM      4  C   UNL     1      -1.280   1.976  -0.036  0.00  0.00    +0.039 A 
ATOM      5  C   UNL     1      -2.453   1.251  -0.268  0.00  0.00    +0.047 A 
ATOM      6  C   UNL     1      -3.674   1.881  -0.198  0.00  0.00    +0.148 A 
ENDROOT
BRANCH   4   7
ATOM      7  C   UNL     1       0.031   1.302  -0.105  0.00  0.00    +0.245 C 
ATOM      8  O   UNL     1       0.092   0.115  -0.359  0.00  0.00    -0.270 OA
ATOM      9  N   UNL     1       1.161   2.005   0.107  0.00  0.00    -0.301 N 
ATOM     10  H   UNL     1       1.106   3.079   0.337  0.00  0.00    +0.150 HD
BRANCH   9  11
ATOM     11  C   UNL     1       2.463   1.338   0.033  0.00  0.00    +0.225 C 
BRANCH  11  12
ATOM     12  C   UNL     1       3.557   2.338   0.308  0.00  0.00    +0.324 C 
ATOM     13  O   UNL     1       3.277   3.490   0.542  0.00  0.00    -0.249 OA
BRANCH  12  14
ATOM     14  O   UNL     1       4.841   1.949   0.293  0.00  0.00    -0.467 OA
ATOM     15  C   UNL     1       5.841   2.965   0.567  0.00  0.00    +0.280 C 
ENDBRANCH  12  14
ENDBRANCH  11  12
ENDBRANCH   9  11
ENDBRANCH   4   7
BRANCH   6  16
ATOM     16  N   UNL     1      -4.917   1.113  -0.437  0.00  0.00    +0.058 N 
ATOM     17  O   UNL     1      -5.011  -0.033  -0.036  0.00  0.00    -0.126 OA
ATOM     18  O   UNL     1      -5.845   1.627  -1.035  0.00  0.00    -0.126 OA
ENDBRANCH   6  16
BRANCH   1  19
ATOM     19  N   UNL     1      -4.978   3.875   0.157  0.00  0.00    -0.339 N 
ATOM     20  H   UNL     1      -5.904   3.286   0.077  0.00  0.00    +0.146 HD
BRANCH  19  25
ATOM     21  C   UNL     1      -8.612   4.868   2.742  0.00  0.00    +0.007 C 
ATOM     22  C   UNL     1      -7.447   5.527   2.000  0.00  0.00    -0.014 C 
ATOM     23  C   UNL     1      -7.535   5.188   0.510  0.00  0.00    +0.005 C 
ATOM     24  C   UNL     1      -6.371   5.847  -0.232  0.00  0.00    +0.022 C 
ATOM     25  C   UNL     1      -5.047   5.328   0.332  0.00  0.00    +0.070 C 
ATOM     26  C   UNL     1      -4.959   5.667   1.821  0.00  0.00    +0.022 C 
ATOM     27  C   UNL     1      -6.124   5.008   2.564  0.00  0.00    +0.005 C 
ENDBRANCH  19  25
ENDBRANCH   1  19
TORSDOF 7
