REMARK  Name = ZINC38926315
REMARK  5 active torsions:
REMARK  status: ('A' for Active; 'I' for Inactive)
REMARK    1  A    between atoms: C_3  and  N_25
REMARK    2  A    between atoms: C_6  and  C_7
REMARK    3  A    between atoms: N_8  and  N_9
REMARK    4  A    between atoms: C_10  and  C_12
REMARK    5  A    between atoms: C_15  and  C_18
REMARK                            x       y       z     vdW  Elec       q    Type
REMARK                         _______ _______ _______ _____ _____    ______ ____
ROOT
ATOM      1  N   UNL     1      -2.443  -2.780   0.011  0.00  0.00    -0.205 N 
ATOM      2  C   UNL     1      -2.422  -4.127   0.004  0.00  0.00    +0.263 C 
ATOM      3  O   UNL     1      -1.361  -4.717  -0.010  0.00  0.00    -0.271 OA
ATOM      4  H   UNL     1      -3.291  -2.309   0.022  0.00  0.00    +0.177 HD
ENDROOT
BRANCH   2   5
ATOM      5  C   UNL     1      -3.714  -4.902   0.013  0.00  0.00    +0.240 C 
ATOM      6  C   UNL     1      -4.258  -5.023   1.425  0.00  0.00    +0.041 C 
ATOM      7  C   UNL     1      -4.272  -6.350   1.653  0.00  0.00    +0.092 C 
ATOM      8  N   UNL     1      -3.811  -7.023   0.566  0.00  0.00    -0.153 NA
ATOM      9  N   UNL     1      -3.484  -6.301  -0.383  0.00  0.00    -0.170 NA
BRANCH   7  10
ATOM     10  C   UNL     1      -4.727  -6.988   2.913  0.00  0.00    +0.002 A 
ATOM     11  C   UNL     1      -5.187  -6.202   3.968  0.00  0.00    +0.011 A 
ATOM     12  C   UNL     1      -5.609  -6.799   5.138  0.00  0.00    +0.020 A 
ATOM     13  C   UNL     1      -5.575  -8.177   5.266  0.00  0.00    +0.041 A 
ATOM     14  C   UNL     1      -5.118  -8.963   4.221  0.00  0.00    +0.020 A 
ATOM     15  C   UNL     1      -4.700  -8.375   3.044  0.00  0.00    +0.011 A 
ATOM     16 CL   UNL     1      -6.106  -8.923   6.741  0.00  0.00    -0.084 Cl
ENDBRANCH   7  10
ENDBRANCH   2   5
BRANCH   1  18
ATOM     17  C   UNL     1      -1.263  -0.762   0.011  0.00  0.00    +0.138 C 
ATOM     18  N   UNL     1      -1.242  -2.060   0.003  0.00  0.00    -0.188 NA
BRANCH  17  24
ATOM     19  C   UNL     1      -0.017   1.393   0.010  0.00  0.00    +0.012 A 
ATOM     20  C   UNL     1       1.170   2.095   0.002  0.00  0.00    +0.033 A 
ATOM     21  C   UNL     1       2.378   1.420  -0.013  0.00  0.00    +0.126 A 
ATOM     22  C   UNL     1       2.404   0.036  -0.021  0.00  0.00    +0.033 A 
ATOM     23  C   UNL     1       1.225  -0.679  -0.013  0.00  0.00    +0.012 A 
ATOM     24  C   UNL     1       0.002  -0.004   0.002  0.00  0.00    -0.005 A 
BRANCH  21  25
ATOM     25  N   UNL     1       3.647   2.181  -0.022  0.00  0.00    +0.056 N 
ATOM     26  O   UNL     1       3.628   3.389  -0.016  0.00  0.00    -0.126 OA
ATOM     27  O   UNL     1       4.704   1.593  -0.036  0.00  0.00    -0.126 OA
ENDBRANCH  21  25
ENDBRANCH  17  24
ENDBRANCH   1  18
TORSDOF 5
