REMARK  Name = ZINC04556410
REMARK  7 active torsions:
REMARK  status: ('A' for Active; 'I' for Inactive)
REMARK    1  A    between atoms: C_1  and  C_2
REMARK    2  A    between atoms: C_2  and  N_55
REMARK    3  A    between atoms: C_10  and  O_29
REMARK    4  A    between atoms: C_12  and  C_15
REMARK    5  A    between atoms: C_19  and  O_21
REMARK    6  A    between atoms: O_21  and  C_22
REMARK    7  A    between atoms: C_22  and  C_23
REMARK                            x       y       z     vdW  Elec       q    Type
REMARK                         _______ _______ _______ _____ _____    ______ ____
ROOT
ATOM      1  C   UNL     1      10.160   3.156  -5.305  0.00  0.00    -0.074 C 
ATOM      2  C   UNL     1       9.254   2.038  -5.828  0.00  0.00    +0.018 C 
ATOM      3  C   UNL     1       9.721   0.722  -5.218  0.00  0.00    -0.027 A 
ATOM      4  C   UNL     1      10.959   0.630  -4.674  0.00  0.00    -0.021 A 
ATOM      5  S   UNL     1      11.079  -1.041  -4.097  0.00  0.00    -0.080 S 
ATOM      6  C   UNL     1       9.531  -1.597  -4.568  0.00  0.00    +0.080 A 
ATOM      7  C   UNL     1       8.921  -0.487  -5.167  0.00  0.00    +0.067 A 
ATOM      8  C   UNL     1       7.535  -0.663  -5.673  0.00  0.00    +0.220 C 
ATOM      9  N   UNL     1       6.907  -1.761  -5.357  0.00  0.00    -0.223 NA
ATOM     10  C   UNL     1       7.425  -2.786  -4.460  0.00  0.00    +0.224 C 
ATOM     11  N   UNL     1       8.899  -2.812  -4.455  0.00  0.00    -0.313 N 
ATOM     12  C   UNL     1      11.979   1.721  -4.596  0.00  0.00    -0.035 C 
ATOM     13  H   UNL     1       9.396  -3.642  -4.376  0.00  0.00    +0.149 HD
ATOM     14  N   UNL     1      11.573   2.792  -5.539  0.00  0.00    +0.383 N 
ATOM     15  H   UNL     1      11.674   2.446  -6.500  0.00  0.00    -0.081 HD
ENDROOT
BRANCH  10  16
ATOM     16  C   UNL     1       6.934  -2.511  -3.062  0.00  0.00    -0.002 A 
ATOM     17  C   UNL     1       7.678  -2.927  -1.974  0.00  0.00    +0.007 A 
ATOM     18  C   UNL     1       7.230  -2.676  -0.690  0.00  0.00    +0.004 A 
ATOM     19  C   UNL     1       6.037  -2.008  -0.492  0.00  0.00    +0.045 A 
ATOM     20  C   UNL     1       5.288  -1.590  -1.582  0.00  0.00    +0.121 A 
ATOM     21  C   UNL     1       5.737  -1.848  -2.869  0.00  0.00    +0.053 A 
BRANCH  20  22
ATOM     22  O   UNL     1       4.114  -0.933  -1.389  0.00  0.00    -0.487 OA
BRANCH  22  23
ATOM     23  C   UNL     1       3.711  -0.707  -0.037  0.00  0.00    +0.264 C 
BRANCH  23  24
ATOM     24  C   UNL     1       2.396   0.029  -0.021  0.00  0.00    -0.010 A 
ATOM     25  C   UNL     1       1.208  -0.679  -0.014  0.00  0.00    +0.007 A 
ATOM     26  C   UNL     1       0.002  -0.004   0.002  0.00  0.00    +0.000 A 
ATOM     27  C   UNL     1      -0.017   1.378   0.010  0.00  0.00    +0.000 A 
ATOM     28  C   UNL     1       1.171   2.086   0.002  0.00  0.00    +0.000 A 
ATOM     29  C   UNL     1       2.377   1.411  -0.014  0.00  0.00    +0.007 A 
ENDBRANCH  23  24
ENDBRANCH  22  23
ENDBRANCH  20  22
ENDBRANCH  10  16
BRANCH  14  31
ATOM     30  C   UNL     1      12.233   4.584  -3.970  0.00  0.00    -0.017 C 
ATOM     31  C   UNL     1      12.438   3.978  -5.360  0.00  0.00    -0.082 C 
ENDBRANCH  14  31
BRANCH   8  32
ATOM     32  O   UNL     1       6.945   0.285  -6.438  0.00  0.00    -0.492 OA
ATOM     33  H   UNL     1       6.044   0.065  -6.710  0.00  0.00    +0.294 HD
ENDBRANCH   8  32
TORSDOF 6
