REMARK  Name = ZINC54069617
REMARK  5 active torsions:
REMARK  status: ('A' for Active; 'I' for Inactive)
REMARK    1  A    between atoms: C_1  and  C_2
REMARK    2  A    between atoms: C_2  and  C_4
REMARK    3  A    between atoms: C_2  and  N_14
REMARK    4  A    between atoms: N_17  and  N_18
REMARK    5  A    between atoms: C_19  and  C_21
REMARK                            x       y       z     vdW  Elec       q    Type
REMARK                         _______ _______ _______ _____ _____    ______ ____
ROOT
ATOM      1  N   UNL     1       0.591  -0.609  -1.195  0.00  0.00    -0.292 N 
ATOM      2  C   UNL     1      -0.113  -0.654  -2.343  0.00  0.00    +0.316 C 
ATOM      3  O   UNL     1      -1.237  -0.194  -2.386  0.00  0.00    -0.251 OA
ATOM      4  N   UNL     1       0.429  -1.211  -3.445  0.00  0.00    -0.218 N 
ATOM      5  H   UNL     1       1.488  -0.976  -1.161  0.00  0.00    +0.151 HD
ATOM      6  H   UNL     1      -0.077  -1.244  -4.271  0.00  0.00    +0.174 HD
ENDROOT
BRANCH   4   7
ATOM      7  N   UNL     1       1.725  -1.741  -3.396  0.00  0.00    -0.233 N 
ATOM      8  C   UNL     1       2.267  -2.298  -4.497  0.00  0.00    +0.234 C 
ATOM      9  O   UNL     1       1.633  -2.339  -5.531  0.00  0.00    -0.274 OA
ATOM     10  H   UNL     1       2.232  -1.708  -2.570  0.00  0.00    +0.173 HD
BRANCH   8  11
ATOM     11  C   UNL     1       3.661  -2.868  -4.445  0.00  0.00    +0.099 C 
ATOM     12  C   UNL     1       3.711  -4.000  -3.405  0.00  0.00    +0.037 C 
ATOM     13  C   UNL     1       5.049  -4.771  -3.591  0.00  0.00    +0.166 C 
ATOM     14  S   UNL     1       5.152  -4.827  -5.430  0.00  0.00    -0.030 S 
ATOM     15  O   UNL     1       4.557  -6.032  -5.890  0.00  0.00    -0.174 OA
ATOM     16  O   UNL     1       6.478  -4.505  -5.828  0.00  0.00    -0.174 OA
ATOM     17  C   UNL     1       4.043  -3.419  -5.840  0.00  0.00    +0.178 C 
ENDBRANCH   8  11
ENDBRANCH   4   7
BRANCH   1  19
ATOM     18  C   UNL     1       0.268   1.503  -0.004  0.00  0.00    +0.033 C 
ATOM     19  C   UNL     1       0.002  -0.004   0.002  0.00  0.00    +0.102 C 
BRANCH  19  20
ATOM     20  C   UNL     1       0.620  -0.619   1.231  0.00  0.00    -0.020 A 
ATOM     21  C   UNL     1       1.876  -1.141   1.178  0.00  0.00    +0.006 A 
ATOM     22  C   UNL     1       2.464  -1.714   2.304  0.00  0.00    +0.001 A 
ATOM     23  C   UNL     1       1.799  -1.768   3.490  0.00  0.00    +0.008 A 
ATOM     24  C   UNL     1       0.500  -1.239   3.584  0.00  0.00    -0.018 A 
ATOM     25  C   UNL     1      -0.095  -0.651   2.440  0.00  0.00    -0.013 A 
ATOM     26  C   UNL     1      -1.391  -0.117   2.536  0.00  0.00    +0.009 A 
ATOM     27  C   UNL     1      -2.054  -0.165   3.724  0.00  0.00    +0.001 A 
ATOM     28  C   UNL     1      -1.466  -0.738   4.851  0.00  0.00    +0.001 A 
ATOM     29  C   UNL     1      -0.217  -1.277   4.792  0.00  0.00    +0.008 A 
ENDBRANCH  19  20
ENDBRANCH   1  19
TORSDOF 4
