REMARK  Name = ZINC51062706
REMARK  9 active torsions:
REMARK  status: ('A' for Active; 'I' for Inactive)
REMARK    1  A    between atoms: C_1  and  C_2
REMARK    2  A    between atoms: C_2  and  C_3
REMARK    3  A    between atoms: C_3  and  C_4
REMARK    4  A    between atoms: C_4  and  N_5
REMARK    5  A    between atoms: C_6  and  C_8
REMARK    6  A    between atoms: N_13  and  C_15
REMARK    7  A    between atoms: C_15  and  C_17
REMARK    8  A    between atoms: C_15  and  C_18
REMARK    9  A    between atoms: N_20  and  C_21
REMARK                            x       y       z     vdW  Elec       q    Type
REMARK                         _______ _______ _______ _____ _____    ______ ____
ROOT
ATOM      1  C   UNL     1      -5.762  -7.928  -0.055  0.00  0.00    +0.016 C 
ATOM      2  C   UNL     1      -7.272  -7.721  -0.198  0.00  0.00    -0.004 C 
ENDROOT
BRANCH   1   7
ATOM      3  C   UNL     1      -3.022  -5.561   0.931  0.00  0.00    +0.058 C 
ATOM      4  C   UNL     1      -3.629  -5.036   2.235  0.00  0.00    +0.009 C 
ATOM      5  C   UNL     1      -5.144  -4.889   2.058  0.00  0.00    -0.018 C 
ATOM      6  C   UNL     1      -5.736  -6.237   1.644  0.00  0.00    -0.078 C 
ATOM      7  N   UNL     1      -5.135  -6.672   0.378  0.00  0.00    +0.388 N 
ATOM      8  C   UNL     1      -3.693  -6.884   0.557  0.00  0.00    -0.065 C 
ATOM      9  H   UNL     1      -5.284  -5.964  -0.325  0.00  0.00    -0.081 HD
BRANCH   3  11
ATOM     10  N   UNL     1      -0.744  -4.750   1.455  0.00  0.00    -0.315 N 
ATOM     11  C   UNL     1      -1.543  -5.782   1.118  0.00  0.00    +0.214 C 
ATOM     12  O   UNL     1      -1.071  -6.889   0.966  0.00  0.00    -0.276 OA
ATOM     13  H   UNL     1      -1.121  -3.865   1.576  0.00  0.00    +0.149 HD
BRANCH  10  14
ATOM     14  C   UNL     1       0.693  -4.965   1.637  0.00  0.00    +0.104 C 
BRANCH  14  15
ATOM     15  C   UNL     1       1.363  -3.642   2.012  0.00  0.00    +0.018 C 
BRANCH  15  17
ATOM     16  C   UNL     1       3.535  -2.543   2.578  0.00  0.00    +0.004 C 
ATOM     17  C   UNL     1       2.865  -3.867   2.202  0.00  0.00    -0.002 C 
ENDBRANCH  15  17
ENDBRANCH  14  15
ENDBRANCH  10  14
ENDBRANCH   3  11
ENDBRANCH   1   7
BRANCH   1  18
ATOM     18  C   UNL     1      -5.185  -8.346  -1.383  0.00  0.00    +0.200 C 
ATOM     19  O   UNL     1      -4.744  -7.511  -2.143  0.00  0.00    -0.278 OA
ATOM     20  N   UNL     1      -5.158  -9.650  -1.725  0.00  0.00    -0.311 N 
ATOM     21  H   UNL     1      -5.511 -10.318  -1.117  0.00  0.00    +0.149 HD
BRANCH  20  22
ATOM     22  C   UNL     1      -4.597 -10.057  -3.016  0.00  0.00    +0.035 C 
ATOM     23  C   UNL     1      -5.385  -9.393  -4.147  0.00  0.00    +0.029 C 
ATOM     24  C   UNL     1      -4.799  -9.818  -5.495  0.00  0.00    -0.008 C 
ATOM     25  C   UNL     1      -4.890 -11.339  -5.633  0.00  0.00    +0.007 C 
ATOM     26  C   UNL     1      -4.101 -12.003  -4.502  0.00  0.00    -0.008 C 
ATOM     27  C   UNL     1      -4.688 -11.578  -3.155  0.00  0.00    +0.029 C 
ATOM     28  C   UNL     1      -2.636 -11.570  -4.580  0.00  0.00    +0.007 C 
ATOM     29  C   UNL     1      -2.545 -10.049  -4.441  0.00  0.00    -0.008 C 
ATOM     30  C   UNL     1      -3.334  -9.386  -5.572  0.00  0.00    +0.007 C 
ATOM     31  C   UNL     1      -3.131  -9.624  -3.094  0.00  0.00    +0.029 C 
ENDBRANCH  20  22
ENDBRANCH   1  18
TORSDOF 7
