REMARK  Name = ZINC02349999
REMARK  8 active torsions:
REMARK  status: ('A' for Active; 'I' for Inactive)
REMARK    1  A    between atoms: C_1  and  C_2
REMARK    2  A    between atoms: C_5  and  C_36
REMARK    3  A    between atoms: N_14  and  C_15
REMARK    4  A    between atoms: C_15  and  C_16
REMARK    5  A    between atoms: C_16  and  C_17
REMARK    6  A    between atoms: C_17  and  S_18
REMARK    7  A    between atoms: S_18  and  C_19
REMARK    8  A    between atoms: N_34  and  C_35
REMARK                            x       y       z     vdW  Elec       q    Type
REMARK                         _______ _______ _______ _____ _____    ______ ____
ROOT
ATOM      1  C   UNL     1       3.564   0.410  -1.355  0.00  0.00    +0.009 C 
ATOM      2  C   UNL     1       2.088   0.017  -1.259  0.00  0.00    +0.004 C 
ATOM      3  C   UNL     1       1.962  -1.508  -1.297  0.00  0.00    +0.009 C 
ATOM      4  C   UNL     1       2.757  -2.116  -0.139  0.00  0.00    +0.004 C 
ATOM      5  C   UNL     1       2.180  -1.616   1.189  0.00  0.00    +0.111 C 
ATOM      6  N   UNL     1       2.164  -0.147   1.175  0.00  0.00    -0.300 N 
ATOM      7  C   UNL     1       1.504   0.541   0.056  0.00  0.00    +0.111 C 
ATOM      8  C   UNL     1       2.755   0.570   2.189  0.00  0.00    +0.201 A 
ATOM      9  N   UNL     1       4.026   0.912   2.239  0.00  0.00    -0.196 NA
ATOM     10  C   UNL     1       4.269   1.601   3.355  0.00  0.00    +0.170 A 
ATOM     11  C   UNL     1       3.071   1.701   4.055  0.00  0.00    +0.153 A 
ATOM     12  N   UNL     1       2.116   1.042   3.292  0.00  0.00    -0.306 N 
ATOM     13  C   UNL     1       3.049   2.387   5.282  0.00  0.00    +0.280 A 
ATOM     14  O   UNL     1       2.011   2.487   5.913  0.00  0.00    -0.265 OA
ATOM     15  N   UNL     1       4.188   2.934   5.754  0.00  0.00    -0.273 N 
ATOM     16  H   UNL     1       4.176   3.408   6.601  0.00  0.00    +0.173 HD
ATOM     17  C   UNL     1       5.340   2.832   5.069  0.00  0.00    +0.331 A 
ATOM     18  O   UNL     1       6.348   3.337   5.525  0.00  0.00    -0.246 OA
ATOM     19  N   UNL     1       5.406   2.184   3.891  0.00  0.00    -0.280 N 
ATOM     20  C   UNL     1       6.681   2.095   3.175  0.00  0.00    +0.155 C 
ATOM     21  C   UNL     1       2.658  -3.642  -0.198  0.00  0.00    +0.009 C 
ENDROOT
BRANCH  12  22
ATOM     22  C   UNL     1       0.697   0.883   3.616  0.00  0.00    +0.126 C 
BRANCH  22  23
ATOM     23  C   UNL     1       0.510  -0.349   4.504  0.00  0.00    +0.033 C 
BRANCH  23  24
ATOM     24  C   UNL     1      -0.972  -0.515   4.841  0.00  0.00    +0.078 C 
BRANCH  24  25
ATOM     25  S   UNL     1      -1.193  -1.976   5.894  0.00  0.00    -0.099 S 
BRANCH  25  26
ATOM     26  C   UNL     1      -2.929  -2.029   6.191  0.00  0.00    +0.136 A 
ATOM     27  N   UNL     1      -3.865  -1.215   5.756  0.00  0.00    -0.233 NA
ATOM     28  C   UNL     1      -5.170  -1.379   6.067  0.00  0.00    +0.079 A 
ATOM     29  C   UNL     1      -6.268  -0.582   5.669  0.00  0.00    +0.029 A 
ATOM     30  C   UNL     1      -7.540  -0.890   6.076  0.00  0.00    +0.002 A 
ATOM     31  C   UNL     1      -7.796  -1.985   6.888  0.00  0.00    +0.001 A 
ATOM     32  C   UNL     1      -6.745  -2.786   7.296  0.00  0.00    +0.017 A 
ATOM     33  C   UNL     1      -5.468  -2.486   6.893  0.00  0.00    +0.040 A 
ATOM     34  S   UNL     1      -3.866  -3.208   7.154  0.00  0.00    -0.061 S 
ENDBRANCH  25  26
ENDBRANCH  24  25
ENDBRANCH  23  24
ENDBRANCH  22  23
ENDBRANCH  12  22
TORSDOF 5
