REMARK  Name = ZINC63362529
REMARK  8 active torsions:
REMARK  status: ('A' for Active; 'I' for Inactive)
REMARK    1  A    between atoms: C_1  and  C_2
REMARK    2  A    between atoms: N_18  and  C_21
REMARK    3  A    between atoms: C_26  and  C_27
REMARK    4  A    between atoms: N_29  and  C_30
REMARK    5  A    between atoms: C_32  and  C_38
REMARK    6  A    between atoms: C_32  and  C_39
REMARK    7  A    between atoms: C_34  and  C_36
REMARK    8  A    between atoms: C_34  and  C_37
REMARK                            x       y       z     vdW  Elec       q    Type
REMARK                         _______ _______ _______ _____ _____    ______ ____
ROOT
ATOM      1  C   UNL     1      -2.582  -1.725   1.442  0.00  0.00    +0.058 A 
ATOM      2  C   UNL     1      -3.469  -1.075   2.288  0.00  0.00    +0.025 A 
ATOM      3  C   UNL     1      -4.523  -1.768   2.851  0.00  0.00    +0.002 A 
ATOM      4  C   UNL     1      -4.703  -3.114   2.577  0.00  0.00    +0.001 A 
ATOM      5  C   UNL     1      -3.831  -3.776   1.739  0.00  0.00    +0.015 A 
ATOM      6  C   UNL     1      -2.764  -3.086   1.158  0.00  0.00    +0.059 A 
ENDROOT
BRANCH   1  23
ATOM      7  C   UNL     1      -0.308   1.788  -0.530  0.00  0.00    +0.044 C 
ATOM      8  C   UNL     1      -0.223   0.260  -0.504  0.00  0.00    +0.137 C 
ATOM      9  C   UNL     1       0.458  -0.294  -1.761  0.00  0.00    +0.139 C 
ATOM     10  C   UNL     1       1.951  -0.041  -1.589  0.00  0.00    -0.034 C 
ATOM     11  C   UNL     1       2.331   0.682  -2.638  0.00  0.00    -0.001 A 
ATOM     12  C   UNL     1       3.652   1.178  -3.056  0.00  0.00    +0.010 A 
ATOM     13  C   UNL     1       3.682   1.911  -4.201  0.00  0.00    +0.001 A 
ATOM     14  C   UNL     1       2.544   2.195  -4.962  0.00  0.00    +0.002 A 
ATOM     15  C   UNL     1       1.291   1.775  -4.655  0.00  0.00    +0.026 A 
ATOM     16  C   UNL     1       1.132   0.992  -3.474  0.00  0.00    +0.043 A 
ATOM     17  N   UNL     1       0.055   0.448  -2.959  0.00  0.00    -0.375 N 
ATOM     18  C   UNL     1       2.736  -0.507  -0.388  0.00  0.00    +0.052 C 
ATOM     19  C   UNL     1       1.985  -0.015   0.865  0.00  0.00    +0.115 C 
ATOM     20  N   UNL     1       0.551  -0.234   0.657  0.00  0.00    -0.268 N 
ATOM     21  C   UNL     1      -0.304  -0.916   1.429  0.00  0.00    +0.317 C 
ATOM     22  O   UNL     1      -0.013  -1.381   2.514  0.00  0.00    -0.252 OA
ATOM     23  N   UNL     1      -1.517  -1.026   0.871  0.00  0.00    -0.192 N 
ATOM     24  C   UNL     1      -1.582  -0.379  -0.311  0.00  0.00    +0.253 C 
ATOM     25  O   UNL     1      -2.532  -0.320  -1.062  0.00  0.00    -0.272 OA
ATOM     26  H   UNL     1      -0.849   0.523  -3.302  0.00  0.00    +0.160 HD
ENDBRANCH   1  23
BRANCH   6  27
ATOM     27  C   UNL     1      -1.831  -3.787   0.255  0.00  0.00    +0.246 C 
ATOM     28  O   UNL     1      -0.901  -3.185  -0.245  0.00  0.00    -0.270 OA
ATOM     29  N   UNL     1      -2.010  -5.096  -0.015  0.00  0.00    -0.309 N 
ATOM     30  H   UNL     1      -2.752  -5.576   0.384  0.00  0.00    +0.149 HD
BRANCH  29  31
ATOM     31  C   UNL     1      -1.081  -5.793  -0.913  0.00  0.00    +0.071 C 
ATOM     32  C   UNL     1      -1.552  -5.617  -2.358  0.00  0.00    +0.009 C 
ATOM     33  C   UNL     1      -0.601  -6.348  -3.305  0.00  0.00    -0.072 C 
ATOM     34  N   UNL     1      -0.433  -7.747  -2.940  0.00  0.00    +0.386 N 
ATOM     35  C   UNL     1      -0.183  -8.055  -1.541  0.00  0.00    -0.072 C 
ATOM     36  C   UNL     1      -1.089  -7.286  -0.585  0.00  0.00    +0.009 C 
ATOM     37  C   UNL     1       1.284  -7.830  -1.165  0.00  0.00    -0.010 C 
ATOM     38  C   UNL     1      -0.475  -9.561  -1.338  0.00  0.00    -0.010 C 
ATOM     39  C   UNL     1       0.735  -5.610  -3.388  0.00  0.00    -0.010 C 
ATOM     40  C   UNL     1      -1.236  -6.306  -4.714  0.00  0.00    -0.010 C 
ATOM     41  H   UNL     1      -1.267  -8.259  -3.239  0.00  0.00    -0.084 HD
ATOM     42  H   UNL     1       0.333  -8.135  -3.498  0.00  0.00    -0.084 HD
ENDBRANCH  29  31
ENDBRANCH   6  27
TORSDOF 3
