REMARK  Name = ZINC06507977
REMARK  5 active torsions:
REMARK  status: ('A' for Active; 'I' for Inactive)
REMARK    1  A    between atoms: C_1  and  C_2
REMARK    2  A    between atoms: C_5  and  N_8
REMARK    3  A    between atoms: N_8  and  C_9
REMARK    4  A    between atoms: C_9  and  N_11
REMARK    5  A    between atoms: C_13  and  O_26
REMARK                            x       y       z     vdW  Elec       q    Type
REMARK                         _______ _______ _______ _____ _____    ______ ____
ROOT
ATOM      1  N   UNL     1       0.332   1.721  -0.051  0.00  0.00    -0.279 N 
ATOM      2  C   UNL     1       0.714   0.610   0.831  0.00  0.00    +0.144 C 
ATOM      3  C   UNL     1       2.043   0.983   1.501  0.00  0.00    +0.137 C 
ATOM      4  C   UNL     1       3.114   1.128   0.421  0.00  0.00    +0.070 C 
ATOM      5  C   UNL     1       2.642   2.050  -0.674  0.00  0.00    -0.023 A 
ATOM      6  C   UNL     1       1.304   2.304  -0.868  0.00  0.00    +0.046 A 
ATOM      7  C   UNL     1       0.899   3.169  -1.909  0.00  0.00    +0.004 A 
ATOM      8  C   UNL     1      -0.458   3.446  -2.136  0.00  0.00    +0.010 A 
ATOM      9  C   UNL     1      -0.814   4.283  -3.149  0.00  0.00    +0.001 A 
ATOM     10  C   UNL     1       0.150   4.870  -3.967  0.00  0.00    +0.001 A 
ATOM     11  C   UNL     1       1.475   4.625  -3.775  0.00  0.00    +0.008 A 
ATOM     12  C   UNL     1       1.879   3.766  -2.738  0.00  0.00    -0.016 A 
ATOM     13  C   UNL     1       3.237   3.487  -2.508  0.00  0.00    +0.009 A 
ATOM     14  C   UNL     1       3.596   2.649  -1.500  0.00  0.00    +0.006 A 
ENDROOT
BRANCH   1  15
ATOM     15  C   UNL     1      -0.939   2.169  -0.074  0.00  0.00    +0.142 C 
ATOM     16  S   UNL     1      -2.226   1.077  -0.362  0.00  0.00    -0.018 S 
BRANCH  15  17
ATOM     17  N   UNL     1      -1.197   3.476   0.128  0.00  0.00    -0.296 N 
ATOM     18  H   UNL     1      -1.637   3.996  -0.562  0.00  0.00    +0.154 HD
BRANCH  17  23
ATOM     19  C   UNL     1       0.284   5.934   5.021  0.00  0.00    +0.044 C 
ATOM     20  C   UNL     1      -0.109   5.281   3.721  0.00  0.00    -0.050 A 
ATOM     21  C   UNL     1      -0.578   6.054   2.675  0.00  0.00    +0.005 A 
ATOM     22  C   UNL     1      -0.939   5.459   1.482  0.00  0.00    +0.023 A 
ATOM     23  C   UNL     1      -0.832   4.082   1.335  0.00  0.00    +0.033 A 
ATOM     24  C   UNL     1      -0.366   3.308   2.389  0.00  0.00    +0.023 A 
ATOM     25  C   UNL     1      -0.001   3.910   3.578  0.00  0.00    +0.005 A 
ENDBRANCH  17  23
ENDBRANCH  15  17
ENDBRANCH   1  15
BRANCH   3  26
ATOM     26  O   UNL     1       2.423  -0.045   2.417  0.00  0.00    -0.390 OA
ATOM     27  H   UNL     1       1.781  -0.199   3.124  0.00  0.00    +0.210 HD
ENDBRANCH   3  26
TORSDOF 4
