REMARK  Name = ZINC09475034
REMARK  9 active torsions:
REMARK  status: ('A' for Active; 'I' for Inactive)
REMARK    1  A    between atoms: C_1  and  C_2
REMARK    2  A    between atoms: C_2  and  C_3
REMARK    3  A    between atoms: C_10  and  C_12
REMARK    4  A    between atoms: C_12  and  N_13
REMARK    5  A    between atoms: C_16  and  C_24
REMARK    6  A    between atoms: C_17  and  C_19
REMARK    7  A    between atoms: N_21  and  C_22
REMARK    8  A    between atoms: N_21  and  C_23
REMARK    9  A    between atoms: N_27  and  C_30
REMARK                            x       y       z     vdW  Elec       q    Type
REMARK                         _______ _______ _______ _____ _____    ______ ____
ROOT
ATOM      1  N   UNL     1      -7.450   3.879  -0.232  0.00  0.00    -0.278 N 
ATOM      2  C   UNL     1      -6.399   3.230   0.345  0.00  0.00    +0.098 A 
ATOM      3  C   UNL     1      -6.563   1.979   0.963  0.00  0.00    +0.075 A 
ATOM      4  C   UNL     1      -5.406   1.416   1.512  0.00  0.00    -0.017 A 
ATOM      5  C   UNL     1      -4.235   2.111   1.419  0.00  0.00    +0.080 A 
ATOM      6  S   UNL     1      -4.723   3.583   0.538  0.00  0.00    -0.065 S 
ATOM      7  C   UNL     1      -5.452   0.073   2.195  0.00  0.00    +0.046 C 
ATOM      8  C   UNL     1      -7.941   1.433   0.937  0.00  0.00    +0.270 A 
ATOM      9  O   UNL     1      -8.185   0.354   1.446  0.00  0.00    -0.266 OA
ATOM     10  N   UNL     1      -8.917   2.143   0.345  0.00  0.00    -0.228 N 
ATOM     11  C   UNL     1      -8.682   3.335  -0.225  0.00  0.00    +0.338 A 
ATOM     12  O   UNL     1      -9.601   3.937  -0.748  0.00  0.00    -0.246 OA
ENDROOT
BRANCH  10  13
ATOM     13  C   UNL     1     -10.219   1.623   0.323  0.00  0.00    +0.054 A 
ATOM     14  C   UNL     1     -10.513   0.516  -0.461  0.00  0.00    +0.028 A 
ATOM     15  C   UNL     1     -11.795   0.003  -0.478  0.00  0.00    +0.022 A 
ATOM     16  C   UNL     1     -12.789   0.598   0.279  0.00  0.00    +0.041 A 
ATOM     17  C   UNL     1     -12.500   1.704   1.058  0.00  0.00    +0.022 A 
ATOM     18  C   UNL     1     -11.218   2.218   1.082  0.00  0.00    +0.028 A 
ATOM     19 CL   UNL     1     -14.401  -0.045   0.251  0.00  0.00    -0.084 Cl
ENDBRANCH  10  13
BRANCH   5  20
ATOM     20  C   UNL     1      -2.908   1.738   1.913  0.00  0.00    +0.253 C 
ATOM     21  O   UNL     1      -2.474   0.620   1.709  0.00  0.00    -0.269 OA
ATOM     22  N   UNL     1      -2.164   2.636   2.590  0.00  0.00    -0.303 N 
ATOM     23  C   UNL     1      -0.864   2.245   3.139  0.00  0.00    +0.132 C 
ATOM     24  C   UNL     1      -2.657   4.003   2.777  0.00  0.00    +0.132 C 
ENDBRANCH   5  20
BRANCH   1  25
ATOM     25  C   UNL     1      -7.237   5.183  -0.866  0.00  0.00    +0.223 C 
BRANCH  25  32
ATOM     26  C   UNL     1      -6.466   5.887  -4.555  0.00  0.00    +0.076 C 
ATOM     27  C   UNL     1      -7.438   6.824  -5.279  0.00  0.00    +0.022 C 
ATOM     28  C   UNL     1      -7.230   8.255  -4.779  0.00  0.00    +0.003 C 
ATOM     29  C   UNL     1      -7.524   8.320  -3.278  0.00  0.00    +0.019 C 
ATOM     30  C   UNL     1      -6.559   7.401  -2.531  0.00  0.00    +0.108 C 
ATOM     31  N   UNL     1      -6.644   6.051  -3.105  0.00  0.00    -0.297 N 
ATOM     32  C   UNL     1      -6.885   4.984  -2.318  0.00  0.00    +0.236 C 
ATOM     33  O   UNL     1      -6.819   3.864  -2.778  0.00  0.00    -0.274 OA
BRANCH  26  35
ATOM     34  C   UNL     1      -6.854   4.330  -6.470  0.00  0.00    +0.006 C 
ATOM     35  C   UNL     1      -6.759   4.437  -4.946  0.00  0.00    +0.019 C 
ENDBRANCH  26  35
ENDBRANCH  25  32
ENDBRANCH   1  25
TORSDOF 5
