REMARK  Name = ZINC49543195
REMARK  9 active torsions:
REMARK  status: ('A' for Active; 'I' for Inactive)
REMARK    1  A    between atoms: C_1  and  O_2
REMARK    2  A    between atoms: O_2  and  C_3
REMARK    3  A    between atoms: C_6  and  N_11
REMARK    4  A    between atoms: C_7  and  O_9
REMARK    5  A    between atoms: O_9  and  C_10
REMARK    6  A    between atoms: C_13  and  C_30
REMARK    7  A    between atoms: C_16  and  C_22
REMARK    8  A    between atoms: C_27  and  O_28
REMARK    9  A    between atoms: O_28  and  C_29
REMARK                            x       y       z     vdW  Elec       q    Type
REMARK                         _______ _______ _______ _____ _____    ______ ____
ROOT
ATOM      1  N   UNL     1       2.462  -2.451  -4.311  0.00  0.00    -0.314 N 
ATOM      2  C   UNL     1       3.779  -2.370  -4.594  0.00  0.00    +0.108 A 
ATOM      3  C   UNL     1       4.025  -3.105  -5.744  0.00  0.00    +0.102 A 
ATOM      4  C   UNL     1       2.734  -3.649  -6.148  0.00  0.00    +0.070 A 
ATOM      5  C   UNL     1       1.825  -3.222  -5.233  0.00  0.00    +0.054 A 
ATOM      6  C   UNL     1       0.368  -3.603  -5.324  0.00  0.00    +0.080 C 
ATOM      7  C   UNL     1       0.265  -4.968  -6.008  0.00  0.00    +0.110 C 
ATOM      8  C   UNL     1       1.166  -5.055  -7.207  0.00  0.00    +0.218 C 
ATOM      9  O   UNL     1       0.790  -5.669  -8.183  0.00  0.00    -0.275 OA
ATOM     10  N   UNL     1       2.382  -4.461  -7.234  0.00  0.00    -0.283 N 
ATOM     11  H   UNL     1       2.993  -4.600  -7.974  0.00  0.00    +0.155 HD
ENDROOT
BRANCH   1  15
ATOM     12  C   UNL     1       0.606  -0.607  -1.056  0.00  0.00    +0.124 A 
ATOM     13  C   UNL     1       1.173   0.163  -2.062  0.00  0.00    +0.048 A 
ATOM     14  C   UNL     1       1.787  -0.447  -3.139  0.00  0.00    +0.033 A 
ATOM     15  C   UNL     1       1.838  -1.831  -3.216  0.00  0.00    +0.089 A 
ATOM     16  C   UNL     1       1.270  -2.606  -2.207  0.00  0.00    +0.147 A 
ATOM     17  C   UNL     1       0.660  -1.991  -1.126  0.00  0.00    +0.093 A 
BRANCH  12  19
ATOM     18  C   UNL     1      -0.017   1.425   0.010  0.00  0.00    +0.277 C 
ATOM     19  O   UNL     1       0.002  -0.004   0.002  0.00  0.00    -0.495 OA
ENDBRANCH  12  19
BRANCH  16  20
ATOM     20  O   UNL     1       1.319  -3.962  -2.281  0.00  0.00    -0.493 OA
ATOM     21  C   UNL     1       0.717  -4.692  -1.210  0.00  0.00    +0.277 C 
ENDBRANCH  16  20
ENDBRANCH   1  15
BRANCH   6  22
ATOM     22  C   UNL     1      -0.376  -2.570  -6.130  0.00  0.00    +0.004 A 
ATOM     23  C   UNL     1      -0.019  -2.329  -7.443  0.00  0.00    +0.008 A 
ATOM     24  C   UNL     1      -0.701  -1.381  -8.183  0.00  0.00    +0.001 A 
ATOM     25  C   UNL     1      -1.742  -0.672  -7.612  0.00  0.00    +0.004 A 
ATOM     26  C   UNL     1      -2.103  -0.909  -6.300  0.00  0.00    +0.046 A 
ATOM     27  C   UNL     1      -1.423  -1.864  -5.557  0.00  0.00    +0.124 A 
BRANCH  27  28
ATOM     28  O   UNL     1      -1.780  -2.103  -4.267  0.00  0.00    -0.495 OA
ATOM     29  C   UNL     1      -2.867  -1.338  -3.743  0.00  0.00    +0.277 C 
ENDBRANCH  27  28
ENDBRANCH   6  22
BRANCH   3  30
ATOM     30  C   UNL     1       5.315  -3.294  -6.414  0.00  0.00    +0.390 C 
ATOM     31  O   UNL     1       6.324  -2.773  -5.958  0.00  0.00    -0.240 OA
ATOM     32  O   UNL     1       5.383  -3.974  -7.430  0.00  0.00    -0.240 OA
ENDBRANCH   3  30
TORSDOF 6
