REMARK  Name = ZINC39835706
REMARK  5 active torsions:
REMARK  status: ('A' for Active; 'I' for Inactive)
REMARK    1  A    between atoms: C_5  and  O_7
REMARK    2  A    between atoms: O_7  and  C_8
REMARK    3  A    between atoms: C_9  and  C_19
REMARK    4  A    between atoms: N_23  and  C_27
REMARK    5  A    between atoms: C_27  and  C_28
REMARK                            x       y       z     vdW  Elec       q    Type
REMARK                         _______ _______ _______ _____ _____    ______ ____
ROOT
ATOM      1  C   UNL     1       0.358  -2.605  -0.302  0.00  0.00    +0.235 A 
ATOM      2  C   UNL     1       0.142  -3.961   0.031  0.00  0.00    +0.103 A 
ATOM      3  C   UNL     1      -1.190  -4.408   0.199  0.00  0.00    +0.269 A 
ATOM      4  O   UNL     1      -1.423  -5.570   0.486  0.00  0.00    -0.266 OA
ATOM      5  N   UNL     1      -2.200  -3.526   0.035  0.00  0.00    -0.268 N 
ATOM      6  C   UNL     1      -3.486  -3.947   0.195  0.00  0.00    +0.096 A 
ATOM      7  C   UNL     1      -4.519  -3.089   0.038  0.00  0.00    +0.018 A 
ATOM      8  C   UNL     1      -4.276  -1.749  -0.293  0.00  0.00    +0.005 A 
ATOM      9  C   UNL     1      -2.993  -1.318  -0.454  0.00  0.00    +0.047 A 
ATOM     10  C   UNL     1      -1.931  -2.225  -0.286  0.00  0.00    +0.144 A 
ATOM     11  N   UNL     1      -0.678  -1.794  -0.441  0.00  0.00    -0.194 NA
ENDROOT
BRANCH   2  12
ATOM     12  C   UNL     1       1.232  -4.850   0.192  0.00  0.00    +0.039 C 
ATOM     13  C   UNL     1       2.219  -4.564   1.089  0.00  0.00    +0.077 C 
ATOM     14  C   UNL     1       2.294  -3.515   2.050  0.00  0.00    +0.259 C 
ATOM     15  O   UNL     1       1.393  -2.702   2.162  0.00  0.00    -0.269 OA
ATOM     16  N   UNL     1       3.368  -3.449   2.817  0.00  0.00    -0.251 N 
ATOM     17  C   UNL     1       4.367  -4.351   2.693  0.00  0.00    +0.121 C 
ATOM     18  S   UNL     1       5.834  -4.456   3.570  0.00  0.00    -0.027 S 
ATOM     19  S   UNL     1       3.765  -5.410   1.386  0.00  0.00    -0.061 S 
BRANCH  16  20
ATOM     20  C   UNL     1       3.479  -2.382   3.815  0.00  0.00    +0.150 C 
BRANCH  20  21
ATOM     21  C   UNL     1       2.882  -2.849   5.117  0.00  0.00    -0.029 A 
ATOM     22  C   UNL     1       1.540  -2.644   5.376  0.00  0.00    +0.008 A 
ATOM     23  C   UNL     1       0.992  -3.072   6.570  0.00  0.00    +0.038 A 
ATOM     24  C   UNL     1       1.788  -3.708   7.508  0.00  0.00    +0.123 A 
ATOM     25  C   UNL     1       3.133  -3.913   7.248  0.00  0.00    +0.038 A 
ATOM     26  C   UNL     1       3.677  -3.488   6.051  0.00  0.00    +0.008 A 
ATOM     27  F   UNL     1       1.254  -4.127   8.676  0.00  0.00    -0.205 F 
ENDBRANCH  20  21
ENDBRANCH  16  20
ENDBRANCH   2  12
BRANCH   1  28
ATOM     28  O   UNL     1       1.616  -2.138  -0.471  0.00  0.00    -0.434 OA
BRANCH  28  33
ATOM     29  C   UNL     1       2.175   1.421   0.042  0.00  0.00    +0.004 A 
ATOM     30  C   UNL     1       2.097   1.885  -1.258  0.00  0.00    +0.003 A 
ATOM     31  C   UNL     1       1.858   1.004  -2.296  0.00  0.00    +0.042 A 
ATOM     32  C   UNL     1       1.696  -0.345  -2.036  0.00  0.00    +0.165 A 
ATOM     33  C   UNL     1       1.774  -0.813  -0.731  0.00  0.00    +0.165 A 
ATOM     34  C   UNL     1       2.015   0.075   0.308  0.00  0.00    +0.049 A 
ATOM     35  F   UNL     1       1.462  -1.206  -3.051  0.00  0.00    -0.202 F 
ENDBRANCH  28  33
ENDBRANCH   1  28
TORSDOF 5
