REMARK  Name = ZINC06072593
REMARK  5 active torsions:
REMARK  status: ('A' for Active; 'I' for Inactive)
REMARK    1  A    between atoms: C_1  and  C_2
REMARK    2  A    between atoms: C_7  and  C_8
REMARK    3  A    between atoms: C_8  and  C_9
REMARK    4  A    between atoms: C_14  and  N_16
REMARK    5  A    between atoms: N_16  and  C_17
REMARK                            x       y       z     vdW  Elec       q    Type
REMARK                         _______ _______ _______ _____ _____    ______ ____
ROOT
ATOM      1  C   UNL     1      -1.676   0.206   2.868  0.00  0.00    +0.146 C 
ATOM      2  C   UNL     1      -1.843   1.066   4.116  0.00  0.00    +0.252 C 
ATOM      3  O   UNL     1      -1.386   0.772   5.203  0.00  0.00    -0.272 OA
ATOM      4  N   UNL     1      -2.531   2.157   3.890  0.00  0.00    -0.154 NA
ATOM      5  C   UNL     1      -3.033   2.488   2.716  0.00  0.00    +0.184 C 
ATOM      6  S   UNL     1      -2.596   1.248   1.663  0.00  0.00    -0.075 S 
ENDROOT
BRANCH   1   7
ATOM      7  C   UNL     1      -0.203   0.067   2.477  0.00  0.00    +0.059 C 
BRANCH   7  14
ATOM      8  C   UNL     1      -0.369  -2.818   2.484  0.00  0.00    +0.044 C 
ATOM      9  C   UNL     1      -0.176  -2.077   1.186  0.00  0.00    -0.047 A 
ATOM     10  C   UNL     1      -0.085  -2.778  -0.003  0.00  0.00    +0.003 A 
ATOM     11  C   UNL     1       0.091  -2.098  -1.193  0.00  0.00    +0.000 A 
ATOM     12  C   UNL     1       0.176  -0.718  -1.196  0.00  0.00    +0.000 A 
ATOM     13  C   UNL     1       0.083  -0.018  -0.008  0.00  0.00    +0.004 A 
ATOM     14  C   UNL     1      -0.097  -0.697   1.183  0.00  0.00    -0.043 A 
ENDBRANCH   7  14
ENDBRANCH   1   7
BRANCH   5  15
ATOM     15  N   UNL     1      -3.759   3.609   2.415  0.00  0.00    -0.190 NA
BRANCH  15  16
ATOM     16  C   UNL     1      -4.126   4.484   3.418  0.00  0.00    +0.216 C 
ATOM     17  N   UNL     1      -3.696   4.299   4.633  0.00  0.00    -0.267 NA
ATOM     18  N   UNL     1      -4.946   5.550   3.134  0.00  0.00    -0.368 N 
ATOM     19  H   UNL     1      -3.954   4.913   5.337  0.00  0.00    +0.190 HD
ATOM     20  H   UNL     1      -5.326   5.647   2.246  0.00  0.00    +0.159 HD
ATOM     21  H   UNL     1      -5.146   6.205   3.821  0.00  0.00    +0.159 HD
ENDBRANCH  15  16
ENDBRANCH   5  15
TORSDOF 4
