REMARK  Name = ZINC04576900
REMARK  5 active torsions:
REMARK  status: ('A' for Active; 'I' for Inactive)
REMARK    1  A    between atoms: C_6  and  S_11
REMARK    2  A    between atoms: S_11  and  O_14
REMARK    3  A    between atoms: O_14  and  N_15
REMARK    4  A    between atoms: C_16  and  C_17
REMARK    5  A    between atoms: C_21  and  N_23
REMARK                            x       y       z     vdW  Elec       q    Type
REMARK                         _______ _______ _______ _____ _____    ______ ____
ROOT
ATOM      1  O   UNL     1       5.641  -3.047   1.386  0.00  0.00    -0.224 OA
ENDROOT
BRANCH   1   2
ATOM      2  N   UNL     1       4.915  -4.074   2.037  0.00  0.00    -0.037 NA
ATOM      3  C   UNL     1       5.170  -4.363   3.279  0.00  0.00    +0.165 C 
ATOM      4  N   UNL     1       6.151  -3.666   3.965  0.00  0.00    -0.340 N 
ATOM      5  H   UNL     1       6.648  -2.962   3.519  0.00  0.00    +0.144 HD
ATOM      6  H   UNL     1       6.342  -3.882   4.891  0.00  0.00    +0.144 HD
BRANCH   3   7
ATOM      7  C   UNL     1       4.412  -5.437   3.960  0.00  0.00    +0.020 A 
ATOM      8  C   UNL     1       3.428  -6.144   3.271  0.00  0.00    +0.011 A 
ATOM      9  C   UNL     1       2.725  -7.144   3.910  0.00  0.00    +0.003 A 
ATOM     10  C   UNL     1       2.994  -7.445   5.234  0.00  0.00    +0.033 A 
ATOM     11  C   UNL     1       3.970  -6.747   5.923  0.00  0.00    +0.127 A 
ATOM     12  C   UNL     1       4.684  -5.749   5.292  0.00  0.00    +0.044 A 
BRANCH  11  13
ATOM     13  N   UNL     1       4.252  -7.076   7.338  0.00  0.00    +0.056 N 
ATOM     14  O   UNL     1       3.631  -7.954   7.891  0.00  0.00    -0.126 OA
ATOM     15  O   UNL     1       5.104  -6.467   7.942  0.00  0.00    -0.126 OA
ENDBRANCH  11  13
ENDBRANCH   3   7
ENDBRANCH   1   2
BRANCH   1  16
ATOM     16  S   UNL     1       5.231  -2.823  -0.063  0.00  0.00    +0.170 S 
ATOM     17  O   UNL     1       4.984  -4.107  -0.618  0.00  0.00    -0.130 OA
ATOM     18  O   UNL     1       6.181  -1.923  -0.619  0.00  0.00    -0.130 OA
BRANCH  16  24
ATOM     19  C   UNL     1      -0.016   1.357   0.009  0.00  0.00    +0.001 A 
ATOM     20  C   UNL     1       1.169   2.091   0.002  0.00  0.00    +0.001 A 
ATOM     21  C   UNL     1       2.378   1.468  -0.013  0.00  0.00    +0.008 A 
ATOM     22  C   UNL     1       2.438   0.063  -0.021  0.00  0.00    -0.016 A 
ATOM     23  C   UNL     1       3.668  -0.615  -0.036  0.00  0.00    +0.039 A 
ATOM     24  C   UNL     1       3.687  -1.976  -0.043  0.00  0.00    +0.131 A 
ATOM     25  C   UNL     1       2.502  -2.710  -0.036  0.00  0.00    +0.031 A 
ATOM     26  C   UNL     1       1.292  -2.087  -0.021  0.00  0.00    +0.010 A 
ATOM     27  C   UNL     1       1.233  -0.683  -0.013  0.00  0.00    -0.018 A 
ATOM     28  C   UNL     1       0.002  -0.004   0.002  0.00  0.00    +0.008 A 
ENDBRANCH  16  24
ENDBRANCH   1  16
TORSDOF 5
