REMARK  Name = ZINC09328504
REMARK  5 active torsions:
REMARK  status: ('A' for Active; 'I' for Inactive)
REMARK    1  A    between atoms: C_1  and  C_2
REMARK    2  A    between atoms: C_4  and  N_35
REMARK    3  A    between atoms: C_5  and  O_33
REMARK    4  A    between atoms: C_7  and  N_8
REMARK    5  A    between atoms: O_33  and  C_34
REMARK                            x       y       z     vdW  Elec       q    Type
REMARK                         _______ _______ _______ _____ _____    ______ ____
ROOT
ATOM      1  N   UNL     1       0.002  -0.004   0.002  0.00  0.00    -0.210 N 
ATOM      2  C   UNL     1       0.029  -0.789   1.071  0.00  0.00    +0.228 C 
ATOM      3  O   UNL     1      -0.323  -0.473   2.187  0.00  0.00    -0.275 OA
ATOM      4  C   UNL     1       0.577  -2.170   0.664  0.00  0.00    +0.074 C 
ATOM      5  C   UNL     1      -0.100  -3.439   1.264  0.00  0.00    -0.054 C 
ATOM      6  C   UNL     1       1.115  -4.296   1.903  0.00  0.00    -0.016 C 
ATOM      7  C   UNL     1       0.665  -5.683   1.578  0.00  0.00    -0.020 C 
ATOM      8  C   UNL     1      -0.135  -5.545   0.240  0.00  0.00    -0.076 C 
ATOM      9  C   UNL     1      -0.174  -3.541  -1.144  0.00  0.00    +0.053 C 
ATOM     10  C   UNL     1      -0.266  -2.083  -0.722  0.00  0.00    +0.089 C 
ATOM     11  C   UNL     1       0.002  -0.836  -1.157  0.00  0.00    +0.229 C 
ATOM     12  O   UNL     1       0.203  -0.491  -2.301  0.00  0.00    -0.275 OA
ATOM     13  C   UNL     1       1.118  -4.044  -1.569  0.00  0.00    -0.026 A 
ATOM     14  C   UNL     1       2.374  -3.956  -1.127  0.00  0.00    +0.004 A 
ATOM     15  C   UNL     1       3.483  -4.556  -1.832  0.00  0.00    +0.002 A 
ATOM     16  C   UNL     1       3.191  -5.138  -3.029  0.00  0.00    +0.022 A 
ATOM     17  C   UNL     1       1.881  -5.199  -3.557  0.00  0.00    +0.062 A 
ATOM     18  C   UNL     1       0.842  -4.592  -2.819  0.00  0.00    +0.054 A 
ATOM     19  N   UNL     1      -0.479  -4.514  -3.115  0.00  0.00    -0.285 N 
ATOM     20  C   UNL     1      -1.149  -3.917  -2.219  0.00  0.00    +0.212 C 
ATOM     21  O   UNL     1      -2.341  -3.695  -2.229  0.00  0.00    -0.277 OA
ATOM     22 CL   UNL     1       1.561  -5.994  -5.067  0.00  0.00    -0.082 Cl
ATOM     23  H   UNL     1      -0.869  -4.876  -3.925  0.00  0.00    +0.155 HD
ATOM     24  N   UNL     1      -0.619  -4.199   0.173  0.00  0.00    +0.395 N 
ATOM     25  H   UNL     1      -1.644  -4.207   0.221  0.00  0.00    -0.079 HD
ENDROOT
BRANCH   1  32
ATOM     26  C   UNL     1       2.491   1.374  -0.014  0.00  0.00    +0.046 C 
ATOM     27  C   UNL     1       1.175   2.109   0.002  0.00  0.00    -0.026 A 
ATOM     28  C   UNL     1       1.157   3.491   0.009  0.00  0.00    +0.041 A 
ATOM     29  C   UNL     1      -0.047   4.168   0.025  0.00  0.00    +0.168 A 
ATOM     30  C   UNL     1      -1.242   3.462   0.033  0.00  0.00    +0.152 A 
ATOM     31  C   UNL     1      -1.227   2.076   0.019  0.00  0.00    +0.072 A 
ATOM     32  C   UNL     1      -0.017   1.398   0.010  0.00  0.00    +0.050 A 
BRANCH  29  33
ATOM     33  N   UNL     1      -0.063   5.648   0.033  0.00  0.00    +0.060 N 
ATOM     34  O   UNL     1       0.985   6.268   0.026  0.00  0.00    -0.126 OA
ATOM     35  O   UNL     1      -1.124   6.246   0.046  0.00  0.00    -0.126 OA
ENDBRANCH  29  33
BRANCH  30  36
ATOM     36  O   UNL     1      -2.426   4.129   0.047  0.00  0.00    -0.493 OA
ATOM     37  C   UNL     1      -3.616   3.338   0.055  0.00  0.00    +0.277 C 
ENDBRANCH  30  36
ENDBRANCH   1  32
TORSDOF 3
