REMARK  Name = ZINC14475336
REMARK  6 active torsions:
REMARK  status: ('A' for Active; 'I' for Inactive)
REMARK    1  A    between atoms: C_1  and  C_2
REMARK    2  A    between atoms: C_2  and  C_3
REMARK    3  A    between atoms: C_2  and  C_4
REMARK    4  A    between atoms: C_2  and  N_5
REMARK    5  A    between atoms: C_6  and  C_8
REMARK    6  A    between atoms: C_15  and  C_24
REMARK                            x       y       z     vdW  Elec       q    Type
REMARK                         _______ _______ _______ _____ _____    ______ ____
ROOT
ATOM      1  C   UNL     1      -2.118   3.112   2.077  0.00  0.00    +0.058 A 
ATOM      2  C   UNL     1      -2.364   4.469   2.286  0.00  0.00    +0.015 A 
ATOM      3  C   UNL     1      -1.504   5.407   1.758  0.00  0.00    +0.001 A 
ATOM      4  C   UNL     1      -0.403   5.007   1.024  0.00  0.00    +0.006 A 
ATOM      5  C   UNL     1      -0.141   3.663   0.804  0.00  0.00    -0.019 A 
ATOM      6  C   UNL     1      -0.994   2.709   1.329  0.00  0.00    +0.044 A 
ATOM      7  N   UNL     1      -0.786   1.350   1.149  0.00  0.00    -0.336 N 
ATOM      8  C   UNL     1      -0.066   1.073  -0.096  0.00  0.00    +0.105 C 
ATOM      9  C   UNL     1       1.277   1.785  -0.088  0.00  0.00    +0.029 C 
ATOM     10  C   UNL     1       1.078   3.313  -0.008  0.00  0.00    +0.049 C 
ATOM     11  C   UNL     1       2.304   3.783   0.757  0.00  0.00    -0.023 C 
ATOM     12  C   UNL     1       2.820   2.799   1.449  0.00  0.00    -0.030 C 
ATOM     13  C   UNL     1       2.015   1.529   1.248  0.00  0.00    +0.033 C 
ATOM     14  H   UNL     1      -1.657   0.843   1.183  0.00  0.00    +0.147 HD
ENDROOT
BRANCH   8  15
ATOM     15  C   UNL     1      -0.884   1.560  -1.264  0.00  0.00    -0.026 A 
ATOM     16  C   UNL     1      -0.238   2.013  -2.413  0.00  0.00    +0.006 A 
ATOM     17  C   UNL     1      -0.948   2.459  -3.486  0.00  0.00    +0.009 A 
ATOM     18  C   UNL     1      -2.352   2.465  -3.437  0.00  0.00    -0.018 A 
ATOM     19  C   UNL     1      -3.118   2.918  -4.525  0.00  0.00    +0.008 A 
ATOM     20  C   UNL     1      -4.476   2.908  -4.442  0.00  0.00    +0.001 A 
ATOM     21  C   UNL     1      -5.122   2.456  -3.292  0.00  0.00    +0.001 A 
ATOM     22  C   UNL     1      -4.413   2.011  -2.220  0.00  0.00    +0.008 A 
ATOM     23  C   UNL     1      -3.009   2.005  -2.268  0.00  0.00    -0.018 A 
ATOM     24  C   UNL     1      -2.243   1.546  -1.183  0.00  0.00    +0.014 A 
ENDBRANCH   8  15
BRANCH   1  26
ATOM     25  N   UNL     1      -4.178   2.485   3.234  0.00  0.00    -0.307 N 
ATOM     26  C   UNL     1      -3.032   2.101   2.637  0.00  0.00    +0.246 C 
ATOM     27  O   UNL     1      -2.752   0.920   2.562  0.00  0.00    -0.270 OA
ATOM     28  H   UNL     1      -4.401   3.427   3.294  0.00  0.00    +0.150 HD
BRANCH  25  30
ATOM     29  C   UNL     1      -4.359   0.677   4.871  0.00  0.00    +0.031 C 
ATOM     30  C   UNL     1      -5.087   1.480   3.791  0.00  0.00    +0.026 C 
ATOM     31  C   UNL     1      -6.303   2.176   4.405  0.00  0.00    +0.031 C 
ATOM     32  C   UNL     1      -5.548   0.536   2.678  0.00  0.00    +0.031 C 
ENDBRANCH  25  30
ENDBRANCH   1  26
TORSDOF 3
