REMARK  Name = ZINC03435119
REMARK  8 active torsions:
REMARK  status: ('A' for Active; 'I' for Inactive)
REMARK    1  A    between atoms: C_1  and  C_2
REMARK    2  A    between atoms: C_2  and  C_4
REMARK    3  A    between atoms: C_2  and  N_16
REMARK    4  A    between atoms: N_6  and  C_7
REMARK    5  A    between atoms: N_16  and  C_17
REMARK    6  A    between atoms: N_16  and  C_18
REMARK    7  A    between atoms: C_18  and  C_19
REMARK    8  A    between atoms: N_21  and  C_22
REMARK                            x       y       z     vdW  Elec       q    Type
REMARK                         _______ _______ _______ _____ _____    ______ ____
ROOT
ATOM      1  C   UNL     1      -0.688   1.022   1.017  0.00  0.00    -0.004 C 
ATOM      2  C   UNL     1      -0.449  -0.203   0.132  0.00  0.00    +0.017 C 
ENDROOT
BRANCH   2   3
ATOM      3  C   UNL     1      -1.756  -0.648  -0.473  0.00  0.00    +0.203 C 
ATOM      4  O   UNL     1      -2.432  -1.482   0.091  0.00  0.00    -0.277 OA
ATOM      5  N   UNL     1      -2.172  -0.120  -1.640  0.00  0.00    -0.284 N 
ATOM      6  H   UNL     1      -1.593   0.482  -2.135  0.00  0.00    +0.155 HD
BRANCH   5   7
ATOM      7  C   UNL     1      -3.442  -0.439  -2.140  0.00  0.00    +0.072 A 
ATOM      8  C   UNL     1      -4.407  -0.973  -1.298  0.00  0.00    +0.029 A 
ATOM      9  C   UNL     1      -5.658  -1.288  -1.791  0.00  0.00    +0.043 A 
ATOM     10  C   UNL     1      -5.953  -1.070  -3.126  0.00  0.00    +0.161 A 
ATOM     11  C   UNL     1      -4.993  -0.536  -3.972  0.00  0.00    +0.195 A 
ATOM     12  C   UNL     1      -3.739  -0.214  -3.479  0.00  0.00    +0.182 A 
ATOM     13  F   UNL     1      -2.804   0.312  -4.301  0.00  0.00    -0.200 F 
ATOM     14  F   UNL     1      -5.282  -0.325  -5.274  0.00  0.00    -0.199 F 
ATOM     15  F   UNL     1      -7.178  -1.379  -3.606  0.00  0.00    -0.202 F 
ENDBRANCH   5   7
ENDBRANCH   2   3
BRANCH   2  16
ATOM     16  N   UNL     1       0.110  -1.292   0.945  0.00  0.00    +0.391 N 
ATOM     17  C   UNL     1       1.385  -0.859   1.534  0.00  0.00    -0.094 C 
ATOM     18  H   UNL     1      -0.537  -1.529   1.681  0.00  0.00    -0.080 HD
BRANCH  16  19
ATOM     19  C   UNL     1       0.338  -2.469   0.096  0.00  0.00    +0.020 C 
BRANCH  19  20
ATOM     20  C   UNL     1       0.789  -3.625   0.951  0.00  0.00    +0.201 C 
ATOM     21  O   UNL     1       0.908  -3.483   2.150  0.00  0.00    -0.278 OA
ATOM     22  N   UNL     1       1.059  -4.818   0.384  0.00  0.00    -0.286 N 
ATOM     23  H   UNL     1       1.046  -4.910  -0.582  0.00  0.00    +0.155 HD
BRANCH  22  24
ATOM     24  C   UNL     1       1.359  -5.923   1.188  0.00  0.00    +0.047 A 
ATOM     25  C   UNL     1       0.964  -5.943   2.519  0.00  0.00    +0.024 A 
ATOM     26  C   UNL     1       1.261  -7.036   3.310  0.00  0.00    +0.002 A 
ATOM     27  C   UNL     1       1.952  -8.109   2.778  0.00  0.00    +0.001 A 
ATOM     28  C   UNL     1       2.348  -8.093   1.454  0.00  0.00    +0.017 A 
ATOM     29  C   UNL     1       2.048  -7.005   0.655  0.00  0.00    +0.039 A 
ATOM     30 BR   UNL     1       2.583  -6.987  -1.159  0.00  0.00    -0.048 Br
ENDBRANCH  22  24
ENDBRANCH  19  20
ENDBRANCH  16  19
ENDBRANCH   2  16
TORSDOF 6
