REMARK  Name = ZINC09610495
REMARK  12 active torsions:
REMARK  status: ('A' for Active; 'I' for Inactive)
REMARK    1  A    between atoms: C_1  and  C_2
REMARK    2  A    between atoms: C_2  and  O_3
REMARK    3  A    between atoms: O_3  and  C_4
REMARK    4  A    between atoms: C_9  and  N_10
REMARK    5  A    between atoms: C_11  and  C_13
REMARK    6  A    between atoms: C_13  and  C_15
REMARK    7  A    between atoms: C_13  and  N_18
REMARK    8  A    between atoms: C_15  and  C_16
REMARK    9  A    between atoms: C_15  and  C_17
REMARK   10  A    between atoms: N_18  and  S_19
REMARK   11  A    between atoms: S_19  and  C_22
REMARK   12  A    between atoms: N_31  and  C_32
REMARK                            x       y       z     vdW  Elec       q    Type
REMARK                         _______ _______ _______ _____ _____    ______ ____
ROOT
ATOM      1  C   UNL     1      -1.141   1.345   1.259  0.00  0.00    +0.165 C 
ENDROOT
BRANCH   1   3
ATOM      2  N   UNL     1      -0.335  -0.338   2.884  0.00  0.00    -0.281 N 
ATOM      3  C   UNL     1      -0.860   0.885   2.666  0.00  0.00    +0.236 C 
ATOM      4  O   UNL     1      -1.106   1.614   3.603  0.00  0.00    -0.274 OA
ATOM      5  H   UNL     1      -0.063  -0.889   2.133  0.00  0.00    +0.155 HD
BRANCH   2  11
ATOM      6  C   UNL     1       0.707  -1.850   4.461  0.00  0.00    +0.142 A 
ATOM      7  C   UNL     1       0.854  -2.315   5.758  0.00  0.00    +0.047 A 
ATOM      8  C   UNL     1       0.119  -1.749   6.782  0.00  0.00    +0.004 A 
ATOM      9  C   UNL     1      -0.764  -0.718   6.518  0.00  0.00    +0.002 A 
ATOM     10  C   UNL     1      -0.912  -0.245   5.228  0.00  0.00    +0.027 A 
ATOM     11  C   UNL     1      -0.182  -0.812   4.193  0.00  0.00    +0.076 A 
BRANCH   6  12
ATOM     12  O   UNL     1       1.430  -2.406   3.452  0.00  0.00    -0.490 OA
BRANCH  12  14
ATOM     13  C   UNL     1       3.042  -3.961   2.544  0.00  0.00    +0.048 C 
ATOM     14  C   UNL     1       2.322  -3.466   3.800  0.00  0.00    +0.226 C 
ENDBRANCH  12  14
ENDBRANCH   6  12
ENDBRANCH   2  11
ENDBRANCH   1   3
BRANCH   1  15
ATOM     15  C   UNL     1       0.162   1.354   0.456  0.00  0.00    +0.010 C 
ATOM     16  C   UNL     1       1.112   2.403   1.037  0.00  0.00    +0.009 C 
ATOM     17  C   UNL     1      -0.142   1.694  -1.005  0.00  0.00    +0.009 C 
ENDBRANCH   1  15
BRANCH   1  18
ATOM     18  N   UNL     1      -1.704   2.697   1.291  0.00  0.00    -0.178 NA
ATOM     19  H   UNL     1      -1.189   3.428   1.667  0.00  0.00    +0.149 HD
BRANCH  18  20
ATOM     20  S   UNL     1      -3.219   2.977   0.684  0.00  0.00    +0.059 S 
ATOM     21  O   UNL     1      -3.511   4.345   0.935  0.00  0.00    -0.153 OA
ATOM     22  O   UNL     1      -3.243   2.420  -0.623  0.00  0.00    -0.153 OA
BRANCH  20  23
ATOM     23  C   UNL     1      -4.350   2.035   1.653  0.00  0.00    +0.109 A 
ATOM     24  C   UNL     1      -4.668   0.741   1.277  0.00  0.00    +0.031 A 
ATOM     25  C   UNL     1      -5.549  -0.006   2.034  0.00  0.00    +0.031 A 
ATOM     26  C   UNL     1      -6.126   0.548   3.167  0.00  0.00    +0.090 A 
ATOM     27  C   UNL     1      -5.811   1.853   3.543  0.00  0.00    +0.159 A 
ATOM     28  C   UNL     1      -4.920   2.593   2.780  0.00  0.00    +0.077 A 
ATOM     29  O   UNL     1      -6.510   2.127   4.672  0.00  0.00    -0.407 OA
ATOM     30  C   UNL     1      -7.241   1.053   5.009  0.00  0.00    +0.421 A 
ATOM     31  O   UNL     1      -7.977   0.979   5.973  0.00  0.00    -0.223 OA
ATOM     32  N   UNL     1      -7.032   0.068   4.112  0.00  0.00    -0.277 N 
ATOM     33  C   UNL     1      -7.644  -1.263   4.128  0.00  0.00    +0.156 C 
ENDBRANCH  20  23
ENDBRANCH  18  20
ENDBRANCH   1  18
TORSDOF 8
