REMARK  Name = ZINC39697664
REMARK  5 active torsions:
REMARK  status: ('A' for Active; 'I' for Inactive)
REMARK    1  A    between atoms: C_1  and  C_2
REMARK    2  A    between atoms: C_2  and  C_3
REMARK    3  A    between atoms: C_15  and  S_17
REMARK    4  A    between atoms: S_17  and  C_18
REMARK    5  A    between atoms: C_18  and  C_19
REMARK                            x       y       z     vdW  Elec       q    Type
REMARK                         _______ _______ _______ _____ _____    ______ ____
ROOT
ATOM      1  C   UNL     1      -1.412  -0.526   0.013  0.00  0.00    -0.047 A 
ATOM      2  C   UNL     1      -2.035  -0.760   1.246  0.00  0.00    +0.005 A 
ATOM      3  C   UNL     1      -3.299  -1.234   1.326  0.00  0.00    +0.026 A 
ATOM      4  C   UNL     1      -4.042  -1.509   0.090  0.00  0.00    +0.046 A 
ATOM      5  N   UNL     1      -5.266  -1.933  -0.118  0.00  0.00    -0.358 N 
ATOM      6  C   UNL     1      -5.450  -2.152  -1.543  0.00  0.00    +0.252 C 
ATOM      7  C   UNL     1      -4.232  -1.545  -2.216  0.00  0.00    +0.117 C 
ATOM      8  C   UNL     1      -3.358  -1.239  -1.200  0.00  0.00    +0.025 A 
ATOM      9  C   UNL     1      -2.034  -0.745  -1.168  0.00  0.00    +0.015 A 
ATOM     10  N   UNL     1      -4.209  -1.284  -3.525  0.00  0.00    -0.147 NA
ATOM     11  N   UNL     1      -5.367  -1.056  -4.069  0.00  0.00    -0.122 NA
ATOM     12  C   UNL     1      -6.510  -1.019  -3.342  0.00  0.00    +0.208 C 
ATOM     13  N   UNL     1      -6.618  -1.490  -2.121  0.00  0.00    -0.227 NA
ATOM     14  H   UNL     1      -5.938  -2.076   0.567  0.00  0.00    +0.162 HD
ENDROOT
BRANCH   1  16
ATOM     15  C   UNL     1      -0.019   1.526   0.010  0.00  0.00    +0.009 C 
ATOM     16  C   UNL     1       0.002  -0.004   0.002  0.00  0.00    +0.032 C 
ENDBRANCH   1  16
BRANCH  12  17
ATOM     17  S   UNL     1      -7.939  -0.300  -4.080  0.00  0.00    -0.075 S 
BRANCH  17  18
ATOM     18  C   UNL     1      -9.216  -0.450  -2.801  0.00  0.00    +0.173 C 
BRANCH  18  19
ATOM     19  C   UNL     1     -10.508   0.136  -3.310  0.00  0.00    +0.229 C 
ATOM     20  O   UNL     1     -10.562   0.607  -4.426  0.00  0.00    -0.275 OA
ATOM     21  N   UNL     1     -11.604   0.135  -2.526  0.00  0.00    -0.264 N 
ATOM     22  C   UNL     1     -12.796   0.674  -2.995  0.00  0.00    +0.164 A 
ATOM     23  N   UNL     1     -13.041   1.219  -4.168  0.00  0.00    -0.233 NA
ATOM     24  C   UNL     1     -14.237   1.690  -4.465  0.00  0.00    +0.120 A 
ATOM     25  C   UNL     1     -15.194   1.587  -3.510  0.00  0.00    +0.068 A 
ATOM     26  S   UNL     1     -14.278   0.784  -2.205  0.00  0.00    -0.061 S 
ATOM     27  H   UNL     1     -11.561  -0.243  -1.633  0.00  0.00    +0.157 HD
ENDBRANCH  18  19
ENDBRANCH  17  18
ENDBRANCH  12  17
TORSDOF 4
