REMARK  Name = ZINC35098032
REMARK  12 active torsions:
REMARK  status: ('A' for Active; 'I' for Inactive)
REMARK    1  A    between atoms: C_1  and  C_2
REMARK    2  A    between atoms: C_2  and  C_3
REMARK    3  A    between atoms: C_3  and  C_5
REMARK    4  A    between atoms: C_3  and  C_6
REMARK    5  A    between atoms: C_6  and  C_8
REMARK    6  A    between atoms: C_6  and  N_24
REMARK    7  A    between atoms: C_14  and  C_17
REMARK    8  A    between atoms: N_20  and  C_21
REMARK    9  A    between atoms: C_21  and  C_22
REMARK   10  A    between atoms: C_21  and  C_23
REMARK   11  A    between atoms: N_24  and  S_25
REMARK   12  A    between atoms: S_25  and  C_28
REMARK                            x       y       z     vdW  Elec       q    Type
REMARK                         _______ _______ _______ _____ _____    ______ ____
ROOT
ATOM      1  C   UNL     1       1.956  -0.617  -0.963  0.00  0.00    +0.165 C 
ENDROOT
BRANCH   1   2
ATOM      2  C   UNL     1       3.115  -1.192  -1.737  0.00  0.00    +0.235 C 
ATOM      3  O   UNL     1       4.001  -0.465  -2.132  0.00  0.00    -0.274 OA
ATOM      4  N   UNL     1       3.165  -2.515  -1.991  0.00  0.00    -0.297 N 
ATOM      5  C   UNL     1       2.059  -3.396  -1.592  0.00  0.00    +0.127 C 
ATOM      6  C   UNL     1       2.621  -4.523  -0.717  0.00  0.00    +0.128 C 
ATOM      7  N   UNL     1       3.784  -5.111  -1.397  0.00  0.00    -0.280 N 
ATOM      8  C   UNL     1       4.890  -4.230  -1.796  0.00  0.00    +0.092 C 
ATOM      9  C   UNL     1       4.326  -3.101  -2.676  0.00  0.00    +0.130 C 
ATOM     10  C   UNL     1       5.550  -3.637  -0.549  0.00  0.00    +0.030 C 
ATOM     11  C   UNL     1       3.834  -6.433  -1.651  0.00  0.00    +0.303 C 
ATOM     12  O   UNL     1       4.842  -6.924  -2.123  0.00  0.00    -0.253 OA
ATOM     13  N   UNL     1       2.768  -7.213  -1.381  0.00  0.00    -0.297 N 
ATOM     14  H   UNL     1       1.939  -6.812  -1.077  0.00  0.00    +0.150 HD
BRANCH  13  15
ATOM     15  C   UNL     1       2.862  -8.665  -1.546  0.00  0.00    +0.068 C 
ATOM     16  C   UNL     1       1.838  -9.349  -0.637  0.00  0.00    +0.027 C 
ATOM     17  C   UNL     1       2.577  -9.033  -3.003  0.00  0.00    +0.027 C 
ENDBRANCH  13  15
ENDBRANCH   1   2
BRANCH   1  18
ATOM     18  C   UNL     1       0.669  -0.785  -1.772  0.00  0.00    +0.013 C 
ATOM     19  C   UNL     1      -0.527  -0.349  -0.923  0.00  0.00    +0.009 C 
BRANCH  18  21
ATOM     20  C   UNL     1       1.771  -0.511  -3.998  0.00  0.00    +0.004 C 
ATOM     21  C   UNL     1       0.742   0.080  -3.032  0.00  0.00    +0.002 C 
ENDBRANCH  18  21
ENDBRANCH   1  18
BRANCH   1  22
ATOM     22  N   UNL     1       2.195   0.807  -0.714  0.00  0.00    -0.178 NA
ATOM     23  H   UNL     1       2.327   1.414  -1.459  0.00  0.00    +0.149 HD
BRANCH  22  24
ATOM     24  S   UNL     1       2.237   1.380   0.839  0.00  0.00    +0.059 S 
ATOM     25  O   UNL     1       2.553   2.763   0.753  0.00  0.00    -0.153 OA
ATOM     26  O   UNL     1       1.060   0.906   1.479  0.00  0.00    -0.153 OA
BRANCH  24  27
ATOM     27  C   UNL     1       3.597   0.601   1.644  0.00  0.00    +0.105 A 
ATOM     28  C   UNL     1       3.414  -0.599   2.304  0.00  0.00    +0.028 A 
ATOM     29  C   UNL     1       4.481  -1.210   2.937  0.00  0.00    +0.002 A 
ATOM     30  C   UNL     1       5.731  -0.620   2.908  0.00  0.00    +0.000 A 
ATOM     31  C   UNL     1       5.914   0.580   2.247  0.00  0.00    +0.002 A 
ATOM     32  C   UNL     1       4.848   1.188   1.611  0.00  0.00    +0.028 A 
ENDBRANCH  24  27
ENDBRANCH  22  24
ENDBRANCH   1  22
TORSDOF 7
