REMARK  Name = ZINC15502578
REMARK  8 active torsions:
REMARK  status: ('A' for Active; 'I' for Inactive)
REMARK    1  A    between atoms: C_1  and  C_2
REMARK    2  A    between atoms: C_3  and  C_15
REMARK    3  A    between atoms: C_4  and  C_14
REMARK    4  A    between atoms: N_5  and  C_7
REMARK    5  A    between atoms: C_16  and  C_17
REMARK    6  A    between atoms: N_19  and  N_20
REMARK    7  A    between atoms: N_20  and  C_21
REMARK    8  A    between atoms: C_26  and  N_27
REMARK                            x       y       z     vdW  Elec       q    Type
REMARK                         _______ _______ _______ _____ _____    ______ ____
ROOT
ATOM      1  C   UNL     1      -0.010  -0.959  -2.597  0.00  0.00    +0.016 C 
ATOM      2  C   UNL     1      -0.881  -0.015  -3.014  0.00  0.00    +0.069 C 
ENDROOT
BRANCH   1   5
ATOM      3  C   UNL     1      -0.052   0.872  -0.006  0.00  0.00    +0.068 C 
ATOM      4  C   UNL     1      -0.073  -0.634  -0.043  0.00  0.00    +0.068 A 
ATOM      5  C   UNL     1      -0.054  -1.437  -1.208  0.00  0.00    +0.019 A 
ATOM      6  C   UNL     1      -0.084  -2.756  -0.794  0.00  0.00    +0.049 A 
ATOM      7  N   UNL     1      -0.119  -2.753   0.552  0.00  0.00    -0.236 N 
ATOM      8  N   UNL     1      -0.106  -1.426   0.993  0.00  0.00    -0.171 NA
ATOM      9  C   UNL     1      -0.078  -3.972  -1.685  0.00  0.00    +0.066 C 
BRANCH   7  10
ATOM     10  C   UNL     1      -0.157  -3.889   1.373  0.00  0.00    +0.066 A 
ATOM     11  C   UNL     1      -0.996  -3.920   2.479  0.00  0.00    +0.030 A 
ATOM     12  C   UNL     1      -1.032  -5.040   3.286  0.00  0.00    +0.040 A 
ATOM     13  C   UNL     1      -0.233  -6.132   2.993  0.00  0.00    +0.124 A 
ATOM     14  C   UNL     1       0.604  -6.104   1.890  0.00  0.00    +0.040 A 
ATOM     15  C   UNL     1       0.639  -4.988   1.077  0.00  0.00    +0.030 A 
ATOM     16  F   UNL     1      -0.269  -7.226   3.784  0.00  0.00    -0.205 F 
ENDBRANCH   7  10
ENDBRANCH   1   5
BRANCH   2  17
ATOM     17  C   UNL     1      -0.840   0.447  -4.354  0.00  0.00    +0.253 C 
ATOM     18  O   UNL     1      -0.018  -0.008  -5.129  0.00  0.00    -0.269 OA
ATOM     19  N   UNL     1      -1.709   1.389  -4.770  0.00  0.00    -0.233 N 
ATOM     20  H   UNL     1      -2.364   1.751  -4.153  0.00  0.00    +0.173 HD
BRANCH  19  21
ATOM     21  N   UNL     1      -1.668   1.845  -6.094  0.00  0.00    -0.262 N 
ATOM     22  H   UNL     1      -1.013   1.483  -6.712  0.00  0.00    +0.170 HD
BRANCH  21  23
ATOM     23  C   UNL     1      -2.569   2.821  -6.525  0.00  0.00    +0.075 A 
ATOM     24  C   UNL     1      -3.442   3.411  -5.620  0.00  0.00    +0.027 A 
ATOM     25  C   UNL     1      -4.332   4.376  -6.049  0.00  0.00    +0.002 A 
ATOM     26  C   UNL     1      -4.354   4.755  -7.379  0.00  0.00    +0.002 A 
ATOM     27  C   UNL     1      -3.486   4.170  -8.283  0.00  0.00    +0.034 A 
ATOM     28  C   UNL     1      -2.590   3.209  -7.859  0.00  0.00    +0.148 A 
BRANCH  28  29
ATOM     29  N   UNL     1      -1.657   2.587  -8.826  0.00  0.00    +0.058 N 
ATOM     30  O   UNL     1      -0.525   2.326  -8.492  0.00  0.00    -0.126 OA
ATOM     31  O   UNL     1      -2.028   2.340  -9.950  0.00  0.00    -0.126 OA
ENDBRANCH  28  29
ENDBRANCH  21  23
ENDBRANCH  19  21
ENDBRANCH   2  17
TORSDOF 6
