REMARK  Name = ZINC51260900
REMARK  7 active torsions:
REMARK  status: ('A' for Active; 'I' for Inactive)
REMARK    1  A    between atoms: C_3  and  O_25
REMARK    2  A    between atoms: C_6  and  C_7
REMARK    3  A    between atoms: C_7  and  C_9
REMARK    4  A    between atoms: C_7  and  O_24
REMARK    5  A    between atoms: C_9  and  N_10
REMARK    6  A    between atoms: C_16  and  N_21
REMARK    7  A    between atoms: O_25  and  C_26
REMARK                            x       y       z     vdW  Elec       q    Type
REMARK                         _______ _______ _______ _____ _____    ______ ____
ROOT
ATOM      1  C   UNL     1      -1.618  -1.242  -1.409  0.00  0.00    +0.153 C 
ENDROOT
BRANCH   1   2
ATOM      2  N   UNL     1      -2.934  -1.886  -1.422  0.00  0.00    -0.231 N 
ATOM      3  C   UNL     1      -3.141  -3.199  -1.210  0.00  0.00    +0.254 C 
ATOM      4  O   UNL     1      -2.280  -4.024  -0.980  0.00  0.00    -0.270 OA
ATOM      5  C   UNL     1      -4.591  -3.467  -1.302  0.00  0.00    +0.050 A 
ATOM      6  C   UNL     1      -5.375  -4.603  -1.176  0.00  0.00    +0.016 A 
ATOM      7  C   UNL     1      -6.750  -4.509  -1.325  0.00  0.00    +0.033 A 
ATOM      8  C   UNL     1      -7.344  -3.291  -1.599  0.00  0.00    +0.127 A 
ATOM      9  C   UNL     1      -6.572  -2.147  -1.727  0.00  0.00    +0.046 A 
ATOM     10  C   UNL     1      -5.197  -2.225  -1.580  0.00  0.00    +0.052 A 
ATOM     11  C   UNL     1      -4.094  -1.243  -1.643  0.00  0.00    +0.254 C 
ATOM     12  O   UNL     1      -4.215  -0.054  -1.859  0.00  0.00    -0.270 OA
BRANCH   8  13
ATOM     13  N   UNL     1      -8.813  -3.209  -1.756  0.00  0.00    +0.056 N 
ATOM     14  O   UNL     1      -9.490  -4.204  -1.645  0.00  0.00    -0.126 OA
ATOM     15  O   UNL     1      -9.337  -2.145  -1.995  0.00  0.00    -0.126 OA
ENDBRANCH   8  13
ENDBRANCH   1   2
BRANCH   1  16
ATOM     16  C   UNL     1      -1.293  -0.774   0.011  0.00  0.00    +0.162 C 
BRANCH  16  22
ATOM     17  C   UNL     1      -0.017   1.378   0.010  0.00  0.00    +0.010 A 
ATOM     18  C   UNL     1       1.169   2.087   0.002  0.00  0.00    +0.046 A 
ATOM     19  C   UNL     1       2.380   1.409  -0.013  0.00  0.00    +0.130 A 
ATOM     20  C   UNL     1       2.396   0.022  -0.021  0.00  0.00    +0.046 A 
ATOM     21  C   UNL     1       1.207  -0.681  -0.013  0.00  0.00    +0.010 A 
ATOM     22  C   UNL     1       0.002  -0.004   0.002  0.00  0.00    -0.017 A 
BRANCH  19  23
ATOM     23  O   UNL     1       3.548   2.104  -0.021  0.00  0.00    -0.406 OA
BRANCH  23  24
ATOM     24  C   UNL     1       4.756   1.341  -0.036  0.00  0.00    +0.575 C 
ATOM     25  F   UNL     1       4.787   0.540  -1.183  0.00  0.00    -0.133 F 
ATOM     26  F   UNL     1       5.855   2.207  -0.043  0.00  0.00    -0.133 F 
ATOM     27  F   UNL     1       4.810   0.528   1.101  0.00  0.00    -0.133 F 
ENDBRANCH  23  24
ENDBRANCH  19  23
ENDBRANCH  16  22
BRANCH  16  28
ATOM     28  O   UNL     1      -1.167  -1.909   0.869  0.00  0.00    -0.386 OA
ATOM     29  H   UNL     1      -0.470  -2.526   0.606  0.00  0.00    +0.210 HD
ENDBRANCH  16  28
ENDBRANCH   1  16
TORSDOF 7
