REMARK  Name = ZINC09664515
REMARK  4 active torsions:
REMARK  status: ('A' for Active; 'I' for Inactive)
REMARK    1  A    between atoms: C_1  and  C_2
REMARK    2  A    between atoms: C_3  and  C_28
REMARK    3  A    between atoms: C_11  and  C_13
REMARK    4  A    between atoms: C_13  and  N_48
REMARK                            x       y       z     vdW  Elec       q    Type
REMARK                         _______ _______ _______ _____ _____    ______ ____
ROOT
ATOM      1  C   UNL     1       1.320   2.009   0.019  0.00  0.00    -0.059 C 
ATOM      2  C   UNL     1       2.075   1.503   1.252  0.00  0.00    +0.088 C 
ATOM      3  N   UNL     1       2.123   0.034   1.224  0.00  0.00    -0.318 N 
ATOM      4  C   UNL     1       0.768  -0.535   1.214  0.00  0.00    +0.088 C 
ATOM      5  C   UNL     1       0.014  -0.029  -0.018  0.00  0.00    -0.059 C 
ATOM      6  C   UNL     1       2.860  -0.457   2.287  0.00  0.00    +0.133 A 
ATOM      7  C   UNL     1       4.250  -0.720   2.139  0.00  0.00    +0.048 A 
ATOM      8  C   UNL     1       5.109  -0.552   0.980  0.00  0.00    +0.021 A 
ATOM      9  C   UNL     1       6.408  -0.870   1.076  0.00  0.00    +0.048 A 
ATOM     10  S   UNL     1       6.576  -1.428   2.761  0.00  0.00    -0.077 S 
ATOM     11  C   UNL     1       4.897  -1.219   3.290  0.00  0.00    +0.113 A 
ATOM     12  N   UNL     1       4.240  -1.421   4.415  0.00  0.00    -0.228 NA
ATOM     13  C   UNL     1       2.950  -1.159   4.490  0.00  0.00    +0.224 A 
ATOM     14  N   UNL     1       2.281  -0.684   3.454  0.00  0.00    -0.220 NA
ATOM     15  N   UNL     1      -0.047   1.447   0.034  0.00  0.00    +0.386 N 
ATOM     16  H   UNL     1      -0.515   1.732   0.902  0.00  0.00    -0.081 HD
ENDROOT
BRANCH  15  17
ATOM     17  C   UNL     1      -0.817   1.962  -1.119  0.00  0.00    -0.003 C 
BRANCH  17  28
ATOM     18  C   UNL     1      -2.342   8.490  -1.094  0.00  0.00    +0.045 C 
ATOM     19  C   UNL     1      -1.597   7.528  -0.206  0.00  0.00    -0.026 A 
ATOM     20  C   UNL     1      -1.031   7.954   0.935  0.00  0.00    -0.008 A 
ATOM     21  S   UNL     1      -0.291   6.478   1.606  0.00  0.00    -0.073 S 
ATOM     22  C   UNL     1      -0.763   5.332   0.335  0.00  0.00    +0.116 A 
ATOM     23  C   UNL     1      -1.482   6.129  -0.574  0.00  0.00    +0.075 A 
ATOM     24  C   UNL     1      -1.993   5.446  -1.725  0.00  0.00    +0.260 A 
ATOM     25  O   UNL     1      -2.630   6.051  -2.571  0.00  0.00    -0.267 OA
ATOM     26  N   UNL     1      -1.755   4.128  -1.861  0.00  0.00    -0.312 N 
ATOM     27  H   UNL     1      -2.095   3.662  -2.640  0.00  0.00    +0.170 HD
ATOM     28  C   UNL     1      -1.053   3.438  -0.926  0.00  0.00    +0.094 A 
ATOM     29  N   UNL     1      -0.573   4.031   0.134  0.00  0.00    -0.229 NA
ATOM     30  C   UNL     1      -1.024   9.347   1.510  0.00  0.00    +0.052 C 
ENDBRANCH  17  28
ENDBRANCH  15  17
TORSDOF 2
