REMARK  Name = ZINC13274917
REMARK  6 active torsions:
REMARK  status: ('A' for Active; 'I' for Inactive)
REMARK    1  A    between atoms: C_1  and  S_2
REMARK    2  A    between atoms: S_2  and  N_5
REMARK    3  A    between atoms: N_8  and  C_11
REMARK    4  A    between atoms: C_11  and  C_12
REMARK    5  A    between atoms: N_14  and  C_15
REMARK    6  A    between atoms: C_20  and  C_21
REMARK                            x       y       z     vdW  Elec       q    Type
REMARK                         _______ _______ _______ _____ _____    ______ ____
ROOT
ATOM      1  C   UNL     1       3.813  -3.130  -4.420  0.00  0.00    +0.231 C 
ATOM      2  O   UNL     1       4.452  -2.163  -4.063  0.00  0.00    -0.274 OA
ATOM      3  N   UNL     1       4.419  -4.128  -5.093  0.00  0.00    -0.284 N 
ATOM      4  H   UNL     1       3.928  -4.937  -5.308  0.00  0.00    +0.155 HD
ENDROOT
BRANCH   3   5
ATOM      5  C   UNL     1       5.750  -3.999  -5.478  0.00  0.00    +0.048 A 
ATOM      6  C   UNL     1       6.305  -2.740  -5.663  0.00  0.00    +0.025 A 
ATOM      7  C   UNL     1       7.625  -2.614  -6.045  0.00  0.00    +0.016 A 
ATOM      8  C   UNL     1       8.408  -3.740  -6.247  0.00  0.00    +0.014 A 
ATOM      9  C   UNL     1       7.876  -4.999  -6.069  0.00  0.00    +0.031 A 
ATOM     10  C   UNL     1       6.542  -5.143  -5.676  0.00  0.00    +0.085 A 
ATOM     11  I   UNL     1      10.410  -3.527  -6.827  0.00  0.00    -0.044 I 
BRANCH  10  12
ATOM     12  C   UNL     1       5.969  -6.483  -5.478  0.00  0.00    +0.388 C 
ATOM     13  O   UNL     1       6.683  -7.473  -5.563  0.00  0.00    -0.241 OA
ATOM     14  O   UNL     1       4.777  -6.609  -5.228  0.00  0.00    -0.241 OA
ENDBRANCH  10  12
ENDBRANCH   3   5
BRANCH   1  15
ATOM     15  C   UNL     1       2.340  -3.215  -4.113  0.00  0.00    +0.180 C 
BRANCH  15  19
ATOM     16  N   UNL     1       0.788  -0.420  -1.394  0.00  0.00    -0.179 NA
ATOM     17  C   UNL     1       0.059  -0.597  -2.659  0.00  0.00    +0.124 C 
ATOM     18  C   UNL     1       0.460  -1.945  -3.267  0.00  0.00    +0.102 C 
ATOM     19  N   UNL     1       1.923  -2.013  -3.378  0.00  0.00    -0.291 NA
ATOM     20  C   UNL     1       2.561  -1.956  -2.056  0.00  0.00    +0.102 C 
ATOM     21  C   UNL     1       2.247  -0.602  -1.400  0.00  0.00    +0.124 C 
BRANCH  16  23
ATOM     22  C   UNL     1      -0.028   1.795   0.023  0.00  0.00    +0.215 C 
ATOM     23  S   UNL     1      -0.013  -0.019  -0.001  0.00  0.00    +0.029 S 
ATOM     24  O   UNL     1       0.809  -0.516   1.046  0.00  0.00    -0.158 OA
ATOM     25  O   UNL     1      -1.332  -0.516  -0.185  0.00  0.00    -0.158 OA
ENDBRANCH  16  23
ENDBRANCH  15  19
ENDBRANCH   1  15
TORSDOF 5
