REMARK  Name = ZINC66465005
REMARK  3 active torsions:
REMARK  status: ('A' for Active; 'I' for Inactive)
REMARK    1  A    between atoms: C_6  and  N_7
REMARK    2  A    between atoms: N_13  and  C_14
REMARK    3  A    between atoms: N_18  and  C_20
REMARK                            x       y       z     vdW  Elec       q    Type
REMARK                         _______ _______ _______ _____ _____    ______ ____
ROOT
ATOM      1  C   UNL     1      -0.017   1.383   0.010  0.00  0.00    +0.035 A 
ATOM      2  C   UNL     1       1.142   2.115   0.003  0.00  0.00    +0.031 A 
ATOM      3  C   UNL     1       2.402   1.473  -0.013  0.00  0.00    +0.080 A 
ATOM      4  C   UNL     1       2.382   0.060  -0.020  0.00  0.00    +0.043 A 
ATOM      5  C   UNL     1       1.217  -0.665  -0.014  0.00  0.00    +0.050 A 
ATOM      6  C   UNL     1       0.002  -0.004   0.002  0.00  0.00    +0.127 A 
ATOM      7  S   UNL     1       4.113  -0.343  -0.038  0.00  0.00    -0.052 S 
ATOM      8  C   UNL     1       4.734   1.333  -0.035  0.00  0.00    +0.159 A 
ATOM      9  N   UNL     1       3.628   2.042  -0.021  0.00  0.00    -0.225 NA
ATOM     10  N   UNL     1       6.042   1.771  -0.044  0.00  0.00    -0.322 N 
ATOM     11  H   UNL     1       6.769   1.129  -0.054  0.00  0.00    +0.148 HD
ENDROOT
BRANCH  10  12
ATOM     12  C   UNL     1       6.334   3.207  -0.040  0.00  0.00    +0.054 C 
ATOM     13  C   UNL     1       6.373   3.751  -1.486  0.00  0.00    +0.002 C 
ATOM     14  C   UNL     1       7.553   4.755  -1.446  0.00  0.00    -0.077 C 
ATOM     15  N   UNL     1       8.537   4.089  -0.555  0.00  0.00    +0.383 N 
ATOM     16  C   UNL     1       7.742   3.464   0.528  0.00  0.00    -0.056 C 
ATOM     17  H   UNL     1       9.046   3.383  -1.066  0.00  0.00    -0.081 HD
BRANCH  15  18
ATOM     18  C   UNL     1       9.464   5.080   0.006  0.00  0.00    -0.069 C 
ATOM     19  C   UNL     1      10.928   5.007  -0.436  0.00  0.00    -0.017 C 
ATOM     20  C   UNL     1      10.533   4.576   0.978  0.00  0.00    -0.017 C 
ENDBRANCH  15  18
ENDBRANCH  10  12
BRANCH   6  21
ATOM     21  N   UNL     1      -1.265  -0.769   0.011  0.00  0.00    +0.056 N 
ATOM     22  O   UNL     1      -2.324  -0.185   0.024  0.00  0.00    -0.126 OA
ATOM     23  O   UNL     1      -1.241  -1.978   0.004  0.00  0.00    -0.126 OA
ENDBRANCH   6  21
TORSDOF 3
