REMARK  Name = ZINC65101234
REMARK  7 active torsions:
REMARK  status: ('A' for Active; 'I' for Inactive)
REMARK    1  A    between atoms: C_1  and  C_2
REMARK    2  A    between atoms: C_2  and  C_3
REMARK    3  A    between atoms: C_2  and  N_4
REMARK    4  A    between atoms: C_5  and  C_7
REMARK    5  A    between atoms: N_20  and  C_23
REMARK    6  A    between atoms: C_23  and  C_24
REMARK    7  A    between atoms: N_26  and  C_27
REMARK                            x       y       z     vdW  Elec       q    Type
REMARK                         _______ _______ _______ _____ _____    ______ ____
ROOT
ATOM      1  C   UNL     1      -3.472  -1.131  -1.082  0.00  0.00    +0.078 C 
ATOM      2  C   UNL     1      -4.359  -0.211  -0.240  0.00  0.00    +0.032 C 
ATOM      3  C   UNL     1      -5.786  -0.769  -0.213  0.00  0.00    +0.108 C 
ATOM      4  N   UNL     1      -6.248  -0.954  -1.596  0.00  0.00    -0.309 N 
ATOM      5  C   UNL     1      -5.422  -1.747  -2.516  0.00  0.00    +0.108 C 
ATOM      6  C   UNL     1      -4.000  -1.178  -2.518  0.00  0.00    +0.032 C 
ATOM      7  C   UNL     1      -7.433  -0.394  -2.020  0.00  0.00    +0.164 A 
ATOM      8  N   UNL     1      -8.276   0.341  -1.327  0.00  0.00    -0.205 NA
ATOM      9  C   UNL     1      -9.398   0.826  -1.860  0.00  0.00    +0.176 A 
ATOM     10  C   UNL     1      -9.581   0.478  -3.211  0.00  0.00    +0.124 A 
ATOM     11  S   UNL     1      -8.134  -0.486  -3.549  0.00  0.00    -0.045 S 
ATOM     12  C   UNL     1     -10.696   0.900  -3.922  0.00  0.00    +0.270 A 
ATOM     13  O   UNL     1     -10.847   0.593  -5.093  0.00  0.00    -0.266 OA
ATOM     14  N   UNL     1     -11.612   1.662  -3.275  0.00  0.00    -0.289 N 
ATOM     15  C   UNL     1     -11.410   1.983  -1.972  0.00  0.00    +0.204 A 
ATOM     16  N   UNL     1     -10.372   1.595  -1.297  0.00  0.00    -0.217 NA
ENDROOT
BRANCH   1  18
ATOM     17  N   UNL     1      -1.389  -0.474   0.079  0.00  0.00    -0.313 N 
ATOM     18  C   UNL     1      -2.060  -0.604  -1.083  0.00  0.00    +0.216 C 
ATOM     19  O   UNL     1      -1.529  -0.296  -2.128  0.00  0.00    -0.276 OA
ATOM     20  H   UNL     1      -1.814  -0.720   0.915  0.00  0.00    +0.149 HD
BRANCH  17  22
ATOM     21  C   UNL     1      -0.043   1.568   0.092  0.00  0.00    +0.027 C 
ATOM     22  C   UNL     1      -0.016   0.038   0.078  0.00  0.00    +0.067 C 
ATOM     23  C   UNL     1       0.719  -0.471   1.319  0.00  0.00    +0.027 C 
ENDBRANCH  17  22
ENDBRANCH   1  18
BRANCH  14  24
ATOM     24  C   UNL     1     -12.808   2.136  -3.977  0.00  0.00    +0.222 C 
BRANCH  24  25
ATOM     25  C   UNL     1     -13.915   1.125  -3.821  0.00  0.00    +0.237 C 
ATOM     26  O   UNL     1     -13.723   0.109  -3.187  0.00  0.00    -0.274 OA
ATOM     27  N   UNL     1     -15.117   1.350  -4.387  0.00  0.00    -0.283 N 
ATOM     28  H   UNL     1     -15.291   2.191  -4.838  0.00  0.00    +0.155 HD
BRANCH  27  29
ATOM     29  C   UNL     1     -16.115   0.371  -4.322  0.00  0.00    +0.052 A 
ATOM     30  C   UNL     1     -16.226  -0.437  -3.198  0.00  0.00    +0.025 A 
ATOM     31  C   UNL     1     -17.212  -1.402  -3.137  0.00  0.00    +0.002 A 
ATOM     32  C   UNL     1     -18.089  -1.565  -4.194  0.00  0.00    +0.002 A 
ATOM     33  C   UNL     1     -17.982  -0.763  -5.316  0.00  0.00    +0.022 A 
ATOM     34  C   UNL     1     -17.001   0.209  -5.380  0.00  0.00    +0.062 A 
ATOM     35 CL   UNL     1     -16.872   1.221  -6.785  0.00  0.00    -0.082 Cl
ENDBRANCH  27  29
ENDBRANCH  24  25
ENDBRANCH  14  24
TORSDOF 5
