REMARK  Name = ZINC47706908
REMARK  6 active torsions:
REMARK  status: ('A' for Active; 'I' for Inactive)
REMARK    1  A    between atoms: C_1  and  C_2
REMARK    2  A    between atoms: C_2  and  C_3
REMARK    3  A    between atoms: N_11  and  C_12
REMARK    4  A    between atoms: C_12  and  C_13
REMARK    5  A    between atoms: C_17  and  C_19
REMARK    6  A    between atoms: C_19  and  N_20
REMARK                            x       y       z     vdW  Elec       q    Type
REMARK                         _______ _______ _______ _____ _____    ______ ____
ROOT
ATOM      1  C   UNL     1       0.707  -0.490  -1.238  0.00  0.00    +0.103 A 
ATOM      2  N   UNL     1       1.982  -0.759  -1.434  0.00  0.00    -0.145 NA
ATOM      3  N   UNL     1       2.358  -1.161  -2.572  0.00  0.00    -0.126 NA
ATOM      4  C   UNL     1       1.510  -1.319  -3.570  0.00  0.00    +0.189 A 
ATOM      5  S   UNL     1       0.050  -0.872  -2.855  0.00  0.00    -0.035 S 
ATOM      6  N   UNL     1       1.756  -1.748  -4.870  0.00  0.00    -0.247 N 
ATOM      7  C   UNL     1       3.010  -2.067  -5.248  0.00  0.00    +0.306 C 
ATOM      8  O   UNL     1       3.925  -1.981  -4.453  0.00  0.00    -0.252 OA
ATOM      9  N   UNL     1       3.248  -2.483  -6.508  0.00  0.00    -0.295 N 
ATOM     10  H   UNL     1       1.026  -1.816  -5.504  0.00  0.00    +0.158 HD
ATOM     11  H   UNL     1       2.517  -2.551  -7.142  0.00  0.00    +0.151 HD
ENDROOT
BRANCH   1  13
ATOM     12  C   UNL     1      -0.019   1.526   0.010  0.00  0.00    +0.011 C 
ATOM     13  C   UNL     1       0.002  -0.004   0.002  0.00  0.00    +0.061 C 
ENDBRANCH   1  13
BRANCH   9  14
ATOM     14  C   UNL     1       4.610  -2.830  -6.920  0.00  0.00    +0.141 C 
BRANCH  14  15
ATOM     15  C   UNL     1       4.604  -3.260  -8.364  0.00  0.00    -0.030 A 
ATOM     16  C   UNL     1       4.409  -4.590  -8.688  0.00  0.00    +0.005 A 
ATOM     17  C   UNL     1       4.404  -4.985 -10.013  0.00  0.00    +0.001 A 
ATOM     18  C   UNL     1       4.593  -4.049 -11.014  0.00  0.00    +0.005 A 
ATOM     19  C   UNL     1       4.787  -2.720 -10.689  0.00  0.00    -0.026 A 
ATOM     20  C   UNL     1       4.788  -2.325  -9.364  0.00  0.00    +0.010 A 
BRANCH  19  21
ATOM     21  C   UNL     1       4.994  -1.701 -11.780  0.00  0.00    +0.180 C 
BRANCH  21  22
ATOM     22  N   UNL     1       3.698  -1.157 -12.192  0.00  0.00    -0.248 N 
ATOM     23  C   UNL     1       3.343   0.139 -12.229  0.00  0.00    +0.219 A 
ATOM     24  N   UNL     1       2.107   0.210 -12.653  0.00  0.00    -0.223 NA
ATOM     25  C   UNL     1       1.642  -1.015 -12.896  0.00  0.00    +0.245 A 
ATOM     26  N   UNL     1       2.581  -1.885 -12.633  0.00  0.00    -0.158 NA
ENDBRANCH  21  22
ENDBRANCH  19  21
ENDBRANCH  14  15
ENDBRANCH   9  14
TORSDOF 5
