REMARK  Name = ZINC65112834
REMARK  5 active torsions:
REMARK  status: ('A' for Active; 'I' for Inactive)
REMARK    1  A    between atoms: C_3  and  C_31
REMARK    2  A    between atoms: C_6  and  C_7
REMARK    3  A    between atoms: C_9  and  C_12
REMARK    4  A    between atoms: C_12  and  N_13
REMARK    5  A    between atoms: N_21  and  C_24
REMARK                            x       y       z     vdW  Elec       q    Type
REMARK                         _______ _______ _______ _____ _____    ______ ____
ROOT
ATOM      1  N   UNL     1      -3.028  -3.796   1.818  0.00  0.00    -0.283 N 
ATOM      2  C   UNL     1      -2.249  -4.935   2.069  0.00  0.00    +0.066 A 
ATOM      3  C   UNL     1      -1.012  -5.305   1.551  0.00  0.00    +0.034 A 
ATOM      4  C   UNL     1      -0.442  -6.466   1.944  0.00  0.00    +0.048 A 
ATOM      5  S   UNL     1      -1.540  -7.124   3.033  0.00  0.00    -0.090 S 
ATOM      6  C   UNL     1      -2.776  -5.856   2.978  0.00  0.00    +0.101 A 
ATOM      7  C   UNL     1      -4.013  -5.644   3.596  0.00  0.00    +0.275 A 
ATOM      8  O   UNL     1      -4.457  -6.457   4.387  0.00  0.00    -0.266 OA
ATOM      9  N   UNL     1      -4.707  -4.521   3.303  0.00  0.00    -0.228 N 
ATOM     10  C   UNL     1      -4.208  -3.625   2.435  0.00  0.00    +0.337 A 
ATOM     11  O   UNL     1      -4.852  -2.622   2.194  0.00  0.00    -0.246 OA
ENDROOT
BRANCH   9  12
ATOM     12  C   UNL     1      -5.949  -4.288   3.911  0.00  0.00    +0.055 A 
ATOM     13  C   UNL     1      -7.114  -4.748   3.311  0.00  0.00    +0.029 A 
ATOM     14  C   UNL     1      -8.336  -4.518   3.911  0.00  0.00    +0.040 A 
ATOM     15  C   UNL     1      -8.401  -3.829   5.110  0.00  0.00    +0.124 A 
ATOM     16  C   UNL     1      -7.240  -3.369   5.710  0.00  0.00    +0.040 A 
ATOM     17  C   UNL     1      -6.015  -3.603   5.116  0.00  0.00    +0.029 A 
ATOM     18  F   UNL     1      -9.597  -3.604   5.696  0.00  0.00    -0.205 F 
ENDBRANCH   9  12
BRANCH   1  19
ATOM     19  C   UNL     1      -2.547  -2.781   0.878  0.00  0.00    +0.225 C 
BRANCH  19  22
ATOM     20  C   UNL     1      -0.038  -0.736   2.519  0.00  0.00    +0.202 A 
ATOM     21  N   UNL     1      -0.442  -1.813   1.822  0.00  0.00    -0.190 NA
ATOM     22  C   UNL     1      -1.727  -1.757   1.620  0.00  0.00    +0.248 A 
ATOM     23  O   UNL     1      -2.197  -0.637   2.183  0.00  0.00    -0.336 OA
ATOM     24  N   UNL     1      -1.082   0.015   2.770  0.00  0.00    -0.056 NA
BRANCH  20  30
ATOM     25  C   UNL     1       1.644   0.704   3.667  0.00  0.00    +0.012 A 
ATOM     26  C   UNL     1       2.943   0.965   4.055  0.00  0.00    +0.013 A 
ATOM     27  C   UNL     1       3.957   0.085   3.724  0.00  0.00    +0.055 A 
ATOM     28  C   UNL     1       3.676  -1.062   3.002  0.00  0.00    +0.013 A 
ATOM     29  C   UNL     1       2.382  -1.333   2.609  0.00  0.00    +0.012 A 
ATOM     30  C   UNL     1       1.356  -0.449   2.940  0.00  0.00    +0.022 A 
BRANCH  27  31
ATOM     31  C   UNL     1       5.373   0.376   4.150  0.00  0.00    +0.417 C 
ATOM     32  F   UNL     1       5.607  -0.192   5.407  0.00  0.00    -0.166 F 
ATOM     33  F   UNL     1       6.262  -0.170   3.219  0.00  0.00    -0.166 F 
ATOM     34  F   UNL     1       5.563   1.760   4.221  0.00  0.00    -0.166 F 
ENDBRANCH  27  31
ENDBRANCH  20  30
ENDBRANCH  19  22
ENDBRANCH   1  19
TORSDOF 5
