REMARK  Name = ZINC09304073
REMARK  9 active torsions:
REMARK  status: ('A' for Active; 'I' for Inactive)
REMARK    1  A    between atoms: C_1  and  C_2
REMARK    2  A    between atoms: C_2  and  N_3
REMARK    3  A    between atoms: C_5  and  C_17
REMARK    4  A    between atoms: N_19  and  C_20
REMARK    5  A    between atoms: C_20  and  C_21
REMARK    6  A    between atoms: N_23  and  C_24
REMARK    7  A    between atoms: C_24  and  C_25
REMARK    8  A    between atoms: C_30  and  C_31
REMARK    9  A    between atoms: C_30  and  N_59
REMARK                            x       y       z     vdW  Elec       q    Type
REMARK                         _______ _______ _______ _____ _____    ______ ____
ROOT
ATOM      1  C   UNL     1       4.839   4.486  -0.730  0.00  0.00    +0.250 C 
ATOM      2  O   UNL     1       5.939   4.011  -0.941  0.00  0.00    -0.270 OA
ATOM      3  N   UNL     1       4.706   5.810  -0.518  0.00  0.00    -0.303 N 
ATOM      4  H   UNL     1       3.828   6.188  -0.349  0.00  0.00    +0.150 HD
ENDROOT
BRANCH   1   7
ATOM      5  N   UNL     1       1.300   3.378  -0.440  0.00  0.00    -0.346 N 
ATOM      6  C   UNL     1       2.401   4.140  -0.469  0.00  0.00    +0.103 A 
ATOM      7  C   UNL     1       3.654   3.614  -0.707  0.00  0.00    +0.100 A 
ATOM      8  C   UNL     1       3.785   2.167  -0.938  0.00  0.00    +0.202 A 
ATOM      9  O   UNL     1       4.870   1.654  -1.154  0.00  0.00    -0.286 OA
ATOM     10  C   UNL     1       2.552   1.363  -0.897  0.00  0.00    +0.050 A 
ATOM     11  C   UNL     1       1.331   2.014  -0.645  0.00  0.00    +0.056 A 
ATOM     12  C   UNL     1       0.158   1.269  -0.604  0.00  0.00    +0.076 A 
ATOM     13  C   UNL     1       0.196  -0.098  -0.809  0.00  0.00    +0.168 A 
ATOM     14  C   UNL     1       1.413  -0.743  -1.059  0.00  0.00    +0.167 A 
ATOM     15  C   UNL     1       2.584  -0.018  -1.104  0.00  0.00    +0.063 A 
ATOM     16  O   UNL     1       1.171  -2.078  -1.222  0.00  0.00    -0.453 OA
ATOM     17  C   UNL     1      -0.137  -2.302  -0.665  0.00  0.00    +0.466 C 
ATOM     18  O   UNL     1      -0.798  -1.032  -0.818  0.00  0.00    -0.453 OA
BRANCH   5  20
ATOM     19  C   UNL     1      -0.318   3.923   1.310  0.00  0.00    +0.027 C 
ATOM     20  C   UNL     1       0.009   4.019  -0.181  0.00  0.00    +0.118 C 
ENDBRANCH   5  20
ENDBRANCH   1   7
BRANCH   3  21
ATOM     21  C   UNL     1       5.886   6.678  -0.541  0.00  0.00    +0.200 C 
BRANCH  21  22
ATOM     22  C   UNL     1       5.467   8.101  -0.277  0.00  0.00    +0.230 C 
ATOM     23  O   UNL     1       4.299   8.365  -0.088  0.00  0.00    -0.274 OA
ATOM     24  N   UNL     1       6.392   9.081  -0.251  0.00  0.00    -0.316 N 
ATOM     25  H   UNL     1       7.327   8.870  -0.402  0.00  0.00    +0.149 HD
BRANCH  24  26
ATOM     26  C   UNL     1       5.986  10.465   0.006  0.00  0.00    +0.089 C 
BRANCH  26  27
ATOM     27  C   UNL     1       7.229  11.347   0.135  0.00  0.00    -0.051 C 
ATOM     28  C   UNL     1       6.826  12.801   0.486  0.00  0.00    -0.016 C 
ATOM     29  C   UNL     1       8.116  13.326   1.172  0.00  0.00    -0.020 C 
ATOM     30  C   UNL     1       8.639  12.086   1.928  0.00  0.00    -0.078 C 
ATOM     31  N   UNL     1       8.047  10.903   1.282  0.00  0.00    +0.382 N 
ATOM     32  H   UNL     1       7.448  10.413   1.956  0.00  0.00    -0.081 HD
BRANCH  31  33
ATOM     33  C   UNL     1       9.117   9.981   0.822  0.00  0.00    -0.082 C 
ATOM     34  C   UNL     1      10.032   9.639   2.000  0.00  0.00    -0.017 C 
ENDBRANCH  31  33
ENDBRANCH  26  27
ENDBRANCH  24  26
ENDBRANCH  21  22
ENDBRANCH   3  21
TORSDOF 7
