REMARK  Name = ZINC40011111
REMARK  9 active torsions:
REMARK  status: ('A' for Active; 'I' for Inactive)
REMARK    1  A    between atoms: C_1  and  C_2
REMARK    2  A    between atoms: C_2  and  O_3
REMARK    3  A    between atoms: O_3  and  C_4
REMARK    4  A    between atoms: C_11  and  C_16
REMARK    5  A    between atoms: C_16  and  N_17
REMARK    6  A    between atoms: N_17  and  C_18
REMARK    7  A    between atoms: C_18  and  C_19
REMARK    8  A    between atoms: C_19  and  O_20
REMARK    9  A    between atoms: N_23  and  C_24
REMARK                            x       y       z     vdW  Elec       q    Type
REMARK                         _______ _______ _______ _____ _____    ______ ____
ROOT
ATOM      1  C   UNL     1      -5.032  -6.335  -1.254  0.00  0.00    +0.126 C 
ENDROOT
BRANCH   1   9
ATOM      2  C   UNL     1      -1.530  -1.833  -0.005  0.00  0.00    +0.121 A 
ATOM      3  C   UNL     1      -0.397  -2.656  -0.001  0.00  0.00    +0.047 A 
ATOM      4  C   UNL     1      -0.478  -4.011  -0.001  0.00  0.00    +0.027 A 
ATOM      5  C   UNL     1      -1.730  -4.654  -0.006  0.00  0.00    +0.041 A 
ATOM      6  N   UNL     1      -1.793  -5.986  -0.006  0.00  0.00    -0.284 N 
ATOM      7  C   UNL     1      -2.934  -6.654  -0.011  0.00  0.00    +0.226 C 
ATOM      8  O   UNL     1      -2.929  -7.871  -0.010  0.00  0.00    -0.275 OA
ATOM      9  C   UNL     1      -4.245  -5.901  -0.015  0.00  0.00    +0.116 C 
ATOM     10  C   UNL     1      -4.178  -4.386  -0.015  0.00  0.00    -0.003 C 
ATOM     11  C   UNL     1      -2.941  -3.815  -0.010  0.00  0.00    -0.004 A 
ATOM     12  C   UNL     1      -2.786  -2.360  -0.003  0.00  0.00    +0.055 A 
ATOM     13  H   UNL     1      -0.963  -6.488  -0.004  0.00  0.00    +0.155 HD
BRANCH   2  14
ATOM     14  O   UNL     1      -1.374  -0.483  -0.004  0.00  0.00    -0.492 OA
BRANCH  14  16
ATOM     15  C   UNL     1      -0.059   1.544  -0.004  0.00  0.00    +0.048 C 
ATOM     16  C   UNL     1      -0.034   0.015  -0.005  0.00  0.00    +0.225 C 
ENDBRANCH  14  16
ENDBRANCH   2  14
ENDBRANCH   1   9
BRANCH   1  17
ATOM     17  N   UNL     1      -5.379  -7.754  -1.139  0.00  0.00    -0.282 N 
ATOM     18  C   UNL     1      -4.541  -8.694  -1.619  0.00  0.00    +0.307 C 
ATOM     19  O   UNL     1      -3.497  -8.365  -2.147  0.00  0.00    -0.252 OA
ATOM     20  N   UNL     1      -4.861  -9.999  -1.513  0.00  0.00    -0.268 N 
ATOM     21  H   UNL     1      -5.653 -10.266  -1.021  0.00  0.00    +0.156 HD
BRANCH  20  22
ATOM     22  C   UNL     1      -4.051 -10.969  -2.115  0.00  0.00    +0.053 A 
ATOM     23  C   UNL     1      -3.258 -10.635  -3.205  0.00  0.00    +0.025 A 
ATOM     24  C   UNL     1      -2.459 -11.595  -3.796  0.00  0.00    +0.002 A 
ATOM     25  C   UNL     1      -2.449 -12.887  -3.304  0.00  0.00    +0.002 A 
ATOM     26  C   UNL     1      -3.237 -13.224  -2.219  0.00  0.00    +0.022 A 
ATOM     27  C   UNL     1      -4.034 -12.267  -1.619  0.00  0.00    +0.062 A 
ATOM     28 CL   UNL     1      -5.018 -12.688  -0.252  0.00  0.00    -0.082 Cl
ENDBRANCH  20  22
BRANCH  17  29
ATOM     29  C   UNL     1      -6.638  -8.150  -0.503  0.00  0.00    +0.137 C 
BRANCH  29  30
ATOM     30  C   UNL     1      -7.741  -8.228  -1.560  0.00  0.00    +0.175 C 
BRANCH  30  31
ATOM     31  O   UNL     1      -7.440  -9.274  -2.486  0.00  0.00    -0.393 OA
ATOM     32  H   UNL     1      -8.099  -9.381  -3.186  0.00  0.00    +0.209 HD
ENDBRANCH  30  31
ENDBRANCH  29  30
ENDBRANCH  17  29
ENDBRANCH   1  17
TORSDOF 8
