REMARK  Name = ZINC15955113
REMARK  2 active torsions:
REMARK  status: ('A' for Active; 'I' for Inactive)
REMARK    1  A    between atoms: C_1  and  C_2
REMARK    2  A    between atoms: N_21  and  C_24
REMARK                            x       y       z     vdW  Elec       q    Type
REMARK                         _______ _______ _______ _____ _____    ______ ____
ROOT
ATOM      1  C   UNL     1      -0.254   1.479  -0.064  0.00  0.00    +0.044 C 
ATOM      2  C   UNL     1      -0.213  -0.027  -0.060  0.00  0.00    -0.050 A 
ATOM      3  C   UNL     1      -0.252  -0.725  -1.254  0.00  0.00    +0.005 A 
ATOM      4  C   UNL     1      -0.213  -2.103  -1.258  0.00  0.00    +0.024 A 
ATOM      5  C   UNL     1      -0.136  -2.805  -0.057  0.00  0.00    +0.039 A 
ATOM      6  C   UNL     1      -0.098  -2.093   1.138  0.00  0.00    +0.004 A 
ATOM      7  C   UNL     1      -0.130  -0.716   1.137  0.00  0.00    +0.011 A 
ATOM      8  C   UNL     1      -0.017  -3.123   2.230  0.00  0.00    +0.138 C 
ATOM      9  C   UNL     1      -1.204  -3.008   3.193  0.00  0.00    +0.123 C 
ATOM     10  C   UNL     1      -0.611  -3.337   4.590  0.00  0.00    +0.107 C 
ATOM     11  C   UNL     1       0.877  -3.640   4.336  0.00  0.00    +0.071 C 
ATOM     12  N   UNL     1       1.198  -2.948   3.045  0.00  0.00    -0.281 NA
ATOM     13  C   UNL     1       1.363  -1.518   3.399  0.00  0.00    +0.086 C 
ATOM     14  C   UNL     1       2.061  -1.520   4.774  0.00  0.00    +0.017 C 
ATOM     15  C   UNL     1       1.732  -2.930   5.402  0.00  0.00    +0.021 C 
ATOM     16  C   UNL     1      -0.751  -2.034   5.344  0.00  0.00    +0.232 C 
ATOM     17  O   UNL     1      -0.402  -1.846   6.489  0.00  0.00    -0.274 OA
ATOM     18  N   UNL     1      -1.320  -1.119   4.549  0.00  0.00    -0.210 N 
ATOM     19  C   UNL     1      -1.628  -1.561   3.308  0.00  0.00    +0.233 C 
ATOM     20  O   UNL     1      -2.153  -0.912   2.429  0.00  0.00    -0.274 OA
ATOM     21  C   UNL     1      -0.015  -4.448   1.516  0.00  0.00    +0.243 C 
ATOM     22  O   UNL     1       0.040  -5.546   2.028  0.00  0.00    -0.273 OA
ATOM     23  N   UNL     1      -0.086  -4.177   0.198  0.00  0.00    -0.283 N 
ATOM     24  H   UNL     1      -0.100  -4.857  -0.494  0.00  0.00    +0.155 HD
ENDROOT
BRANCH  18  25
ATOM     25  C   UNL     1      -1.583   0.193   4.970  0.00  0.00    +0.048 A 
ATOM     26  C   UNL     1      -0.888   1.255   4.407  0.00  0.00    +0.028 A 
ATOM     27  C   UNL     1      -1.147   2.548   4.819  0.00  0.00    +0.051 A 
ATOM     28  C   UNL     1      -2.100   2.789   5.796  0.00  0.00    +0.166 A 
ATOM     29  C   UNL     1      -2.799   1.725   6.362  0.00  0.00    +0.168 A 
ATOM     30  C   UNL     1      -2.543   0.430   5.944  0.00  0.00    +0.073 A 
ATOM     31  O   UNL     1      -3.671   2.220   7.289  0.00  0.00    -0.453 OA
ATOM     32  C   UNL     1      -3.211   3.554   7.576  0.00  0.00    +0.466 C 
ATOM     33  O   UNL     1      -2.536   3.950   6.368  0.00  0.00    -0.453 OA
ENDBRANCH  18  25
TORSDOF 1
