REMARK  Name = ZINC40316810
REMARK  4 active torsions:
REMARK  status: ('A' for Active; 'I' for Inactive)
REMARK    1  A    between atoms: C_6  and  N_11
REMARK    2  A    between atoms: N_11  and  S_12
REMARK    3  A    between atoms: S_12  and  C_15
REMARK    4  A    between atoms: C_20  and  N_21
REMARK                            x       y       z     vdW  Elec       q    Type
REMARK                         _______ _______ _______ _____ _____    ______ ____
ROOT
ATOM      1  N   UNL     1       5.048  -2.736  -0.128  0.00  0.00    -0.216 N 
ATOM      2  H   UNL     1       5.797  -2.523  -0.707  0.00  0.00    +0.174 HD
ENDROOT
BRANCH   1   8
ATOM      3  C   UNL     1       0.161   1.260  -0.884  0.00  0.00    +0.001 A 
ATOM      4  C   UNL     1       1.346   1.993  -0.868  0.00  0.00    +0.001 A 
ATOM      5  C   UNL     1       2.549   1.374  -0.719  0.00  0.00    +0.008 A 
ATOM      6  C   UNL     1       2.600  -0.024  -0.577  0.00  0.00    -0.016 A 
ATOM      7  C   UNL     1       3.824  -0.695  -0.420  0.00  0.00    +0.033 A 
ATOM      8  C   UNL     1       3.833  -2.065  -0.285  0.00  0.00    +0.049 A 
ATOM      9  C   UNL     1       2.637  -2.793  -0.302  0.00  0.00    +0.025 A 
ATOM     10  C   UNL     1       1.441  -2.167  -0.453  0.00  0.00    +0.010 A 
ATOM     11  C   UNL     1       1.394  -0.768  -0.594  0.00  0.00    -0.018 A 
ATOM     12  C   UNL     1       0.171  -0.094  -0.750  0.00  0.00    +0.008 A 
ENDBRANCH   1   8
BRANCH   1  13
ATOM     13  S   UNL     1       5.210  -3.894   1.044  0.00  0.00    +0.074 S 
ATOM     14  O   UNL     1       6.548  -4.365   0.968  0.00  0.00    -0.150 OA
ATOM     15  O   UNL     1       4.662  -3.345   2.236  0.00  0.00    -0.150 OA
BRANCH  13  16
ATOM     16  C   UNL     1       4.173  -5.244   0.590  0.00  0.00    +0.129 A 
ATOM     17  C   UNL     1       3.102  -5.593   1.389  0.00  0.00    +0.031 A 
ATOM     18  C   UNL     1       2.288  -6.653   1.033  0.00  0.00    +0.002 A 
ATOM     19  C   UNL     1       2.543  -7.367  -0.124  0.00  0.00    +0.002 A 
ATOM     20  C   UNL     1       3.612  -7.022  -0.928  0.00  0.00    +0.025 A 
ATOM     21  C   UNL     1       4.429  -5.955  -0.576  0.00  0.00    +0.052 A 
BRANCH  21  22
ATOM     22  N   UNL     1       5.507  -5.601  -1.389  0.00  0.00    -0.356 N 
ATOM     23  H   UNL     1       6.031  -4.810  -1.184  0.00  0.00    +0.142 HD
ATOM     24  H   UNL     1       5.733  -6.146  -2.159  0.00  0.00    +0.142 HD
ENDBRANCH  21  22
ENDBRANCH  13  16
ENDBRANCH   1  13
TORSDOF 4
