REMARK  Name = ZINC17100855
REMARK  9 active torsions:
REMARK  status: ('A' for Active; 'I' for Inactive)
REMARK    1  A    between atoms: C_1  and  C_2
REMARK    2  A    between atoms: C_2  and  C_3
REMARK    3  A    between atoms: C_10  and  N_17
REMARK    4  A    between atoms: C_11  and  C_12
REMARK    5  A    between atoms: C_12  and  O_14
REMARK    6  A    between atoms: O_14  and  C_15
REMARK    7  A    between atoms: C_15  and  C_16
REMARK    8  A    between atoms: C_18  and  C_20
REMARK    9  A    between atoms: C_24  and  N_26
REMARK                            x       y       z     vdW  Elec       q    Type
REMARK                         _______ _______ _______ _____ _____    ______ ____
ROOT
ATOM      1  C   UNL     1      -6.704  -5.415  -0.347  0.00  0.00    -0.006 C 
ATOM      2  C   UNL     1      -5.792  -6.328   0.478  0.00  0.00    +0.008 C 
ATOM      3  C   UNL     1      -4.343  -6.176   0.010  0.00  0.00    +0.037 C 
ATOM      4  C   UNL     1      -3.980  -4.696   0.014  0.00  0.00    -0.021 A 
ATOM      5  C   UNL     1      -4.938  -3.744   0.027  0.00  0.00    -0.004 A 
ATOM      6  S   UNL     1      -4.053  -2.211   0.027  0.00  0.00    -0.077 S 
ATOM      7  C   UNL     1      -2.432  -2.822   0.009  0.00  0.00    +0.087 A 
ATOM      8  C   UNL     1      -2.614  -4.199  -0.002  0.00  0.00    +0.091 A 
ATOM      9  C   UNL     1      -6.420  -3.955   0.038  0.00  0.00    +0.046 C 
ENDROOT
BRANCH   7  10
ATOM     10  N   UNL     1      -1.244  -2.111   0.002  0.00  0.00    -0.275 N 
ATOM     11  C   UNL     1      -1.265  -0.763   0.010  0.00  0.00    +0.249 C 
ATOM     12  O   UNL     1      -2.328  -0.172   0.022  0.00  0.00    -0.270 OA
ATOM     13  H   UNL     1      -0.396  -2.582  -0.008  0.00  0.00    +0.156 HD
BRANCH  11  14
ATOM     14  C   UNL     1       0.002  -0.004   0.002  0.00  0.00    +0.039 A 
ATOM     15  C   UNL     1       1.224  -0.680  -0.013  0.00  0.00    +0.014 A 
ATOM     16  C   UNL     1       2.404   0.034  -0.021  0.00  0.00    +0.023 A 
ATOM     17  C   UNL     1       2.378   1.419  -0.013  0.00  0.00    +0.071 A 
ATOM     18  C   UNL     1       1.170   2.095   0.002  0.00  0.00    +0.145 A 
ATOM     19  C   UNL     1      -0.017   1.392   0.010  0.00  0.00    +0.047 A 
ATOM     20 CL   UNL     1       3.868   2.311  -0.022  0.00  0.00    -0.081 Cl
BRANCH  18  21
ATOM     21  N   UNL     1       1.151   3.575   0.010  0.00  0.00    +0.058 N 
ATOM     22  O   UNL     1       0.089   4.171   0.023  0.00  0.00    -0.126 OA
ATOM     23  O   UNL     1       2.199   4.197   0.003  0.00  0.00    -0.126 OA
ENDBRANCH  18  21
ENDBRANCH  11  14
ENDBRANCH   7  10
BRANCH   1  25
ATOM     24  C   UNL     1      -9.074  -4.923  -0.965  0.00  0.00    +0.004 C 
ATOM     25  C   UNL     1      -8.167  -5.748  -0.050  0.00  0.00    +0.000 C 
ENDBRANCH   1  25
BRANCH   8  26
ATOM     26  C   UNL     1      -1.472  -5.116  -0.025  0.00  0.00    +0.342 C 
ATOM     27  O   UNL     1      -0.986  -5.507   1.019  0.00  0.00    -0.245 OA
BRANCH  26  28
ATOM     28  O   UNL     1      -0.960  -5.526  -1.203  0.00  0.00    -0.461 OA
BRANCH  28  29
ATOM     29  C   UNL     1       0.171  -6.435  -1.149  0.00  0.00    +0.229 C 
ATOM     30  C   UNL     1       0.611  -6.787  -2.572  0.00  0.00    +0.048 C 
ENDBRANCH  28  29
ENDBRANCH  26  28
ENDBRANCH   8  26
TORSDOF 7
