REMARK  Name = ZINC02199001
REMARK  8 active torsions:
REMARK  status: ('A' for Active; 'I' for Inactive)
REMARK    1  A    between atoms: C_1  and  C_2
REMARK    2  A    between atoms: C_2  and  C_3
REMARK    3  A    between atoms: C_2  and  C_4
REMARK    4  A    between atoms: C_4  and  C_5
REMARK    5  A    between atoms: C_11  and  N_15
REMARK    6  A    between atoms: N_15  and  N_16
REMARK    7  A    between atoms: C_21  and  C_24
REMARK    8  A    between atoms: C_21  and  C_25
REMARK                            x       y       z     vdW  Elec       q    Type
REMARK                         _______ _______ _______ _____ _____    ______ ____
ROOT
ATOM      1  C   UNL     1       3.044  -1.954  -0.043  0.00  0.00    +0.051 A 
ATOM      2  C   UNL     1       3.972  -0.922  -0.041  0.00  0.00    +0.004 A 
ATOM      3  C   UNL     1       3.524   0.382  -0.029  0.00  0.00    -0.023 A 
ATOM      4  C   UNL     1       2.149   0.609  -0.015  0.00  0.00    +0.070 A 
ATOM      5  C   UNL     1       1.303   1.813  -0.001  0.00  0.00    +0.124 A 
ATOM      6  C   UNL     1      -0.016   1.345   0.009  0.00  0.00    +0.197 A 
ATOM      7  C   UNL     1      -1.046   2.292   0.019  0.00  0.00    +0.179 A 
ATOM      8  N   UNL     1      -0.728   3.583   0.030  0.00  0.00    -0.216 NA
ATOM      9  C   UNL     1       0.531   3.978   0.019  0.00  0.00    +0.224 A 
ATOM     10  N   UNL     1       1.532   3.123   0.005  0.00  0.00    -0.231 NA
ATOM     11  O   UNL     1       0.002  -0.004   0.002  0.00  0.00    -0.432 OA
ATOM     12  C   UNL     1       1.265  -0.482  -0.014  0.00  0.00    +0.231 A 
ATOM     13  N   UNL     1       1.750  -1.716  -0.030  0.00  0.00    -0.217 NA
ATOM     14  C   UNL     1       4.480   1.543  -0.034  0.00  0.00    +0.070 C 
ATOM     15  C   UNL     1       5.878   1.062   0.364  0.00  0.00    +0.068 C 
ATOM     16  O   UNL     1       6.200  -0.095  -0.415  0.00  0.00    -0.369 OA
ATOM     17  C   UNL     1       5.441  -1.248  -0.050  0.00  0.00    +0.197 C 
ATOM     18  C   UNL     1       6.899   2.168   0.089  0.00  0.00    +0.041 C 
ATOM     19  C   UNL     1       5.894   0.707   1.852  0.00  0.00    +0.041 C 
ENDROOT
BRANCH   7  20
ATOM     20  N   UNL     1      -2.374   1.892   0.023  0.00  0.00    -0.265 N 
ATOM     21  H   UNL     1      -2.596   0.948   0.019  0.00  0.00    +0.168 HD
BRANCH  20  22
ATOM     22  N   UNL     1      -3.369   2.828   0.033  0.00  0.00    -0.255 NA
ATOM     23  H   UNL     1      -3.276   3.463  -0.746  0.00  0.00    +0.140 HD
ATOM     24  H   UNL     1      -4.278   2.389   0.035  0.00  0.00    +0.140 HD
ENDBRANCH  20  22
ENDBRANCH   7  20
BRANCH   1  25
ATOM     25  C   UNL     1       3.530  -3.381  -0.060  0.00  0.00    +0.059 C 
BRANCH  25  27
ATOM     26  C   UNL     1       4.078  -5.360   1.362  0.00  0.00    +0.007 C 
ATOM     27  C   UNL     1       3.706  -3.877   1.377  0.00  0.00    -0.011 C 
ATOM     28  C   UNL     1       4.819  -3.078   2.059  0.00  0.00    +0.007 C 
ENDBRANCH  25  27
ENDBRANCH   1  25
TORSDOF 4
