REMARK  Name = ZINC58417186
REMARK  7 active torsions:
REMARK  status: ('A' for Active; 'I' for Inactive)
REMARK    1  A    between atoms: C_1  and  N_2
REMARK    2  A    between atoms: N_2  and  C_3
REMARK    3  A    between atoms: N_2  and  S_4
REMARK    4  A    between atoms: S_4  and  C_7
REMARK    5  A    between atoms: C_10  and  N_13
REMARK    6  A    between atoms: N_16  and  C_17
REMARK    7  A    between atoms: C_23  and  O_25
REMARK                            x       y       z     vdW  Elec       q    Type
REMARK                         _______ _______ _______ _____ _____    ______ ____
ROOT
ATOM      1  N   UNL     1       5.659  -1.616  -3.013  0.00  0.00    -0.269 N 
ATOM      2  C   UNL     1       6.351  -2.670  -2.537  0.00  0.00    +0.304 C 
ATOM      3  O   UNL     1       5.790  -3.508  -1.857  0.00  0.00    -0.252 OA
ATOM      4  N   UNL     1       7.664  -2.796  -2.814  0.00  0.00    -0.294 N 
ATOM      5  H   UNL     1       6.090  -0.983  -3.610  0.00  0.00    +0.156 HD
ATOM      6  H   UNL     1       8.111  -2.127  -3.356  0.00  0.00    +0.151 HD
ENDROOT
BRANCH   1  10
ATOM      7  C   UNL     1       1.675  -1.072  -1.922  0.00  0.00    +0.106 A 
ATOM      8  C   UNL     1       2.175  -2.350  -2.097  0.00  0.00    +0.030 A 
ATOM      9  C   UNL     1       3.495  -2.533  -2.459  0.00  0.00    +0.025 A 
ATOM     10  C   UNL     1       4.321  -1.433  -2.647  0.00  0.00    +0.035 A 
ATOM     11  C   UNL     1       3.817  -0.151  -2.471  0.00  0.00    +0.025 A 
ATOM     12  C   UNL     1       2.494   0.026  -2.115  0.00  0.00    +0.030 A 
BRANCH   7  13
ATOM     13  S   UNL     1      -0.009  -0.842  -1.460  0.00  0.00    +0.060 S 
ATOM     14  O   UNL     1      -0.089   0.431  -0.835  0.00  0.00    -0.153 OA
ATOM     15  O   UNL     1      -0.419  -2.038  -0.810  0.00  0.00    -0.153 OA
BRANCH  13  17
ATOM     16  C   UNL     1      -1.448  -1.950  -3.465  0.00  0.00    +0.131 C 
ATOM     17  N   UNL     1      -0.890  -0.738  -2.859  0.00  0.00    -0.183 NA
ATOM     18  C   UNL     1      -1.112   0.565  -3.490  0.00  0.00    +0.131 C 
ENDBRANCH  13  17
ENDBRANCH   7  13
ENDBRANCH   1  10
BRANCH   4  19
ATOM     19  C   UNL     1       8.415  -3.942  -2.296  0.00  0.00    +0.103 C 
ATOM     20  C   UNL     1       8.893  -3.638  -0.875  0.00  0.00    +0.025 C 
ATOM     21  C   UNL     1       9.678  -4.835  -0.334  0.00  0.00    +0.002 C 
ATOM     22  C   UNL     1      10.887  -5.101  -1.234  0.00  0.00    +0.003 C 
ATOM     23  C   UNL     1      10.408  -5.405  -2.655  0.00  0.00    +0.033 C 
ATOM     24  C   UNL     1       9.624  -4.208  -3.195  0.00  0.00    +0.135 C 
BRANCH  24  25
ATOM     25  O   UNL     1       9.177  -4.492  -4.523  0.00  0.00    -0.390 OA
ATOM     26  H   UNL     1       9.892  -4.670  -5.149  0.00  0.00    +0.210 HD
ENDBRANCH  24  25
ENDBRANCH   4  19
TORSDOF 5
