REMARK  Name = ZINC00876439
REMARK  4 active torsions:
REMARK  status: ('A' for Active; 'I' for Inactive)
REMARK    1  A    between atoms: C_1  and  C_2
REMARK    2  A    between atoms: C_12  and  C_14
REMARK    3  A    between atoms: C_27  and  N_31
REMARK    4  A    between atoms: C_28  and  C_29
REMARK                            x       y       z     vdW  Elec       q    Type
REMARK                         _______ _______ _______ _____ _____    ______ ____
ROOT
ATOM      1  C   UNL     1       4.933   1.185  -0.037  0.00  0.00    +0.103 C 
ATOM      2  C   UNL     1       3.590   1.869  -0.022  0.00  0.00    +0.008 A 
ATOM      3  C   UNL     1       3.544   3.264  -0.018  0.00  0.00    +0.009 A 
ATOM      4  C   UNL     1       2.360   3.933  -0.004  0.00  0.00    +0.009 A 
ATOM      5  C   UNL     1       1.153   3.213   0.006  0.00  0.00    -0.014 A 
ATOM      6  C   UNL     1      -0.090   3.870   0.023  0.00  0.00    +0.008 A 
ATOM      7  C   UNL     1      -1.237   3.137   0.031  0.00  0.00    +0.001 A 
ATOM      8  C   UNL     1      -1.199   1.744   0.017  0.00  0.00    +0.001 A 
ATOM      9  C   UNL     1      -0.013   1.076   0.008  0.00  0.00    +0.012 A 
ATOM     10  C   UNL     1       1.192   1.798   0.000  0.00  0.00    +0.025 A 
ATOM     11  C   UNL     1       2.439   1.136  -0.013  0.00  0.00    +0.142 A 
ATOM     12  O   UNL     1       2.469  -0.218  -0.015  0.00  0.00    -0.440 OA
ATOM     13  C   UNL     1       3.575  -0.865  -0.421  0.00  0.00    +0.199 C 
ATOM     14  C   UNL     1       4.782  -0.251  -0.454  0.00  0.00    +0.098 C 
ENDROOT
BRANCH   1  26
ATOM     15  C   UNL     1       6.345   0.686   6.364  0.00  0.00    +0.046 C 
ATOM     16  C   UNL     1       7.096   1.327   5.226  0.00  0.00    -0.026 A 
ATOM     17  C   UNL     1       8.304   1.949   5.458  0.00  0.00    +0.005 A 
ATOM     18  C   UNL     1       9.007   2.543   4.418  0.00  0.00    +0.001 A 
ATOM     19  C   UNL     1       8.512   2.524   3.145  0.00  0.00    +0.010 A 
ATOM     20  C   UNL     1       7.288   1.899   2.886  0.00  0.00    -0.001 A 
ATOM     21  C   UNL     1       6.573   1.295   3.938  0.00  0.00    +0.052 A 
ATOM     22  N   UNL     1       5.366   0.682   3.677  0.00  0.00    -0.322 N 
ATOM     23  H   UNL     1       4.875   0.266   4.403  0.00  0.00    +0.169 HD
ATOM     24  C   UNL     1       4.860   0.651   2.432  0.00  0.00    +0.253 A 
ATOM     25  O   UNL     1       3.790   0.101   2.238  0.00  0.00    -0.268 OA
ATOM     26  C   UNL     1       5.537   1.242   1.343  0.00  0.00    +0.030 A 
ATOM     27  C   UNL     1       6.731   1.856   1.533  0.00  0.00    +0.020 A 
ENDBRANCH   1  26
BRANCH  13  28
ATOM     28  N   UNL     1       3.479  -2.178  -0.811  0.00  0.00    -0.328 N 
ATOM     29  H   UNL     1       4.270  -2.655  -1.105  0.00  0.00    +0.145 HD
ATOM     30  H   UNL     1       2.620  -2.628  -0.791  0.00  0.00    +0.145 HD
ENDBRANCH  13  28
BRANCH  14  31
ATOM     31  C   UNL     1       5.933  -0.982  -0.893  0.00  0.00    +0.101 C 
ATOM     32  N   UNL     1       6.845  -1.561  -1.242  0.00  0.00    -0.191 NA
ENDBRANCH  14  31
TORSDOF 3
