REMARK  Name = ZINC07560427
REMARK  7 active torsions:
REMARK  status: ('A' for Active; 'I' for Inactive)
REMARK    1  A    between atoms: C_1  and  C_2
REMARK    2  A    between atoms: C_5  and  N_8
REMARK    3  A    between atoms: C_9  and  C_11
REMARK    4  A    between atoms: C_11  and  N_12
REMARK    5  A    between atoms: C_15  and  C_19
REMARK    6  A    between atoms: C_15  and  C_20
REMARK    7  A    between atoms: C_20  and  C_21
REMARK                            x       y       z     vdW  Elec       q    Type
REMARK                         _______ _______ _______ _____ _____    ______ ____
ROOT
ATOM      1  N   UNL     1       1.050   2.039   0.003  0.00  0.00    -0.215 N 
ATOM      2  C   UNL     1      -0.011   1.208   0.017  0.00  0.00    +0.247 C 
ATOM      3  O   UNL     1       0.009  -0.004   0.018  0.00  0.00    -0.273 OA
ATOM      4  C   UNL     1      -1.234   2.104   0.024  0.00  0.00    +0.114 C 
ATOM      5  N   UNL     1      -0.667   3.464   0.020  0.00  0.00    -0.285 N 
ATOM      6  C   UNL     1       0.671   3.323   0.005  0.00  0.00    +0.310 C 
ATOM      7  O   UNL     1       1.449   4.257  -0.005  0.00  0.00    -0.252 OA
ATOM      8  C   UNL     1      -2.081   1.868  -1.229  0.00  0.00    +0.042 C 
ATOM      9  H   UNL     1      -1.162   4.298   0.025  0.00  0.00    +0.151 HD
ENDROOT
BRANCH   1  10
ATOM     10  C   UNL     1       2.445   1.593  -0.013  0.00  0.00    +0.214 C 
BRANCH  10  12
ATOM     11  N   UNL     1       4.166   1.034  -1.699  0.00  0.00    -0.284 N 
ATOM     12  C   UNL     1       2.907   1.438  -1.439  0.00  0.00    +0.235 C 
ATOM     13  O   UNL     1       2.145   1.677  -2.352  0.00  0.00    -0.274 OA
ATOM     14  H   UNL     1       4.795   0.908  -0.972  0.00  0.00    +0.155 HD
BRANCH  11  19
ATOM     15  C   UNL     1       5.786   0.074  -7.051  0.00  0.00    +0.044 C 
ATOM     16  C   UNL     1       5.356   0.329  -5.629  0.00  0.00    -0.050 A 
ATOM     17  C   UNL     1       4.461   1.346  -5.351  0.00  0.00    +0.005 A 
ATOM     18  C   UNL     1       4.065   1.583  -4.049  0.00  0.00    +0.023 A 
ATOM     19  C   UNL     1       4.565   0.798  -3.019  0.00  0.00    +0.033 A 
ATOM     20  C   UNL     1       5.468  -0.220  -3.301  0.00  0.00    +0.023 A 
ATOM     21  C   UNL     1       5.856  -0.454  -4.605  0.00  0.00    +0.005 A 
ENDBRANCH  11  19
ENDBRANCH  10  12
ENDBRANCH   1  10
BRANCH   4  22
ATOM     22  C   UNL     1      -2.064   1.872   1.288  0.00  0.00    +0.070 C 
BRANCH  22  23
ATOM     23  C   UNL     1      -3.271   2.774   1.268  0.00  0.00    -0.041 A 
ATOM     24  C   UNL     1      -3.200   4.035   1.831  0.00  0.00    +0.007 A 
ATOM     25  C   UNL     1      -4.303   4.868   1.812  0.00  0.00    +0.050 A 
ATOM     26  C   UNL     1      -5.487   4.436   1.236  0.00  0.00    +0.166 A 
ATOM     27  C   UNL     1      -5.561   3.164   0.674  0.00  0.00    +0.166 A 
ATOM     28  C   UNL     1      -4.449   2.337   0.693  0.00  0.00    +0.053 A 
ATOM     29  O   UNL     1      -6.819   2.978   0.179  0.00  0.00    -0.453 OA
ATOM     30  C   UNL     1      -7.391   4.296   0.078  0.00  0.00    +0.466 C 
ATOM     31  O   UNL     1      -6.699   5.047   1.093  0.00  0.00    -0.453 OA
ENDBRANCH  22  23
ENDBRANCH   4  22
TORSDOF 5
