REMARK  Name = ZINC32095451
REMARK  9 active torsions:
REMARK  status: ('A' for Active; 'I' for Inactive)
REMARK    1  A    between atoms: C_1  and  C_2
REMARK    2  A    between atoms: C_10  and  O_13
REMARK    3  A    between atoms: O_13  and  C_14
REMARK    4  A    between atoms: C_16  and  O_30
REMARK    5  A    between atoms: C_18  and  C_20
REMARK    6  A    between atoms: C_24  and  O_26
REMARK    7  A    between atoms: O_26  and  C_27
REMARK    8  A    between atoms: C_27  and  C_28
REMARK    9  A    between atoms: C_27  and  C_29
REMARK                            x       y       z     vdW  Elec       q    Type
REMARK                         _______ _______ _______ _____ _____    ______ ____
ROOT
ATOM      1  C   UNL     1      -0.375   1.138  -0.277  0.00  0.00    +0.068 C 
ATOM      2  C   UNL     1      -0.237  -0.357  -0.408  0.00  0.00    +0.066 A 
ATOM      3  C   UNL     1      -0.012  -1.048  -1.584  0.00  0.00    +0.027 A 
ATOM      4  C   UNL     1       0.056  -2.400  -1.279  0.00  0.00    +0.165 A 
ATOM      5  N   UNL     1      -0.132  -2.517   0.057  0.00  0.00    -0.194 N 
ATOM      6  N   UNL     1      -0.304  -1.224   0.577  0.00  0.00    -0.168 NA
ATOM      7  C   UNL     1      -0.146  -3.710   0.787  0.00  0.00    +0.178 A 
ATOM      8  C   UNL     1       0.165  -3.701   2.146  0.00  0.00    +0.055 A 
ATOM      9  C   UNL     1       0.136  -4.907   2.827  0.00  0.00    +0.072 A 
ATOM     10  C   UNL     1      -0.201  -6.054   2.111  0.00  0.00    +0.234 A 
ATOM     11  N   UNL     1      -0.481  -5.966   0.821  0.00  0.00    -0.110 NA
ATOM     12  N   UNL     1      -0.461  -4.848   0.191  0.00  0.00    -0.126 NA
ATOM     13  N   UNL     1       0.285  -3.339  -2.241  0.00  0.00    -0.197 NA
ATOM     14  C   UNL     1       0.723  -2.958  -3.404  0.00  0.00    +0.190 C 
ATOM     15  C   UNL     1       1.056  -1.534  -3.741  0.00  0.00    +0.108 C 
ATOM     16  C   UNL     1       0.144  -0.550  -2.999  0.00  0.00    +0.063 C 
ENDROOT
BRANCH  16  17
ATOM     17  C   UNL     1       0.771   0.821  -2.991  0.00  0.00    -0.036 A 
ATOM     18  C   UNL     1       2.027   1.003  -2.442  0.00  0.00    +0.004 A 
ATOM     19  C   UNL     1       2.605   2.258  -2.434  0.00  0.00    +0.004 A 
ATOM     20  C   UNL     1       1.929   3.335  -2.974  0.00  0.00    +0.045 A 
ATOM     21  C   UNL     1       0.669   3.155  -3.526  0.00  0.00    +0.121 A 
ATOM     22  C   UNL     1       0.093   1.893  -3.538  0.00  0.00    +0.050 A 
BRANCH  21  23
ATOM     23  O   UNL     1       0.001   4.213  -4.058  0.00  0.00    -0.489 OA
BRANCH  23  24
ATOM     24  C   UNL     1       0.703   5.455  -4.125  0.00  0.00    +0.167 C 
ATOM     25  C   UNL     1       0.113   6.315  -5.245  0.00  0.00    +0.051 C 
ATOM     26  C   UNL     1       0.566   6.192  -2.791  0.00  0.00    +0.051 C 
ENDBRANCH  23  24
ENDBRANCH  21  23
ENDBRANCH  16  17
BRANCH  10  27
ATOM     27  O   UNL     1      -0.241  -7.258   2.736  0.00  0.00    -0.479 OA
ATOM     28  C   UNL     1      -0.594  -8.391   1.939  0.00  0.00    +0.279 C 
ENDBRANCH  10  27
BRANCH  14  29
ATOM     29  O   UNL     1       0.887  -3.895  -4.361  0.00  0.00    -0.495 OA
ATOM     30  H   UNL     1       0.655  -4.790  -4.079  0.00  0.00    +0.293 HD
ENDBRANCH  14  29
TORSDOF 5
