REMARK  Name = ZINC09008090
REMARK  11 active torsions:
REMARK  status: ('A' for Active; 'I' for Inactive)
REMARK    1  A    between atoms: C_1  and  C_2
REMARK    2  A    between atoms: C_5  and  C_8
REMARK    3  A    between atoms: C_11  and  C_12
REMARK    4  A    between atoms: C_11  and  O_24
REMARK    5  A    between atoms: N_15  and  C_18
REMARK    6  A    between atoms: C_16  and  C_17
REMARK    7  A    between atoms: N_29  and  C_30
REMARK    8  A    between atoms: C_30  and  C_31
REMARK    9  A    between atoms: C_31  and  N_61
REMARK   10  A    between atoms: C_32  and  N_61
REMARK   11  A    between atoms: C_33  and  N_61
REMARK                            x       y       z     vdW  Elec       q    Type
REMARK                         _______ _______ _______ _____ _____    ______ ____
ROOT
ATOM      1  C   UNL     1       0.251   0.380   0.433  0.00  0.00    +0.144 C 
ATOM      2  C   UNL     1       1.649  -0.145   0.206  0.00  0.00    +0.071 C 
ATOM      3  C   UNL     1       2.004  -1.429  -0.167  0.00  0.00    +0.136 C 
ATOM      4  C   UNL     1       2.514   0.929   0.452  0.00  0.00    +0.249 C 
ATOM      5  O   UNL     1       3.730   0.900   0.373  0.00  0.00    -0.282 OA
ATOM      6  C   UNL     1       1.693   2.111   0.826  0.00  0.00    +0.288 C 
ATOM      7  O   UNL     1       2.136   3.208   1.102  0.00  0.00    -0.266 OA
ATOM      8  N   UNL     1       0.388   1.789   0.813  0.00  0.00    -0.285 N 
ENDROOT
BRANCH   1  13
ATOM      9  C   UNL     1      -2.310  -2.577   4.687  0.00  0.00    +0.044 C 
ATOM     10  C   UNL     1      -1.642  -1.806   3.577  0.00  0.00    -0.050 A 
ATOM     11  C   UNL     1      -1.967  -2.069   2.260  0.00  0.00    +0.004 A 
ATOM     12  C   UNL     1      -1.355  -1.361   1.242  0.00  0.00    +0.006 A 
ATOM     13  C   UNL     1      -0.417  -0.391   1.542  0.00  0.00    -0.022 A 
ATOM     14  C   UNL     1      -0.087  -0.132   2.860  0.00  0.00    +0.006 A 
ATOM     15  C   UNL     1      -0.704  -0.836   3.877  0.00  0.00    +0.004 A 
ENDBRANCH   1  13
BRANCH   3  16
ATOM     16  C   UNL     1       3.421  -1.816  -0.213  0.00  0.00    +0.058 A 
ATOM     17  C   UNL     1       4.368  -1.667   0.829  0.00  0.00    +0.146 A 
ATOM     18  N   UNL     1       5.512  -2.127   0.404  0.00  0.00    -0.174 NA
ATOM     19  N   UNL     1       5.360  -2.585  -0.909  0.00  0.00    -0.236 N 
ATOM     20  C   UNL     1       4.081  -2.399  -1.282  0.00  0.00    +0.052 A 
ATOM     21  C   UNL     1       3.478  -2.756  -2.616  0.00  0.00    +0.066 C 
BRANCH  19  22
ATOM     22  C   UNL     1       6.369  -3.149  -1.702  0.00  0.00    +0.066 A 
ATOM     23  C   UNL     1       6.115  -4.298  -2.439  0.00  0.00    +0.028 A 
ATOM     24  C   UNL     1       7.110  -4.848  -3.222  0.00  0.00    +0.002 A 
ATOM     25  C   UNL     1       8.362  -4.263  -3.264  0.00  0.00    +0.000 A 
ATOM     26  C   UNL     1       8.620  -3.121  -2.527  0.00  0.00    +0.002 A 
ATOM     27  C   UNL     1       7.628  -2.563  -1.746  0.00  0.00    +0.028 A 
ENDBRANCH  19  22
ENDBRANCH   3  16
BRANCH   3  28
ATOM     28  O   UNL     1       1.049  -2.326  -0.490  0.00  0.00    -0.506 OA
ATOM     29  H   UNL     1       1.478  -3.196  -0.734  0.00  0.00    +0.292 HD
ENDBRANCH   3  28
BRANCH   8  30
ATOM     30  C   UNL     1      -0.717   2.699   1.123  0.00  0.00    +0.090 C 
BRANCH  30  31
ATOM     31  C   UNL     1      -1.027   2.634   2.619  0.00  0.00    -0.060 C 
BRANCH  31  34
ATOM     32  C   UNL     1      -3.382   3.098   2.295  0.00  0.00    -0.097 C 
ATOM     33  C   UNL     1      -2.307   3.692   4.382  0.00  0.00    -0.097 C 
ATOM     34  N   UNL     1      -2.129   3.573   2.919  0.00  0.00    +0.377 N 
ATOM     35  H   UNL     1      -1.895   4.496   2.536  0.00  0.00    -0.083 HD
ENDBRANCH  31  34
ENDBRANCH  30  31
ENDBRANCH   8  30
TORSDOF 7
