REMARK  Name = ZINC48911182
REMARK  9 active torsions:
REMARK  status: ('A' for Active; 'I' for Inactive)
REMARK    1  A    between atoms: C_1  and  N_2
REMARK    2  A    between atoms: N_2  and  C_3
REMARK    3  A    between atoms: N_2  and  C_4
REMARK    4  A    between atoms: C_4  and  C_6
REMARK    5  A    between atoms: C_4  and  C_22
REMARK    6  A    between atoms: C_6  and  N_7
REMARK    7  A    between atoms: C_8  and  C_10
REMARK    8  A    between atoms: N_12  and  C_13
REMARK    9  A    between atoms: C_17  and  N_19
REMARK                            x       y       z     vdW  Elec       q    Type
REMARK                         _______ _______ _______ _____ _____    ______ ____
ROOT
ATOM      1  N   UNL     1      -1.673   1.292  -1.422  0.00  0.00    -0.309 N 
ATOM      2  C   UNL     1      -2.061   1.918  -2.551  0.00  0.00    +0.299 C 
ATOM      3  O   UNL     1      -2.641   1.300  -3.419  0.00  0.00    -0.265 OA
ATOM      4  H   UNL     1      -1.210   1.786  -0.728  0.00  0.00    +0.149 HD
ENDROOT
BRANCH   2   5
ATOM      5  C   UNL     1      -1.776   3.373  -2.733  0.00  0.00    +0.303 C 
ATOM      6  O   UNL     1      -1.196   3.991  -1.864  0.00  0.00    -0.265 OA
ATOM      7  N   UNL     1      -2.163   3.999  -3.862  0.00  0.00    -0.278 N 
ATOM      8  H   UNL     1      -2.692   3.525  -4.523  0.00  0.00    +0.155 HD
BRANCH   7   9
ATOM      9  C   UNL     1      -1.804   5.331  -4.080  0.00  0.00    +0.036 A 
ATOM     10  C   UNL     1      -2.672   6.186  -4.748  0.00  0.00    +0.023 A 
ATOM     11  C   UNL     1      -2.314   7.503  -4.961  0.00  0.00    +0.004 A 
ATOM     12  C   UNL     1      -1.093   7.971  -4.511  0.00  0.00    +0.033 A 
ATOM     13  C   UNL     1      -0.227   7.123  -3.846  0.00  0.00    +0.128 A 
ATOM     14  C   UNL     1      -0.581   5.806  -3.624  0.00  0.00    +0.056 A 
BRANCH  13  15
ATOM     15  N   UNL     1       1.079   7.628  -3.366  0.00  0.00    +0.056 N 
ATOM     16  O   UNL     1       1.388   8.781  -3.556  0.00  0.00    -0.126 OA
ATOM     17  O   UNL     1       1.837   6.887  -2.784  0.00  0.00    -0.126 OA
ENDBRANCH  13  15
ENDBRANCH   7   9
ENDBRANCH   2   5
BRANCH   1  18
ATOM     18  C   UNL     1      -1.952  -0.136  -1.243  0.00  0.00    +0.094 C 
BRANCH  18  19
ATOM     19  C   UNL     1      -1.305  -0.623   0.054  0.00  0.00    -0.020 C 
BRANCH  19  20
ATOM     20  C   UNL     1       0.195  -0.553  -0.075  0.00  0.00    -0.041 A 
ATOM     21  C   UNL     1       0.888   0.504   0.485  0.00  0.00    +0.003 A 
ATOM     22  C   UNL     1       2.264   0.569   0.367  0.00  0.00    +0.000 A 
ATOM     23  C   UNL     1       2.947  -0.423  -0.312  0.00  0.00    +0.001 A 
ATOM     24  C   UNL     1       2.255  -1.480  -0.873  0.00  0.00    +0.020 A 
ATOM     25  C   UNL     1       0.878  -1.548  -0.750  0.00  0.00    +0.043 A 
ATOM     26 CL   UNL     1       0.009  -2.879  -1.448  0.00  0.00    -0.083 Cl
ENDBRANCH  19  20
BRANCH  19  28
ATOM     27  C   UNL     1      -3.208   0.232   1.238  0.00  0.00    -0.096 C 
ATOM     28  N   UNL     1      -1.741   0.228   1.169  0.00  0.00    +0.382 N 
ATOM     29  C   UNL     1      -1.194  -0.295   2.428  0.00  0.00    -0.096 C 
ATOM     30  H   UNL     1      -1.409   1.170   1.023  0.00  0.00    -0.082 HD
ENDBRANCH  19  28
ENDBRANCH  18  19
ENDBRANCH   1  18
TORSDOF 7
