REMARK  Name = ZINC33039433
REMARK  7 active torsions:
REMARK  status: ('A' for Active; 'I' for Inactive)
REMARK    1  A    between atoms: C_1  and  C_2
REMARK    2  A    between atoms: C_6  and  C_25
REMARK    3  A    between atoms: C_7  and  N_8
REMARK    4  A    between atoms: C_14  and  C_15
REMARK    5  A    between atoms: C_17  and  C_23
REMARK    6  A    between atoms: C_18  and  C_22
REMARK    7  A    between atoms: C_20  and  C_21
REMARK                            x       y       z     vdW  Elec       q    Type
REMARK                         _______ _______ _______ _____ _____    ______ ____
ROOT
ATOM      1  N   UNL     1      -3.461   4.787  -1.633  0.00  0.00    -0.225 NA
ATOM      2  C   UNL     1      -2.804   3.735  -1.202  0.00  0.00    +0.166 C 
ATOM      3  N   UNL     1      -3.304   2.504  -0.834  0.00  0.00    -0.260 N 
ATOM      4  C   UNL     1      -2.494   1.543  -0.424  0.00  0.00    +0.256 C 
ATOM      5  O   UNL     1      -2.918   0.449  -0.101  0.00  0.00    -0.269 OA
ATOM      6  C   UNL     1      -1.052   1.859  -0.371  0.00  0.00    +0.078 C 
ATOM      7  C   UNL     1      -0.013   1.076   0.008  0.00  0.00    +0.028 C 
ATOM      8  S   UNL     1      -1.046   3.550  -0.950  0.00  0.00    -0.049 S 
ATOM      9  H   UNL     1      -4.387   2.315  -0.879  0.00  0.00    +0.157 HD
ENDROOT
BRANCH   7  10
ATOM     10  C   UNL     1       1.368   1.542  -0.186  0.00  0.00    -0.021 A 
ATOM     11  C   UNL     1       1.640   2.583  -1.081  0.00  0.00    +0.011 A 
ATOM     12  C   UNL     1       2.937   3.018  -1.253  0.00  0.00    -0.047 A 
ATOM     13  C   UNL     1       3.970   2.421  -0.551  0.00  0.00    -0.047 A 
ATOM     14  C   UNL     1       3.710   1.388   0.333  0.00  0.00    +0.007 A 
ATOM     15  C   UNL     1       2.418   0.945   0.520  0.00  0.00    -0.043 A 
ATOM     16  C   UNL     1       2.137  -0.181   1.482  0.00  0.00    +0.044 C 
ATOM     17  C   UNL     1       5.385   2.898  -0.750  0.00  0.00    +0.044 C 
ATOM     18  C   UNL     1       3.231   4.142  -2.212  0.00  0.00    +0.044 C 
ENDBRANCH   7  10
BRANCH   1  25
ATOM     19  C   UNL     1      -4.522   3.940  -4.130  0.00  0.00    +0.046 C 
ATOM     20  C   UNL     1      -5.399   4.329  -2.968  0.00  0.00    -0.025 A 
ATOM     21  C   UNL     1      -6.771   4.278  -3.090  0.00  0.00    +0.005 A 
ATOM     22  C   UNL     1      -7.578   4.640  -2.025  0.00  0.00    +0.001 A 
ATOM     23  C   UNL     1      -7.014   5.052  -0.830  0.00  0.00    +0.005 A 
ATOM     24  C   UNL     1      -5.643   5.103  -0.693  0.00  0.00    -0.025 A 
ATOM     25  C   UNL     1      -4.823   4.739  -1.763  0.00  0.00    +0.072 A 
ATOM     26  C   UNL     1      -5.031   5.551   0.610  0.00  0.00    +0.046 C 
ENDBRANCH   1  25
TORSDOF 2
