REMARK  Name = ZINC45820080
REMARK  8 active torsions:
REMARK  status: ('A' for Active; 'I' for Inactive)
REMARK    1  A    between atoms: C_3  and  C_6
REMARK    2  A    between atoms: C_6  and  C_8
REMARK    3  A    between atoms: C_6  and  N_26
REMARK    4  A    between atoms: C_8  and  N_9
REMARK    5  A    between atoms: C_10  and  C_12
REMARK    6  A    between atoms: C_14  and  S_19
REMARK    7  A    between atoms: S_19  and  N_22
REMARK    8  A    between atoms: N_22  and  C_23
REMARK                            x       y       z     vdW  Elec       q    Type
REMARK                         _______ _______ _______ _____ _____    ______ ____
ROOT
ATOM      1  N   UNL     1       5.570   0.024  -1.358  0.00  0.00    -0.312 N 
ATOM      2  C   UNL     1       6.234  -0.409  -2.448  0.00  0.00    +0.245 C 
ATOM      3  O   UNL     1       5.633  -0.605  -3.487  0.00  0.00    -0.270 OA
ATOM      4  H   UNL     1       6.049   0.181  -0.529  0.00  0.00    +0.149 HD
ENDROOT
BRANCH   2   5
ATOM      5  C   UNL     1       7.691  -0.647  -2.380  0.00  0.00    +0.052 A 
ATOM      6  C   UNL     1       8.383  -0.428  -1.187  0.00  0.00    +0.042 A 
ATOM      7  C   UNL     1       9.742  -0.652  -1.131  0.00  0.00    +0.106 A 
ATOM      8  C   UNL     1      10.422  -1.092  -2.254  0.00  0.00    +0.029 A 
ATOM      9  C   UNL     1       9.744  -1.310  -3.439  0.00  0.00    +0.018 A 
ATOM     10  C   UNL     1       8.381  -1.096  -3.508  0.00  0.00    +0.030 A 
ATOM     11 BR   UNL     1       7.454  -1.403  -5.128  0.00  0.00    -0.050 Br
BRANCH   7  12
ATOM     12  S   UNL     1      10.616  -0.377   0.374  0.00  0.00    +0.059 S 
ATOM     13  O   UNL     1      11.971  -0.137   0.019  0.00  0.00    -0.153 OA
ATOM     14  O   UNL     1       9.849   0.554   1.125  0.00  0.00    -0.153 OA
BRANCH  12  15
ATOM     15  N   UNL     1      10.594  -1.800   1.220  0.00  0.00    -0.187 NA
ATOM     16  H   UNL     1      10.125  -1.854   2.067  0.00  0.00    +0.148 HD
BRANCH  15  17
ATOM     17  C   UNL     1      11.284  -2.979   0.689  0.00  0.00    +0.077 C 
ATOM     18  C   UNL     1      10.665  -4.349   0.976  0.00  0.00    +0.022 C 
ATOM     19  C   UNL     1      11.947  -3.923   1.694  0.00  0.00    +0.022 C 
ENDBRANCH  15  17
ENDBRANCH  12  15
ENDBRANCH   7  12
ENDBRANCH   2   5
BRANCH   1  20
ATOM     20  C   UNL     1       4.126   0.260  -1.425  0.00  0.00    +0.097 C 
BRANCH  20  21
ATOM     21  C   UNL     1       3.602   0.617  -0.032  0.00  0.00    +0.016 C 
BRANCH  21  22
ATOM     22  N   UNL     1       3.975  -0.441   0.917  0.00  0.00    +0.387 N 
ATOM     23  C   UNL     1       3.460  -1.729   0.438  0.00  0.00    -0.078 C 
ATOM     24  C   UNL     1       3.914  -2.846   1.381  0.00  0.00    -0.019 C 
ATOM     25  C   UNL     1       3.374  -2.570   2.787  0.00  0.00    -0.004 C 
ATOM     26  C   UNL     1       3.857  -1.191   3.247  0.00  0.00    -0.019 C 
ATOM     27  C   UNL     1       3.405  -0.136   2.235  0.00  0.00    -0.078 C 
ATOM     28  H   UNL     1       4.980  -0.488   0.989  0.00  0.00    -0.081 HD
ENDBRANCH  21  22
BRANCH  21  31
ATOM     29  C   UNL     1       0.038   1.554  -0.081  0.00  0.00    +0.041 A 
ATOM     30  C   UNL     1       1.408   1.895   0.005  0.00  0.00    +0.043 A 
ATOM     31  C   UNL     1       2.102   0.746  -0.077  0.00  0.00    +0.093 A 
ATOM     32  O   UNL     1       1.230  -0.268  -0.207  0.00  0.00    -0.469 OA
ATOM     33  C   UNL     1      -0.023   0.217  -0.210  0.00  0.00    +0.195 A 
ENDBRANCH  21  31
ENDBRANCH  20  21
ENDBRANCH   1  20
TORSDOF 8
