REMARK  Name = ZINC20738453
REMARK  5 active torsions:
REMARK  status: ('A' for Active; 'I' for Inactive)
REMARK    1  A    between atoms: C_3  and  O_19
REMARK    2  A    between atoms: C_6  and  C_7
REMARK    3  A    between atoms: C_10  and  O_18
REMARK    4  A    between atoms: O_19  and  C_20
REMARK    5  A    between atoms: C_20  and  C_21
REMARK                            x       y       z     vdW  Elec       q    Type
REMARK                         _______ _______ _______ _____ _____    ______ ____
ROOT
ATOM      1  C   UNL     1      -0.017   1.378   0.010  0.00  0.00    +0.008 A 
ATOM      2  C   UNL     1       1.169   2.087   0.002  0.00  0.00    +0.046 A 
ATOM      3  C   UNL     1       2.380   1.409  -0.013  0.00  0.00    +0.121 A 
ATOM      4  C   UNL     1       2.396   0.022  -0.021  0.00  0.00    +0.046 A 
ATOM      5  C   UNL     1       1.207  -0.681  -0.013  0.00  0.00    +0.008 A 
ATOM      6  C   UNL     1       0.002  -0.004   0.002  0.00  0.00    -0.039 A 
ENDROOT
BRANCH   6   7
ATOM      7  C   UNL     1      -1.293  -0.774   0.011  0.00  0.00    +0.063 C 
ATOM      8  C   UNL     1      -1.350  -1.682   1.244  0.00  0.00    +0.108 C 
ATOM      9  C   UNL     1      -0.504  -2.907   1.079  0.00  0.00    +0.190 C 
ATOM     10  N   UNL     1      -0.311  -3.512  -0.053  0.00  0.00    -0.196 NA
ATOM     11  C   UNL     1      -0.882  -2.990  -1.188  0.00  0.00    +0.181 A 
ATOM     12  C   UNL     1      -1.373  -1.654  -1.211  0.00  0.00    +0.024 A 
ATOM     13  C   UNL     1      -1.861  -1.411  -2.431  0.00  0.00    +0.111 A 
ATOM     14  N   UNL     1      -1.704  -2.534  -3.172  0.00  0.00    -0.282 N 
ATOM     15  H   UNL     1      -1.970  -2.646  -4.098  0.00  0.00    +0.188 HD
ATOM     16  N   UNL     1      -1.087  -3.510  -2.366  0.00  0.00    -0.154 NA
BRANCH   9  17
ATOM     17  O   UNL     1       0.097  -3.413   2.176  0.00  0.00    -0.495 OA
ATOM     18  H   UNL     1       0.628  -4.203   2.005  0.00  0.00    +0.293 HD
ENDBRANCH   9  17
ENDBRANCH   6   7
BRANCH   3  19
ATOM     19  O   UNL     1       3.548   2.104  -0.021  0.00  0.00    -0.483 OA
BRANCH  19  20
ATOM     20  C   UNL     1       4.756   1.341  -0.036  0.00  0.00    +0.324 C 
BRANCH  20  21
ATOM     21  C   UNL     1       5.940   2.274  -0.043  0.00  0.00    +0.248 C 
ATOM     22  O   UNL     1       5.766   3.474  -0.036  0.00  0.00    -0.272 OA
ATOM     23  N   UNL     1       7.192   1.774  -0.058  0.00  0.00    -0.327 N 
ATOM     24  H   UNL     1       7.331   0.814  -0.064  0.00  0.00    +0.145 HD
ATOM     25  H   UNL     1       7.953   2.375  -0.062  0.00  0.00    +0.145 HD
ENDBRANCH  20  21
ENDBRANCH  19  20
ENDBRANCH   3  19
TORSDOF 5
