REMARK  Name = ZINC36633505
REMARK  7 active torsions:
REMARK  status: ('A' for Active; 'I' for Inactive)
REMARK    1  A    between atoms: C_1  and  C_2
REMARK    2  A    between atoms: C_5  and  N_8
REMARK    3  A    between atoms: C_9  and  N_14
REMARK    4  A    between atoms: C_11  and  C_13
REMARK    5  A    between atoms: C_15  and  C_17
REMARK    6  A    between atoms: C_17  and  N_18
REMARK    7  A    between atoms: N_27  and  C_30
REMARK                            x       y       z     vdW  Elec       q    Type
REMARK                         _______ _______ _______ _____ _____    ______ ____
ROOT
ATOM      1  N   UNL     1       1.288  -4.779   1.920  0.00  0.00    -0.269 N 
ATOM      2  C   UNL     1       1.915  -5.625   2.761  0.00  0.00    +0.236 C 
ATOM      3  O   UNL     1       1.773  -6.823   2.633  0.00  0.00    -0.274 OA
ATOM      4  H   UNL     1       1.401  -3.821   2.022  0.00  0.00    +0.156 HD
ENDROOT
BRANCH   1   6
ATOM      5  N   UNL     1      -0.211  -4.547  -0.014  0.00  0.00    -0.218 N 
ATOM      6  C   UNL     1       0.478  -5.280   0.902  0.00  0.00    +0.129 A 
ATOM      7  C   UNL     1       0.230  -6.593   0.643  0.00  0.00    +0.068 A 
ATOM      8  C   UNL     1      -0.629  -6.659  -0.458  0.00  0.00    +0.062 A 
ATOM      9  N   UNL     1      -0.898  -5.439  -0.847  0.00  0.00    -0.170 NA
ATOM     10  C   UNL     1      -1.161  -7.921  -1.086  0.00  0.00    +0.067 C 
BRANCH   5  15
ATOM     11  C   UNL     1      -0.303   1.116  -0.380  0.00  0.00    +0.044 C 
ATOM     12  C   UNL     1      -0.279  -0.388  -0.283  0.00  0.00    -0.050 A 
ATOM     13  C   UNL     1      -0.335  -1.154  -1.432  0.00  0.00    +0.005 A 
ATOM     14  C   UNL     1      -0.312  -2.532  -1.347  0.00  0.00    +0.028 A 
ATOM     15  C   UNL     1      -0.234  -3.148  -0.104  0.00  0.00    +0.067 A 
ATOM     16  C   UNL     1      -0.178  -2.376   1.048  0.00  0.00    +0.028 A 
ATOM     17  C   UNL     1      -0.195  -0.998   0.955  0.00  0.00    +0.005 A 
ENDBRANCH   5  15
ENDBRANCH   1   6
BRANCH   2  18
ATOM     18  C   UNL     1       2.790  -5.083   3.861  0.00  0.00    +0.214 C 
BRANCH  18  19
ATOM     19  N   UNL     1       3.352  -6.196   4.631  0.00  0.00    -0.215 N 
ATOM     20  C   UNL     1       2.760  -6.745   5.713  0.00  0.00    +0.247 C 
ATOM     21  O   UNL     1       1.704  -6.424   6.213  0.00  0.00    -0.273 OA
ATOM     22  C   UNL     1       3.692  -7.844   6.168  0.00  0.00    +0.115 C 
ATOM     23  C   UNL     1       2.992  -9.197   6.099  0.00  0.00    +0.035 C 
ATOM     24  C   UNL     1       3.962 -10.298   6.535  0.00  0.00    +0.003 C 
ATOM     25  C   UNL     1       4.435 -10.023   7.963  0.00  0.00    +0.000 C 
ATOM     26  C   UNL     1       5.155  -8.674   8.012  0.00  0.00    +0.003 C 
ATOM     27  C   UNL     1       4.191  -7.566   7.582  0.00  0.00    +0.035 C 
ATOM     28  N   UNL     1       4.804  -7.789   5.210  0.00  0.00    -0.274 N 
ATOM     29  C   UNL     1       4.513  -6.798   4.346  0.00  0.00    +0.312 C 
ATOM     30  O   UNL     1       5.227  -6.482   3.414  0.00  0.00    -0.252 OA
ATOM     31  C   UNL     1       5.991  -8.647   5.194  0.00  0.00    +0.134 C 
ENDBRANCH  18  19
ENDBRANCH   2  18
TORSDOF 4
