REMARK  Name = ZINC04565800
REMARK  11 active torsions:
REMARK  status: ('A' for Active; 'I' for Inactive)
REMARK    1  A    between atoms: C_1  and  C_2
REMARK    2  A    between atoms: C_2  and  C_3
REMARK    3  A    between atoms: C_3  and  O_5
REMARK    4  A    between atoms: O_5  and  C_6
REMARK    5  A    between atoms: C_6  and  O_7
REMARK    6  A    between atoms: O_7  and  C_8
REMARK    7  A    between atoms: C_8  and  C_10
REMARK    8  A    between atoms: C_16  and  C_35
REMARK    9  A    between atoms: C_32  and  C_33
REMARK   10  A    between atoms: C_37  and  C_39
REMARK   11  A    between atoms: C_37  and  C_40
REMARK                            x       y       z     vdW  Elec       q    Type
REMARK                         _______ _______ _______ _____ _____    ______ ____
ROOT
ATOM      1  C   UNL     1       1.236   3.604   0.050  0.00  0.00    +0.200 C 
ATOM      2  C   UNL     1       1.134   4.223   1.474  0.00  0.00    +0.165 C 
ATOM      3  C   UNL     1       2.441   5.044   1.678  0.00  0.00    +0.039 C 
ATOM      4  C   UNL     1       2.802   5.411   0.232  0.00  0.00    +0.004 C 
ATOM      5  C   UNL     1       2.599   4.068  -0.494  0.00  0.00    +0.013 C 
ATOM      6  C   UNL     1       2.655   4.242  -1.996  0.00  0.00    +0.011 C 
ATOM      7  C   UNL     1       3.472   5.500  -2.352  0.00  0.00    +0.005 C 
ATOM      8  C   UNL     1       4.653   5.598  -1.399  0.00  0.00    +0.003 C 
ATOM      9  C   UNL     1       4.144   6.021  -0.014  0.00  0.00    -0.000 C 
ATOM     10  C   UNL     1       5.236   5.742   1.006  0.00  0.00    +0.045 C 
ATOM     11  C   UNL     1       6.396   6.701   0.693  0.00  0.00    +0.193 C 
ATOM     12  C   UNL     1       6.805   6.580  -0.761  0.00  0.00    -0.027 C 
ATOM     13  C   UNL     1       8.112   6.487  -1.011  0.00  0.00    +0.049 C 
ATOM     14  C   UNL     1       8.629   6.388  -2.376  0.00  0.00    +0.156 C 
ATOM     15  O   UNL     1       9.795   6.104  -2.586  0.00  0.00    -0.293 OA
ATOM     16  C   UNL     1       7.670   6.646  -3.516  0.00  0.00    +0.080 C 
ATOM     17  C   UNL     1       6.324   6.021  -3.170  0.00  0.00    +0.019 C 
ATOM     18  C   UNL     1       5.766   6.540  -1.851  0.00  0.00    -0.005 C 
ATOM     19  C   UNL     1       5.215   7.943  -2.086  0.00  0.00    +0.016 C 
ATOM     20  F   UNL     1       6.000   8.013   0.968  0.00  0.00    -0.241 F 
ATOM     21  C   UNL     1       3.628   3.021  -0.052  0.00  0.00    +0.015 C 
ATOM     22  O   UNL     1       0.052   5.174   1.374  0.00  0.00    -0.342 OA
ATOM     23  C   UNL     1      -0.762   4.721   0.274  0.00  0.00    +0.166 C 
ATOM     24  O   UNL     1       0.168   4.201  -0.697  0.00  0.00    -0.328 OA
ATOM     25  C   UNL     1      -1.751   3.650   0.733  0.00  0.00    +0.074 C 
ATOM     26  C   UNL     1      -1.528   5.908  -0.326  0.00  0.00    +0.074 C 
ENDROOT
BRANCH   1  27
ATOM     27  C   UNL     1       1.163   2.098   0.077  0.00  0.00    +0.345 C 
ATOM     28  O   UNL     1       1.419   1.499   1.094  0.00  0.00    -0.247 OA
BRANCH  27  29
ATOM     29  O   UNL     1       0.814   1.423  -1.030  0.00  0.00    -0.425 OA
BRANCH  29  30
ATOM     30  C   UNL     1       0.765  -0.024  -0.931  0.00  0.00    +0.472 C 
BRANCH  30  31
ATOM     31  O   UNL     1      -0.424  -0.419  -0.199  0.00  0.00    -0.427 OA
BRANCH  31  32
ATOM     32  C   UNL     1      -1.596  -0.335  -0.848  0.00  0.00    +0.310 C 
ATOM     33  O   UNL     1      -1.626   0.056  -1.991  0.00  0.00    -0.251 OA
BRANCH  32  35
ATOM     34  C   UNL     1      -4.053  -0.540  -1.107  0.00  0.00    +0.015 C 
ATOM     35  C   UNL     1      -2.873  -0.729  -0.152  0.00  0.00    +0.117 C 
ENDBRANCH  32  35
ENDBRANCH  31  32
ENDBRANCH  30  31
ENDBRANCH  29  30
ENDBRANCH  27  29
ENDBRANCH   1  27
TORSDOF 6
