REMARK  Name = ZINC39654524
REMARK  7 active torsions:
REMARK  status: ('A' for Active; 'I' for Inactive)
REMARK    1  A    between atoms: C_1  and  C_2
REMARK    2  A    between atoms: C_14  and  C_16
REMARK    3  A    between atoms: C_16  and  O_17
REMARK    4  A    between atoms: O_17  and  C_18
REMARK    5  A    between atoms: C_18  and  C_20
REMARK    6  A    between atoms: N_26  and  S_27
REMARK    7  A    between atoms: S_27  and  C_30
REMARK                            x       y       z     vdW  Elec       q    Type
REMARK                         _______ _______ _______ _____ _____    ______ ____
ROOT
ATOM      1  C   UNL     1       6.103  -5.087   0.673  0.00  0.00    +0.327 C 
ATOM      2  O   UNL     1       5.746  -5.220   1.820  0.00  0.00    -0.249 OA
ENDROOT
BRANCH   1   3
ATOM      3  C   UNL     1       7.571  -4.986   0.347  0.00  0.00    +0.188 C 
ATOM      4  C   UNL     1       8.334  -6.103   1.066  0.00  0.00    +0.032 C 
ATOM      5  C   UNL     1       9.836  -5.913   0.845  0.00  0.00    +0.003 C 
ATOM      6  C   UNL     1      10.275  -4.571   1.435  0.00  0.00    +0.017 C 
ATOM      7  C   UNL     1       9.534  -3.437   0.721  0.00  0.00    +0.110 C 
ATOM      8  N   UNL     1       8.088  -3.688   0.801  0.00  0.00    -0.163 NA
BRANCH   8   9
ATOM      9  S   UNL     1       7.062  -2.533   1.397  0.00  0.00    +0.062 S 
ATOM     10  O   UNL     1       7.647  -1.274   1.093  0.00  0.00    -0.153 OA
ATOM     11  O   UNL     1       5.755  -2.889   0.967  0.00  0.00    -0.153 OA
BRANCH   9  12
ATOM     12  C   UNL     1       7.072  -2.681   3.153  0.00  0.00    +0.106 A 
ATOM     13  C   UNL     1       6.059  -3.368   3.794  0.00  0.00    +0.028 A 
ATOM     14  C   UNL     1       6.067  -3.484   5.172  0.00  0.00    +0.002 A 
ATOM     15  C   UNL     1       7.089  -2.915   5.907  0.00  0.00    +0.000 A 
ATOM     16  C   UNL     1       8.104  -2.230   5.266  0.00  0.00    +0.002 A 
ATOM     17  C   UNL     1       8.098  -2.116   3.888  0.00  0.00    +0.028 A 
ENDBRANCH   9  12
ENDBRANCH   8   9
ENDBRANCH   1   3
BRANCH   1  18
ATOM     18  O   UNL     1       5.191  -5.029  -0.311  0.00  0.00    -0.454 OA
BRANCH  18  19
ATOM     19  C   UNL     1       3.818  -5.131   0.070  0.00  0.00    +0.328 C 
BRANCH  19  32
ATOM     20  C   UNL     1      -1.056  -1.620  -2.089  0.00  0.00    +0.019 C 
ATOM     21  C   UNL     1      -0.553  -2.950  -1.522  0.00  0.00    +0.050 C 
ATOM     22  C   UNL     1       0.363  -3.616  -2.537  0.00  0.00    +0.033 C 
ATOM     23  C   UNL     1       0.743  -5.040  -2.227  0.00  0.00    +0.115 C 
ATOM     24  N   UNL     1       1.608  -5.121  -1.040  0.00  0.00    -0.268 N 
ATOM     25  C   UNL     1       1.005  -5.277   0.215  0.00  0.00    +0.050 A 
ATOM     26  C   UNL     1       1.084  -6.500   0.871  0.00  0.00    +0.024 A 
ATOM     27  C   UNL     1       0.449  -6.668   2.087  0.00  0.00    +0.002 A 
ATOM     28  C   UNL     1      -0.268  -5.633   2.659  0.00  0.00    +0.001 A 
ATOM     29  C   UNL     1      -0.338  -4.405   2.022  0.00  0.00    +0.016 A 
ATOM     30  C   UNL     1       0.317  -4.233   0.818  0.00  0.00    +0.030 A 
ATOM     31  S   UNL     1       0.352  -2.642   0.024  0.00  0.00    -0.120 S 
ATOM     32  C   UNL     1       2.949  -5.047  -1.158  0.00  0.00    +0.258 C 
ATOM     33  O   UNL     1       3.455  -4.912  -2.252  0.00  0.00    -0.272 OA
ENDBRANCH  19  32
ENDBRANCH  18  19
ENDBRANCH   1  18
TORSDOF 6
