REMARK  Name = ZINC58294049
REMARK  7 active torsions:
REMARK  status: ('A' for Active; 'I' for Inactive)
REMARK    1  A    between atoms: C_1  and  C_2
REMARK    2  A    between atoms: N_4  and  C_5
REMARK    3  A    between atoms: C_5  and  C_11
REMARK    4  A    between atoms: N_13  and  C_14
REMARK    5  A    between atoms: C_17  and  N_20
REMARK    6  A    between atoms: C_21  and  N_27
REMARK    7  A    between atoms: C_22  and  C_25
REMARK                            x       y       z     vdW  Elec       q    Type
REMARK                         _______ _______ _______ _____ _____    ______ ____
ROOT
ATOM      1  C   UNL     1       0.869  -2.337   3.057  0.00  0.00    +0.034 A 
ATOM      2  C   UNL     1       0.509  -3.571   3.582  0.00  0.00    +0.025 A 
ATOM      3  C   UNL     1       1.012  -3.975   4.802  0.00  0.00    +0.029 A 
ATOM      4  C   UNL     1       1.879  -3.148   5.504  0.00  0.00    +0.068 A 
ATOM      5  C   UNL     1       2.239  -1.913   4.979  0.00  0.00    +0.029 A 
ATOM      6  C   UNL     1       1.740  -1.512   3.756  0.00  0.00    +0.025 A 
ENDROOT
BRANCH   4   7
ATOM      7  N   UNL     1       2.391  -3.558   6.743  0.00  0.00    -0.218 N 
ATOM      8  C   UNL     1       3.626  -3.282   7.219  0.00  0.00    +0.137 A 
ATOM      9  C   UNL     1       3.722  -3.875   8.475  0.00  0.00    +0.111 A 
ATOM     10  C   UNL     1       2.487  -4.518   8.725  0.00  0.00    +0.155 A 
ATOM     11  N   UNL     1       1.708  -4.318   7.699  0.00  0.00    -0.172 NA
BRANCH   8  12
ATOM     12  N   UNL     1       4.608  -2.550   6.579  0.00  0.00    -0.342 N 
ATOM     13  H   UNL     1       4.439  -2.177   5.700  0.00  0.00    +0.144 HD
ATOM     14  H   UNL     1       5.465  -2.409   7.010  0.00  0.00    +0.144 HD
ENDBRANCH   8  12
BRANCH   9  15
ATOM     15  C   UNL     1       4.857  -3.842   9.348  0.00  0.00    +0.104 C 
ATOM     16  N   UNL     1       5.757  -3.815  10.041  0.00  0.00    -0.191 NA
ENDBRANCH   9  15
ENDBRANCH   4   7
BRANCH   1  19
ATOM     17  C   UNL     1      -0.824  -2.407   1.385  0.00  0.00    +0.241 C 
ATOM     18  O   UNL     1      -1.385  -3.287   2.004  0.00  0.00    -0.273 OA
ATOM     19  N   UNL     1       0.358  -1.926   1.819  0.00  0.00    -0.284 N 
ATOM     20  H   UNL     1       0.854  -1.296   1.274  0.00  0.00    +0.155 HD
BRANCH  17  21
ATOM     21  C   UNL     1      -1.449  -1.853   0.131  0.00  0.00    +0.111 C 
ATOM     22  C   UNL     1      -2.248  -2.953  -0.570  0.00  0.00    +0.035 C 
ATOM     23  C   UNL     1      -2.882  -2.389  -1.843  0.00  0.00    +0.003 C 
ATOM     24  C   UNL     1      -3.816  -1.233  -1.480  0.00  0.00    +0.000 C 
ATOM     25  C   UNL     1      -3.017  -0.133  -0.779  0.00  0.00    +0.003 C 
ATOM     26  C   UNL     1      -2.382  -0.696   0.495  0.00  0.00    +0.035 C 
BRANCH  21  30
ATOM     27  C   UNL     1       1.555  -1.760  -2.233  0.00  0.00    +0.109 C 
ATOM     28  C   UNL     1       0.579  -2.203  -1.174  0.00  0.00    +0.211 C 
ATOM     29  O   UNL     1       0.670  -3.311  -0.691  0.00  0.00    -0.276 OA
ATOM     30  N   UNL     1      -0.396  -1.367  -0.765  0.00  0.00    -0.302 N 
ATOM     31  H   UNL     1      -0.401  -0.444  -1.064  0.00  0.00    +0.150 HD
ENDBRANCH  21  30
ENDBRANCH  17  21
ENDBRANCH   1  19
TORSDOF 6
