REMARK  Name = ZINC63712274
REMARK  6 active torsions:
REMARK  status: ('A' for Active; 'I' for Inactive)
REMARK    1  A    between atoms: C_6  and  C_10
REMARK    2  A    between atoms: C_13  and  C_24
REMARK    3  A    between atoms: C_16  and  C_18
REMARK    4  A    between atoms: C_18  and  C_19
REMARK    5  A    between atoms: C_19  and  C_20
REMARK    6  A    between atoms: C_20  and  C_21
REMARK                            x       y       z     vdW  Elec       q    Type
REMARK                         _______ _______ _______ _____ _____    ______ ____
ROOT
ATOM      1  C   UNL     1       3.542  -2.787  -1.302  0.00  0.00    +0.149 C 
ATOM      2  C   UNL     1       2.982  -4.222  -1.343  0.00  0.00    +0.086 C 
ATOM      3  C   UNL     1       2.134  -4.247  -2.595  0.00  0.00    +0.069 C 
ATOM      4  N   UNL     1       2.178  -3.094  -3.167  0.00  0.00    -0.181 NA
ATOM      5  N   UNL     1       2.972  -2.156  -2.503  0.00  0.00    -0.186 N 
ATOM      6  C   UNL     1       3.183  -0.884  -2.896  0.00  0.00    +0.235 C 
ATOM      7  O   UNL     1       3.895  -0.156  -2.237  0.00  0.00    -0.274 OA
ENDROOT
BRANCH   1  13
ATOM      8  C   UNL     1      -0.016   1.344   0.009  0.00  0.00    +0.002 A 
ATOM      9  C   UNL     1       1.158   2.118   0.002  0.00  0.00    +0.002 A 
ATOM     10  C   UNL     1       2.389   1.570  -0.013  0.00  0.00    +0.027 A 
ATOM     11  C   UNL     1       2.533   0.108  -0.022  0.00  0.00    +0.060 A 
ATOM     12  N   UNL     1       3.569  -0.680  -0.036  0.00  0.00    -0.362 N 
ATOM     13  C   UNL     1       3.071  -2.062  -0.039  0.00  0.00    +0.197 C 
ATOM     14  N   UNL     1       1.606  -1.974  -0.024  0.00  0.00    -0.362 N 
ATOM     15  C   UNL     1       1.290  -0.712  -0.014  0.00  0.00    +0.060 A 
ATOM     16  C   UNL     1       0.002  -0.004   0.002  0.00  0.00    +0.027 A 
ATOM     17  H   UNL     1       4.499  -0.405  -0.045  0.00  0.00    +0.162 HD
ATOM     18  H   UNL     1       0.987  -2.721  -0.022  0.00  0.00    +0.162 HD
ENDBRANCH   1  13
BRANCH   3  19
ATOM     19  C   UNL     1       1.374  -5.412  -3.085  0.00  0.00    -0.002 A 
ATOM     20  C   UNL     1       1.399  -6.615  -2.375  0.00  0.00    +0.011 A 
ATOM     21  C   UNL     1       0.686  -7.700  -2.839  0.00  0.00    +0.016 A 
ATOM     22  C   UNL     1      -0.052  -7.600  -4.006  0.00  0.00    +0.018 A 
ATOM     23  C   UNL     1      -0.080  -6.411  -4.715  0.00  0.00    +0.016 A 
ATOM     24  C   UNL     1       0.623  -5.316  -4.259  0.00  0.00    +0.011 A 
ATOM     25 BR   UNL     1      -1.026  -9.094  -4.636  0.00  0.00    -0.050 Br
ENDBRANCH   3  19
BRANCH   6  26
ATOM     26  C   UNL     1       2.534  -0.366  -4.153  0.00  0.00    +0.098 C 
BRANCH  26  27
ATOM     27  C   UNL     1       2.934   1.095  -4.369  0.00  0.00    +0.020 C 
BRANCH  27  28
ATOM     28  C   UNL     1       2.275   1.621  -5.646  0.00  0.00    +0.125 C 
BRANCH  28  29
ATOM     29  C   UNL     1       2.668   3.060  -5.858  0.00  0.00    +0.356 C 
ATOM     30  O   UNL     1       3.407   3.614  -5.062  0.00  0.00    -0.246 OA
ATOM     31  O   UNL     1       2.248   3.670  -6.826  0.00  0.00    -0.246 OA
ENDBRANCH  28  29
ENDBRANCH  27  28
ENDBRANCH  26  27
ENDBRANCH   6  26
TORSDOF 6
