REMARK  Name = ZINC38610355
REMARK  8 active torsions:
REMARK  status: ('A' for Active; 'I' for Inactive)
REMARK    1  A    between atoms: C_1  and  C_2
REMARK    2  A    between atoms: C_2  and  C_4
REMARK    3  A    between atoms: C_2  and  N_22
REMARK    4  A    between atoms: N_6  and  C_7
REMARK    5  A    between atoms: C_15  and  C_17
REMARK    6  A    between atoms: C_17  and  O_19
REMARK    7  A    between atoms: O_19  and  C_20
REMARK    8  A    between atoms: C_28  and  C_30
REMARK                            x       y       z     vdW  Elec       q    Type
REMARK                         _______ _______ _______ _____ _____    ______ ____
ROOT
ATOM      1  C   UNL     1      -0.560  -0.041  -0.040  0.00  0.00    +0.234 C 
ATOM      2  O   UNL     1       0.108  -0.788   0.641  0.00  0.00    -0.274 OA
ATOM      3  N   UNL     1      -0.457  -0.080  -1.383  0.00  0.00    -0.285 N 
ATOM      4  H   UNL     1      -0.946   0.558  -1.926  0.00  0.00    +0.155 HD
ENDROOT
BRANCH   3   5
ATOM      5  C   UNL     1       0.336  -1.015  -1.979  0.00  0.00    +0.053 C 
ATOM      6  C   UNL     1       0.449  -1.273  -3.334  0.00  0.00    +0.019 A 
ATOM      7  C   UNL     1      -0.170  -0.700  -4.471  0.00  0.00    +0.026 A 
ATOM      8  C   UNL     1       0.137  -1.163  -5.708  0.00  0.00    +0.019 A 
ATOM      9  C   UNL     1       1.057  -2.199  -5.896  0.00  0.00    +0.017 A 
ATOM     10  C   UNL     1       1.688  -2.793  -4.854  0.00  0.00    +0.027 A 
ATOM     11  C   UNL     1       1.419  -2.365  -3.528  0.00  0.00    +0.045 A 
ATOM     12  N   UNL     1       1.891  -2.773  -2.367  0.00  0.00    -0.367 N 
ATOM     13  C   UNL     1       1.278  -1.981  -1.296  0.00  0.00    +0.234 C 
ATOM     14 BR   UNL     1      -0.699  -0.388  -7.216  0.00  0.00    -0.050 Br
ATOM     15  H   UNL     1       2.542  -3.481  -2.242  0.00  0.00    +0.161 HD
BRANCH  13  16
ATOM     16  C   UNL     1       2.337  -1.224  -0.536  0.00  0.00    +0.335 C 
ATOM     17  O   UNL     1       3.214  -0.646  -1.135  0.00  0.00    -0.248 OA
BRANCH  16  18
ATOM     18  O   UNL     1       2.306  -1.191   0.805  0.00  0.00    -0.466 OA
ATOM     19  C   UNL     1       3.341  -0.454   1.460  0.00  0.00    +0.280 C 
ENDBRANCH  16  18
ENDBRANCH  13  16
ENDBRANCH   3   5
BRANCH   1  21
ATOM     20  C   UNL     1      -0.971   2.355   0.451  0.00  0.00    +0.034 C 
ATOM     21  C   UNL     1      -1.508   0.932   0.614  0.00  0.00    +0.140 C 
BRANCH  21  22
ATOM     22  N   UNL     1      -1.625   0.614   2.044  0.00  0.00    -0.289 NA
ATOM     23  C   UNL     1      -2.770   1.310   2.646  0.00  0.00    +0.104 C 
ATOM     24  C   UNL     1      -2.966   0.816   4.083  0.00  0.00    +0.123 C 
ATOM     25  N   UNL     1      -1.695   0.968   4.807  0.00  0.00    -0.293 N 
ATOM     26  C   UNL     1      -0.476   0.415   4.198  0.00  0.00    +0.123 C 
ATOM     27  C   UNL     1      -0.378   0.925   2.756  0.00  0.00    +0.104 C 
ATOM     28  C   UNL     1      -1.649   1.598   5.998  0.00  0.00    +0.282 C 
ATOM     29  O   UNL     1      -2.679   1.956   6.537  0.00  0.00    -0.267 OA
BRANCH  28  30
ATOM     30  C   UNL     1      -0.356   1.851   6.643  0.00  0.00    +0.189 A 
ATOM     31  C   UNL     1      -0.172   2.341   7.904  0.00  0.00    +0.054 A 
ATOM     32  C   UNL     1       1.215   2.422   8.107  0.00  0.00    +0.042 A 
ATOM     33  C   UNL     1       1.808   1.982   6.976  0.00  0.00    +0.196 A 
ATOM     34  O   UNL     1       0.858   1.634   6.098  0.00  0.00    -0.458 OA
ENDBRANCH  28  30
ENDBRANCH  21  22
ENDBRANCH   1  21
TORSDOF 6
