REMARK  Name = ZINC39958635
REMARK  6 active torsions:
REMARK  status: ('A' for Active; 'I' for Inactive)
REMARK    1  A    between atoms: C_1  and  C_2
REMARK    2  A    between atoms: C_2  and  C_4
REMARK    3  A    between atoms: C_2  and  O_24
REMARK    4  A    between atoms: C_4  and  N_5
REMARK    5  A    between atoms: C_6  and  C_8
REMARK    6  A    between atoms: C_11  and  C_14
REMARK                            x       y       z     vdW  Elec       q    Type
REMARK                         _______ _______ _______ _____ _____    ______ ____
ROOT
ATOM      1  C   UNL     1       1.385  -4.154   2.227  0.00  0.00    +0.378 C 
ATOM      2  N   UNL     1       0.044  -4.687   2.516  0.00  0.00    -0.282 N 
ATOM      3  C   UNL     1       0.151  -5.429   3.679  0.00  0.00    +0.168 C 
ATOM      4  N   UNL     1       1.363  -5.418   4.130  0.00  0.00    -0.066 NA
ATOM      5  O   UNL     1       2.210  -4.650   3.292  0.00  0.00    -0.360 OA
ATOM      6  H   UNL     1      -0.760  -4.546   1.992  0.00  0.00    +0.152 HD
ENDROOT
BRANCH   3   7
ATOM      7  C   UNL     1      -0.975  -6.142   4.323  0.00  0.00    +0.016 C 
ATOM      8  C   UNL     1      -0.741  -6.829   5.462  0.00  0.00    +0.015 C 
ATOM      9  C   UNL     1      -1.894  -7.478   6.168  0.00  0.00    +0.159 C 
ATOM     10  C   UNL     1      -2.938  -7.821   5.122  0.00  0.00    -0.018 C 
ATOM     11  C   UNL     1      -3.271  -9.103   5.353  0.00  0.00    +0.025 C 
ATOM     12  C   UNL     1      -2.413  -9.639   6.341  0.00  0.00    +0.106 C 
ATOM     13  N   UNL     1      -1.584  -8.748   6.811  0.00  0.00    -0.279 NA
ATOM     14  C   UNL     1      -3.285  -6.938   4.080  0.00  0.00    +0.007 C 
ATOM     15  C   UNL     1      -2.302  -6.068   3.701  0.00  0.00    +0.011 C 
ENDBRANCH   3   7
BRANCH   1  17
ATOM     16  N   UNL     1       0.762  -1.976   1.234  0.00  0.00    -0.308 N 
ATOM     17  C   UNL     1       1.364  -2.647   2.235  0.00  0.00    +0.275 C 
ATOM     18  O   UNL     1       1.890  -2.038   3.143  0.00  0.00    -0.270 OA
ATOM     19  H   UNL     1       0.342  -2.462   0.507  0.00  0.00    +0.149 HD
BRANCH  16  20
ATOM     20  C   UNL     1       0.742  -0.511   1.242  0.00  0.00    +0.135 C 
BRANCH  20  22
ATOM     21  C   UNL     1      -0.019   1.526   0.010  0.00  0.00    +0.039 C 
ATOM     22  C   UNL     1       0.002  -0.004   0.002  0.00  0.00    +0.128 C 
BRANCH  22  23
ATOM     23  O   UNL     1       0.671  -0.465  -1.174  0.00  0.00    -0.391 OA
ATOM     24  H   UNL     1       1.588  -0.167  -1.247  0.00  0.00    +0.210 HD
ENDBRANCH  22  23
ENDBRANCH  20  22
ENDBRANCH  16  20
ENDBRANCH   1  17
TORSDOF 5
