REMARK  Name = ZINC02983006
REMARK  8 active torsions:
REMARK  status: ('A' for Active; 'I' for Inactive)
REMARK    1  A    between atoms: C_5  and  C_7
REMARK    2  A    between atoms: N_9  and  C_10
REMARK    3  A    between atoms: C_10  and  C_21
REMARK    4  A    between atoms: C_11  and  C_12
REMARK    5  A    between atoms: C_16  and  N_18
REMARK    6  A    between atoms: N_23  and  C_24
REMARK    7  A    between atoms: C_24  and  C_25
REMARK    8  A    between atoms: C_25  and  C_26
REMARK                            x       y       z     vdW  Elec       q    Type
REMARK                         _______ _______ _______ _____ _____    ______ ____
ROOT
ATOM      1  C   UNL     1       1.291   1.690  -0.293  0.00  0.00    +0.097 C 
ATOM      2  C   UNL     1       1.496   3.024  -0.199  0.00  0.00    +0.036 C 
ENDROOT
BRANCH   2   3
ATOM      3  C   UNL     1       2.860   3.567  -0.290  0.00  0.00    -0.021 A 
ATOM      4  C   UNL     1       3.086   4.798  -0.916  0.00  0.00    +0.008 A 
ATOM      5  C   UNL     1       4.368   5.300  -0.997  0.00  0.00    +0.003 A 
ATOM      6  C   UNL     1       5.428   4.590  -0.461  0.00  0.00    +0.033 A 
ATOM      7  C   UNL     1       5.213   3.372   0.159  0.00  0.00    +0.127 A 
ATOM      8  C   UNL     1       3.936   2.858   0.253  0.00  0.00    +0.040 A 
BRANCH   7   9
ATOM      9  N   UNL     1       6.354   2.622   0.729  0.00  0.00    +0.056 N 
ATOM     10  O   UNL     1       7.481   3.076   0.652  0.00  0.00    -0.126 OA
ATOM     11  O   UNL     1       6.166   1.549   1.275  0.00  0.00    -0.126 OA
ENDBRANCH   7   9
ENDBRANCH   2   3
BRANCH   1  14
ATOM     12  C   UNL     1      -0.215  -0.150  -0.295  0.00  0.00    +0.250 C 
ATOM     13  O   UNL     1       0.712  -0.894  -0.553  0.00  0.00    -0.270 OA
ATOM     14  N   UNL     1       0.010   1.165  -0.102  0.00  0.00    -0.277 N 
ATOM     15  H   UNL     1      -0.716   1.745   0.175  0.00  0.00    +0.155 HD
BRANCH  12  20
ATOM     16  C   UNL     1      -3.932  -0.345   0.198  0.00  0.00    +0.001 A 
ATOM     17  C   UNL     1      -4.160  -1.696  -0.002  0.00  0.00    +0.001 A 
ATOM     18  C   UNL     1      -3.110  -2.545  -0.296  0.00  0.00    +0.021 A 
ATOM     19  C   UNL     1      -1.824  -2.050  -0.393  0.00  0.00    +0.053 A 
ATOM     20  C   UNL     1      -1.587  -0.688  -0.193  0.00  0.00    +0.055 A 
ATOM     21  C   UNL     1      -2.653   0.163   0.109  0.00  0.00    +0.014 A 
ATOM     22 CL   UNL     1      -0.506  -3.118  -0.762  0.00  0.00    -0.083 Cl
ENDBRANCH  12  20
ENDBRANCH   1  14
BRANCH   1  23
ATOM     23  C   UNL     1       2.416   0.793  -0.598  0.00  0.00    +0.258 C 
ATOM     24  O   UNL     1       2.843   0.042   0.258  0.00  0.00    -0.269 OA
ATOM     25  N   UNL     1       2.973   0.804  -1.825  0.00  0.00    -0.310 N 
ATOM     26  H   UNL     1       2.676   1.448  -2.487  0.00  0.00    +0.149 HD
BRANCH  25  27
ATOM     27  C   UNL     1       4.027  -0.157  -2.159  0.00  0.00    +0.116 C 
BRANCH  27  28
ATOM     28  C   UNL     1       4.571   0.148  -3.556  0.00  0.00    +0.144 C 
BRANCH  28  29
ATOM     29  C   UNL     1       5.568  -0.911  -3.949  0.00  0.00    +0.357 C 
ATOM     30  O   UNL     1       5.819  -1.817  -3.189  0.00  0.00    -0.246 OA
ATOM     31  O   UNL     1       6.179  -0.849  -5.143  0.00  0.00    -0.246 OA
ENDBRANCH  28  29
ENDBRANCH  27  28
ENDBRANCH  25  27
ENDBRANCH   1  23
TORSDOF 8
