REMARK  Name = ZINC39702794
REMARK  8 active torsions:
REMARK  status: ('A' for Active; 'I' for Inactive)
REMARK    1  A    between atoms: C_1  and  O_2
REMARK    2  A    between atoms: O_2  and  C_3
REMARK    3  A    between atoms: C_5  and  C_14
REMARK    4  A    between atoms: C_8  and  O_9
REMARK    5  A    between atoms: O_9  and  C_10
REMARK    6  A    between atoms: C_10  and  C_11
REMARK    7  A    between atoms: C_15  and  C_16
REMARK    8  A    between atoms: C_15  and  C_18
REMARK                            x       y       z     vdW  Elec       q    Type
REMARK                         _______ _______ _______ _____ _____    ______ ____
ROOT
ATOM      1  C   UNL     1       2.703   0.307   4.102  0.00  0.00    +0.026 C 
ATOM      2  C   UNL     1       2.983  -0.314   5.268  0.00  0.00    +0.072 C 
ENDROOT
BRANCH   2   3
ATOM      3  C   UNL     1       3.048  -1.819   5.323  0.00  0.00    +0.216 C 
ATOM      4  N   UNL     1       2.248  -2.316   6.450  0.00  0.00    -0.359 N 
ATOM      5  C   UNL     1       3.053  -2.956   7.248  0.00  0.00    +0.060 A 
ATOM      6  C   UNL     1       2.846  -3.664   8.519  0.00  0.00    +0.027 A 
ATOM      7  C   UNL     1       3.894  -4.247   9.133  0.00  0.00    +0.002 A 
ATOM      8  C   UNL     1       5.198  -4.210   8.608  0.00  0.00    +0.002 A 
ATOM      9  C   UNL     1       5.498  -3.589   7.450  0.00  0.00    +0.027 A 
ATOM     10  C   UNL     1       4.433  -2.918   6.691  0.00  0.00    +0.060 A 
ATOM     11  N   UNL     1       4.428  -2.255   5.571  0.00  0.00    -0.359 N 
ATOM     12  H   UNL     1       1.295  -2.190   6.577  0.00  0.00    +0.162 HD
ATOM     13  H   UNL     1       5.195  -2.081   5.003  0.00  0.00    +0.162 HD
ENDBRANCH   2   3
BRANCH   1  16
ATOM     14  C   UNL     1       1.558  -0.921   0.747  0.00  0.00    +0.163 A 
ATOM     15  C   UNL     1       1.627  -0.188   1.916  0.00  0.00    +0.057 A 
ATOM     16  C   UNL     1       2.624  -0.470   2.856  0.00  0.00    -0.019 A 
ATOM     17  C   UNL     1       3.546  -1.492   2.607  0.00  0.00    +0.027 A 
ATOM     18  C   UNL     1       3.470  -2.218   1.438  0.00  0.00    +0.064 A 
ATOM     19  C   UNL     1       2.477  -1.941   0.507  0.00  0.00    +0.177 A 
ATOM     20 BR   UNL     1       4.718  -3.599   1.102  0.00  0.00    -0.046 Br
BRANCH  14  22
ATOM     21  C   UNL     1      -0.318   0.410   0.141  0.00  0.00    +0.277 C 
ATOM     22  O   UNL     1       0.590  -0.650  -0.169  0.00  0.00    -0.491 OA
ENDBRANCH  14  22
BRANCH  19  23
ATOM     23  O   UNL     1       2.403  -2.664  -0.641  0.00  0.00    -0.473 OA
BRANCH  23  24
ATOM     24  C   UNL     1       3.143  -2.177  -1.762  0.00  0.00    +0.347 C 
BRANCH  24  25
ATOM     25  C   UNL     1       2.947  -3.079  -2.909  0.00  0.00    +0.104 C 
ATOM     26  N   UNL     1       2.795  -3.775  -3.794  0.00  0.00    -0.193 NA
ENDBRANCH  24  25
ENDBRANCH  23  24
ENDBRANCH  19  23
ENDBRANCH   1  16
BRANCH   2  27
ATOM     27  C   UNL     1       3.220   0.457   6.451  0.00  0.00    +0.099 C 
ATOM     28  N   UNL     1       3.407   1.069   7.389  0.00  0.00    -0.191 NA
ENDBRANCH   2  27
TORSDOF 7
