REMARK  Name = ZINC21182204
REMARK  6 active torsions:
REMARK  status: ('A' for Active; 'I' for Inactive)
REMARK    1  A    between atoms: C_6  and  C_7
REMARK    2  A    between atoms: C_7  and  C_9
REMARK    3  A    between atoms: C_9  and  S_10
REMARK    4  A    between atoms: S_10  and  C_11
REMARK    5  A    between atoms: N_24  and  C_25
REMARK    6  A    between atoms: C_25  and  C_26
REMARK                            x       y       z     vdW  Elec       q    Type
REMARK                         _______ _______ _______ _____ _____    ______ ____
ROOT
ATOM      1  C   UNL     1      -1.752   5.808  -4.188  0.00  0.00    +0.173 A 
ATOM      2  N   UNL     1      -1.604   6.239  -2.943  0.00  0.00    -0.216 NA
ATOM      3  C   UNL     1      -1.340   5.330  -2.012  0.00  0.00    +0.117 A 
ATOM      4  C   UNL     1      -1.211   3.947  -2.273  0.00  0.00    +0.076 A 
ATOM      5  C   UNL     1      -0.920   3.104  -1.125  0.00  0.00    -0.023 A 
ATOM      6  C   UNL     1      -0.804   3.725   0.070  0.00  0.00    -0.004 A 
ATOM      7  S   UNL     1      -1.073   5.446  -0.271  0.00  0.00    -0.073 S 
ATOM      8  C   UNL     1      -0.511   3.094   1.396  0.00  0.00    +0.043 C 
ATOM      9  C   UNL     1      -0.727   1.578   1.270  0.00  0.00    +0.005 C 
ATOM     10  C   UNL     1      -0.013   1.086   0.008  0.00  0.00    +0.005 C 
ATOM     11  C   UNL     1      -0.749   1.591  -1.233  0.00  0.00    +0.037 C 
ATOM     12  C   UNL     1      -1.377   3.518  -3.630  0.00  0.00    +0.263 A 
ATOM     13  O   UNL     1      -1.285   2.347  -3.955  0.00  0.00    -0.267 OA
ATOM     14  N   UNL     1      -1.644   4.494  -4.530  0.00  0.00    -0.285 N 
ENDROOT
BRANCH   1  15
ATOM     15  S   UNL     1      -2.102   6.984  -5.453  0.00  0.00    -0.080 S 
BRANCH  15  16
ATOM     16  C   UNL     1      -2.132   8.503  -4.470  0.00  0.00    +0.157 C 
BRANCH  16  17
ATOM     17  C   UNL     1      -2.423   9.677  -5.369  0.00  0.00    +0.173 C 
ATOM     18  O   UNL     1      -2.593   9.504  -6.557  0.00  0.00    -0.291 OA
BRANCH  17  24
ATOM     19  C   UNL     1      -2.304  11.234  -3.435  0.00  0.00    +0.015 A 
ATOM     20  C   UNL     1      -2.377  12.505  -2.910  0.00  0.00    +0.050 A 
ATOM     21  C   UNL     1      -2.646  13.589  -3.736  0.00  0.00    +0.166 A 
ATOM     22  C   UNL     1      -2.842  13.395  -5.105  0.00  0.00    +0.167 A 
ATOM     23  C   UNL     1      -2.765  12.125  -5.640  0.00  0.00    +0.061 A 
ATOM     24  C   UNL     1      -2.500  11.032  -4.806  0.00  0.00    +0.022 A 
ATOM     25  O   UNL     1      -3.086  14.606  -5.686  0.00  0.00    -0.453 OA
ATOM     26  C   UNL     1      -2.632  15.586  -4.734  0.00  0.00    +0.466 C 
ATOM     27  O   UNL     1      -2.767  14.920  -3.465  0.00  0.00    -0.453 OA
ENDBRANCH  17  24
ENDBRANCH  16  17
ENDBRANCH  15  16
ENDBRANCH   1  15
BRANCH  14  28
ATOM     28  C   UNL     1      -1.825   4.120  -5.935  0.00  0.00    +0.159 C 
BRANCH  28  29
ATOM     29  C   UNL     1      -3.301   3.814  -6.195  0.00  0.00    +0.138 C 
ATOM     30  C   UNL     1      -3.504   3.347  -7.658  0.00  0.00    +0.035 C 
ATOM     31  C   UNL     1      -4.809   2.515  -7.524  0.00  0.00    +0.031 C 
ATOM     32  C   UNL     1      -4.661   1.900  -6.116  0.00  0.00    +0.160 C 
ATOM     33  O   UNL     1      -3.732   2.709  -5.385  0.00  0.00    -0.375 OA
ENDBRANCH  28  29
ENDBRANCH  14  28
TORSDOF 6
