REMARK  Name = ZINC13052193
REMARK  11 active torsions:
REMARK  status: ('A' for Active; 'I' for Inactive)
REMARK    1  A    between atoms: C_1  and  C_2
REMARK    2  A    between atoms: C_5  and  N_8
REMARK    3  A    between atoms: N_8  and  C_9
REMARK    4  A    between atoms: C_10  and  C_12
REMARK    5  A    between atoms: C_12  and  S_13
REMARK    6  A    between atoms: S_13  and  C_14
REMARK    7  A    between atoms: C_18  and  C_30
REMARK    8  A    between atoms: N_24  and  C_25
REMARK    9  A    between atoms: C_25  and  C_26
REMARK   10  A    between atoms: C_26  and  C_28
REMARK   11  A    between atoms: C_26  and  O_29
REMARK                            x       y       z     vdW  Elec       q    Type
REMARK                         _______ _______ _______ _____ _____    ______ ____
ROOT
ATOM      1  C   UNL     1       2.361   1.187   2.274  0.00  0.00    +0.173 A 
ATOM      2  N   UNL     1       2.732   0.976   3.513  0.00  0.00    -0.223 NA
ATOM      3  C   UNL     1       2.574  -0.231   4.104  0.00  0.00    +0.080 A 
ATOM      4  C   UNL     1       2.971  -0.454   5.426  0.00  0.00    +0.043 A 
ATOM      5  C   UNL     1       2.788  -1.710   5.991  0.00  0.00    +0.065 A 
ATOM      6  C   UNL     1       2.212  -2.747   5.247  0.00  0.00    +0.016 A 
ATOM      7  C   UNL     1       1.821  -2.542   3.955  0.00  0.00    +0.016 A 
ATOM      8  C   UNL     1       1.994  -1.289   3.367  0.00  0.00    +0.065 A 
ATOM      9  C   UNL     1       1.582  -1.022   1.980  0.00  0.00    +0.262 A 
ATOM     10  O   UNL     1       1.073  -1.890   1.296  0.00  0.00    -0.267 OA
ATOM     11  N   UNL     1       1.793   0.222   1.492  0.00  0.00    -0.285 N 
ENDROOT
BRANCH   5  12
ATOM     12  C   UNL     1       3.205  -1.953   7.390  0.00  0.00    +0.387 C 
ATOM     13  O   UNL     1       3.705  -1.057   8.039  0.00  0.00    -0.241 OA
ATOM     14  O   UNL     1       3.031  -3.169   7.942  0.00  0.00    -0.241 OA
ENDBRANCH   5  12
BRANCH   1  15
ATOM     15  S   UNL     1       2.604   2.791   1.586  0.00  0.00    -0.078 S 
BRANCH  15  16
ATOM     16  C   UNL     1       3.357   3.630   3.002  0.00  0.00    +0.173 C 
BRANCH  16  19
ATOM     17  N   UNL     1       4.228   5.881   3.541  0.00  0.00    -0.301 N 
ATOM     18  C   UNL     1       4.549   5.385   4.881  0.00  0.00    +0.132 C 
ATOM     19  C   UNL     1       3.661   5.059   2.635  0.00  0.00    +0.226 C 
ATOM     20  O   UNL     1       3.396   5.471   1.526  0.00  0.00    -0.275 OA
BRANCH  17  25
ATOM     21  C   UNL     1       8.760   6.463   3.550  0.00  0.00    +0.007 C 
ATOM     22  C   UNL     1       7.451   7.216   3.304  0.00  0.00    -0.014 C 
ATOM     23  C   UNL     1       6.599   7.186   4.574  0.00  0.00    +0.005 C 
ATOM     24  C   UNL     1       5.290   7.939   4.328  0.00  0.00    +0.023 C 
ATOM     25  C   UNL     1       4.524   7.271   3.184  0.00  0.00    +0.076 C 
ATOM     26  C   UNL     1       5.376   7.301   1.914  0.00  0.00    +0.023 C 
ATOM     27  C   UNL     1       6.685   6.548   2.160  0.00  0.00    +0.005 C 
ENDBRANCH  17  25
ENDBRANCH  16  19
ENDBRANCH  15  16
ENDBRANCH   1  15
BRANCH  11  28
ATOM     28  C   UNL     1       1.405   0.538   0.115  0.00  0.00    +0.158 C 
BRANCH  28  29
ATOM     29  C   UNL     1       2.579   0.252  -0.824  0.00  0.00    +0.131 C 
ATOM     30  C   UNL     1       2.173   0.582  -2.262  0.00  0.00    +0.039 C 
BRANCH  29  31
ATOM     31  O   UNL     1       3.697   1.057  -0.447  0.00  0.00    -0.390 OA
ATOM     32  H   UNL     1       4.479   0.927  -1.001  0.00  0.00    +0.210 HD
ENDBRANCH  29  31
ENDBRANCH  28  29
ENDBRANCH  11  28
TORSDOF 8
