REMARK  Name = ZINC39694957
REMARK  5 active torsions:
REMARK  status: ('A' for Active; 'I' for Inactive)
REMARK    1  A    between atoms: C_1  and  C_2
REMARK    2  A    between atoms: C_3  and  C_9
REMARK    3  A    between atoms: C_9  and  N_10
REMARK    4  A    between atoms: C_11  and  C_13
REMARK    5  A    between atoms: C_24  and  C_26
REMARK                            x       y       z     vdW  Elec       q    Type
REMARK                         _______ _______ _______ _____ _____    ______ ____
ROOT
ATOM      1  C   UNL     1       2.959   1.739  -4.246  0.00  0.00    +0.100 C 
ATOM      2  C   UNL     1       3.941   0.548  -4.324  0.00  0.00    +0.121 C 
ATOM      3  N   UNL     1       4.002   0.207  -5.764  0.00  0.00    -0.296 N 
ATOM      4  C   UNL     1       3.994   1.519  -6.455  0.00  0.00    +0.115 C 
ATOM      5  C   UNL     1       2.999   2.376  -5.646  0.00  0.00    -0.004 C 
ATOM      6  C   UNL     1       1.617   2.326  -6.288  0.00  0.00    -0.010 C 
ATOM      7  C   UNL     1       1.669   3.015  -7.655  0.00  0.00    -0.082 C 
ATOM      8  N   UNL     1       2.103   4.407  -7.486  0.00  0.00    +0.379 N 
ATOM      9  C   UNL     1       3.470   4.445  -6.954  0.00  0.00    -0.082 C 
ATOM     10  C   UNL     1       3.494   3.816  -5.558  0.00  0.00    -0.010 C 
ATOM     11  C   UNL     1       4.055  -1.019  -6.321  0.00  0.00    +0.249 C 
ATOM     12  O   UNL     1       4.102  -1.136  -7.530  0.00  0.00    -0.270 OA
ATOM     13  H   UNL     1       2.078   4.876  -8.379  0.00  0.00    -0.086 HD
ATOM     14  H   UNL     1       1.481   4.877  -6.846  0.00  0.00    -0.086 HD
ENDROOT
BRANCH  11  15
ATOM     15  C   UNL     1       4.054  -2.221  -5.463  0.00  0.00    +0.073 A 
ATOM     16  C   UNL     1       2.847  -2.827  -5.104  0.00  0.00    +0.054 A 
ATOM     17  C   UNL     1       2.854  -3.951  -4.301  0.00  0.00    +0.021 A 
ATOM     18  C   UNL     1       4.053  -4.476  -3.852  0.00  0.00    +0.003 A 
ATOM     19  C   UNL     1       5.252  -3.882  -4.203  0.00  0.00    +0.021 A 
ATOM     20  C   UNL     1       5.261  -2.761  -5.010  0.00  0.00    +0.054 A 
ATOM     21 CL   UNL     1       6.767  -2.022  -5.455  0.00  0.00    -0.083 Cl
ATOM     22 CL   UNL     1       1.342  -2.169  -5.665  0.00  0.00    -0.083 Cl
ENDBRANCH  11  15
BRANCH   1  24
ATOM     23  N   UNL     1       0.700   2.064  -3.295  0.00  0.00    -0.311 N 
ATOM     24  C   UNL     1       1.568   1.253  -3.930  0.00  0.00    +0.218 C 
ATOM     25  O   UNL     1       1.231   0.133  -4.248  0.00  0.00    -0.275 OA
ATOM     26  H   UNL     1       0.970   2.960  -3.040  0.00  0.00    +0.149 HD
BRANCH  23  27
ATOM     27  C   UNL     1      -0.653   1.591  -2.987  0.00  0.00    +0.139 C 
BRANCH  27  30
ATOM     28  C   UNL     1      -1.829   3.750  -4.506  0.00  0.00    +0.045 C 
ATOM     29  C   UNL     1      -1.980   3.713  -3.007  0.00  0.00    -0.027 A 
ATOM     30  C   UNL     1      -1.417   2.681  -2.280  0.00  0.00    -0.026 A 
ATOM     31  C   UNL     1      -1.555   2.647  -0.905  0.00  0.00    +0.005 A 
ATOM     32  C   UNL     1      -2.257   3.646  -0.256  0.00  0.00    +0.002 A 
ATOM     33  C   UNL     1      -2.820   4.679  -0.981  0.00  0.00    +0.020 A 
ATOM     34  C   UNL     1      -2.677   4.716  -2.357  0.00  0.00    +0.044 A 
ATOM     35 CL   UNL     1      -3.378   6.017  -3.268  0.00  0.00    -0.083 Cl
ENDBRANCH  27  30
ENDBRANCH  23  27
ENDBRANCH   1  24
TORSDOF 4
