REMARK  Name = ZINC64212899
REMARK  6 active torsions:
REMARK  status: ('A' for Active; 'I' for Inactive)
REMARK    1  A    between atoms: C_7  and  C_10
REMARK    2  A    between atoms: C_10  and  C_12
REMARK    3  A    between atoms: C_10  and  C_28
REMARK    4  A    between atoms: C_12  and  N_13
REMARK    5  A    between atoms: C_14  and  C_16
REMARK    6  A    between atoms: C_16  and  N_17
REMARK                            x       y       z     vdW  Elec       q    Type
REMARK                         _______ _______ _______ _____ _____    ______ ____
ROOT
ATOM      1  C   UNL     1       0.721  -3.759  -1.433  0.00  0.00    +0.113 C 
ENDROOT
BRANCH   1   2
ATOM      2  N   UNL     1      -0.153  -4.933  -1.504  0.00  0.00    -0.313 N 
ATOM      3  C   UNL     1      -0.205  -5.668  -2.633  0.00  0.00    +0.231 C 
ATOM      4  O   UNL     1       0.472  -5.357  -3.590  0.00  0.00    -0.274 OA
ATOM      5  H   UNL     1      -0.694  -5.181  -0.738  0.00  0.00    +0.149 HD
BRANCH   3   6
ATOM      6  C   UNL     1      -1.104  -6.875  -2.705  0.00  0.00    +0.213 C 
BRANCH   6   7
ATOM      7  N   UNL     1      -0.981  -7.496  -4.026  0.00  0.00    -0.215 N 
ATOM      8  C   UNL     1      -1.745  -7.173  -5.092  0.00  0.00    +0.247 C 
ATOM      9  O   UNL     1      -2.630  -6.345  -5.138  0.00  0.00    -0.273 OA
ATOM     10  C   UNL     1      -1.263  -8.060  -6.211  0.00  0.00    +0.113 C 
ATOM     11  C   UNL     1      -0.742  -7.226  -7.390  0.00  0.00    +0.035 C 
ATOM     12  C   UNL     1      -1.144  -8.053  -8.639  0.00  0.00    +0.003 C 
ATOM     13  C   UNL     1      -2.529  -8.624  -8.244  0.00  0.00    +0.003 C 
ATOM     14  C   UNL     1      -2.390  -8.950  -6.740  0.00  0.00    +0.035 C 
ATOM     15  N   UNL     1      -0.190  -8.856  -5.612  0.00  0.00    -0.285 N 
ATOM     16  C   UNL     1      -0.093  -8.452  -4.329  0.00  0.00    +0.310 C 
ATOM     17  O   UNL     1       0.708  -8.907  -3.536  0.00  0.00    -0.252 OA
ATOM     18  H   UNL     1       0.346  -9.535  -6.051  0.00  0.00    +0.151 HD
ENDBRANCH   6   7
ENDBRANCH   3   6
ENDBRANCH   1   2
BRANCH   1  19
ATOM     19  C   UNL     1       0.498  -3.037  -0.103  0.00  0.00    +0.048 C 
BRANCH  19  26
ATOM     20  C   UNL     1      -3.034  -3.781   2.730  0.00  0.00    +0.001 A 
ATOM     21  C   UNL     1      -4.183  -3.048   2.401  0.00  0.00    +0.002 A 
ATOM     22  C   UNL     1      -4.233  -2.204   1.349  0.00  0.00    +0.026 A 
ATOM     23  C   UNL     1      -3.094  -2.027   0.515  0.00  0.00    +0.043 A 
ATOM     24  N   UNL     1      -2.896  -1.282  -0.545  0.00  0.00    -0.380 N 
ATOM     25  C   UNL     1      -1.521  -1.488  -1.012  0.00  0.00    +0.145 C 
ATOM     26  C   UNL     1      -0.905  -2.488  -0.059  0.00  0.00    -0.036 C 
ATOM     27  C   UNL     1      -1.868  -2.790   0.841  0.00  0.00    -0.001 A 
ATOM     28  C   UNL     1      -1.897  -3.686   2.004  0.00  0.00    +0.010 A 
ATOM     29  H   UNL     1      -3.550  -0.693  -0.953  0.00  0.00    +0.160 HD
ENDBRANCH  19  26
BRANCH  19  30
ATOM     30  C   UNL     1       1.499  -1.887   0.027  0.00  0.00    +0.063 C 
ATOM     31  C   UNL     1       2.947  -2.413   0.214  0.00  0.00    +0.042 C 
ATOM     32  C   UNL     1       3.696  -1.567   1.192  0.00  0.00    -0.019 C 
ATOM     33  C   UNL     1       3.036  -0.778   2.018  0.00  0.00    +0.036 C 
ATOM     34  S   UNL     1       1.308  -1.003   1.632  0.00  0.00    -0.129 S 
ENDBRANCH  19  30
ENDBRANCH   1  19
TORSDOF 6
