REMARK  Name = ZINC13644369
REMARK  7 active torsions:
REMARK  status: ('A' for Active; 'I' for Inactive)
REMARK    1  A    between atoms: C_1  and  O_2
REMARK    2  A    between atoms: O_2  and  C_3
REMARK    3  A    between atoms: C_3  and  C_5
REMARK    4  A    between atoms: C_9  and  N_10
REMARK    5  A    between atoms: C_13  and  C_16
REMARK    6  A    between atoms: C_16  and  O_17
REMARK    7  A    between atoms: O_17  and  C_18
REMARK                            x       y       z     vdW  Elec       q    Type
REMARK                         _______ _______ _______ _____ _____    ______ ____
ROOT
ATOM      1  C   UNL     1      -8.207   1.048   0.423  0.00  0.00    +0.232 C 
ENDROOT
BRANCH   1   5
ATOM      2  N   UNL     1      -5.388  -1.551   2.314  0.00  0.00    -0.329 N 
ATOM      3  C   UNL     1      -4.998  -0.141   2.188  0.00  0.00    +0.105 C 
ATOM      4  C   UNL     1      -6.242   0.713   1.933  0.00  0.00    +0.026 C 
ATOM      5  C   UNL     1      -6.929   0.237   0.650  0.00  0.00    +0.030 C 
ATOM      6  C   UNL     1      -7.281  -1.246   0.789  0.00  0.00    +0.026 C 
ATOM      7  C   UNL     1      -6.007  -2.043   1.077  0.00  0.00    +0.105 C 
BRANCH   2  12
ATOM      8  C   UNL     1      -4.320  -3.088   3.865  0.00  0.00    +0.096 A 
ATOM      9  C   UNL     1      -3.201  -3.858   4.185  0.00  0.00    +0.099 A 
ATOM     10  C   UNL     1      -2.113  -3.195   2.260  0.00  0.00    +0.084 A 
ATOM     11  C   UNL     1      -3.169  -2.402   1.867  0.00  0.00    +0.041 A 
ATOM     12  C   UNL     1      -4.306  -2.335   2.674  0.00  0.00    +0.047 A 
ATOM     13  N   UNL     1      -2.092  -3.936   3.404  0.00  0.00    -0.366 N 
ATOM     14  H   UNL     1      -1.286  -4.518   3.660  0.00  0.00    +0.165 HD
BRANCH   8  15
ATOM     15  C   UNL     1      -5.491  -3.058   4.758  0.00  0.00    +0.342 C 
ATOM     16  O   UNL     1      -6.419  -2.311   4.519  0.00  0.00    -0.245 OA
BRANCH  15  18
ATOM     17  C   UNL     1      -6.716  -3.773   6.679  0.00  0.00    +0.280 C 
ATOM     18  O   UNL     1      -5.531  -3.855   5.844  0.00  0.00    -0.464 OA
ENDBRANCH  15  18
ENDBRANCH   8  15
ENDBRANCH   2  12
ENDBRANCH   1   5
BRANCH   1  19
ATOM     19  O   UNL     1      -7.867   2.414   0.177  0.00  0.00    -0.492 OA
BRANCH  19  20
ATOM     20  C   UNL     1      -8.895   3.274  -0.045  0.00  0.00    +0.121 A 
ATOM     21  C   UNL     1     -10.205   2.816  -0.029  0.00  0.00    +0.046 A 
ATOM     22  C   UNL     1     -11.240   3.696  -0.261  0.00  0.00    +0.007 A 
ATOM     23  C   UNL     1     -10.986   5.041  -0.507  0.00  0.00    -0.041 A 
ATOM     24  C   UNL     1      -9.687   5.497  -0.516  0.00  0.00    -0.023 A 
ATOM     25  C   UNL     1      -8.642   4.614  -0.285  0.00  0.00    +0.051 A 
ATOM     26  C   UNL     1      -9.342   6.945  -0.759  0.00  0.00    +0.143 C 
ATOM     27  N   UNL     1     -10.530   7.663  -1.233  0.00  0.00    -0.301 N 
ATOM     28  C   UNL     1     -11.801   7.402  -0.536  0.00  0.00    +0.112 C 
ATOM     29  C   UNL     1     -12.169   5.937  -0.763  0.00  0.00    +0.054 C 
ATOM     30  C   UNL     1     -10.461   8.544  -2.286  0.00  0.00    +0.151 C 
ATOM     31  N   UNL     1      -9.260   8.767  -2.918  0.00  0.00    -0.333 N 
ATOM     32  H   UNL     1     -11.585   9.808  -3.421  0.00  0.00    +0.158 HD
ATOM     33  H   UNL     1      -8.462   8.302  -2.620  0.00  0.00    +0.145 HD
ATOM     34  H   UNL     1      -9.211   9.388  -3.661  0.00  0.00    +0.145 HD
ATOM     35  N   UNL     1     -11.586   9.146  -2.645  0.00  0.00    -0.375 N 
ATOM     36  H   UNL     1     -12.458   8.945  -2.141  0.00  0.00    +0.158 HD
ENDBRANCH  19  20
ENDBRANCH   1  19
TORSDOF 6
