REMARK  Name = ZINC26780233
REMARK  10 active torsions:
REMARK  status: ('A' for Active; 'I' for Inactive)
REMARK    1  A    between atoms: C_1  and  C_2
REMARK    2  A    between atoms: C_5  and  N_11
REMARK    3  A    between atoms: C_7  and  C_10
REMARK    4  A    between atoms: N_11  and  C_12
REMARK    5  A    between atoms: C_12  and  N_14
REMARK    6  A    between atoms: N_14  and  C_15
REMARK    7  A    between atoms: C_19  and  S_21
REMARK    8  A    between atoms: S_21  and  N_24
REMARK    9  A    between atoms: N_24  and  C_25
REMARK   10  A    between atoms: N_24  and  C_26
REMARK                            x       y       z     vdW  Elec       q    Type
REMARK                         _______ _______ _______ _____ _____    ______ ____
ROOT
ATOM      1  C   UNL     1       2.094   2.086  -4.838  0.00  0.00    +0.135 C 
ATOM      2  S   UNL     1       1.562   3.713  -4.821  0.00  0.00    -0.019 S 
ENDROOT
BRANCH   1   3
ATOM      3  N   UNL     1       2.261   1.419  -3.678  0.00  0.00    -0.324 N 
ATOM      4  H   UNL     1       2.602   0.374  -3.688  0.00  0.00    +0.148 HD
BRANCH   3   8
ATOM      5  C   UNL     1       0.610   4.101  -0.769  0.00  0.00    -0.014 C 
ATOM      6  C   UNL     1       0.226   2.620  -0.715  0.00  0.00    -0.073 C 
ATOM      7  C   UNL     1       0.495   1.974  -2.076  0.00  0.00    +0.006 C 
ATOM      8  C   UNL     1       1.987   2.088  -2.403  0.00  0.00    +0.069 C 
ATOM      9  C   UNL     1       2.799   1.420  -1.290  0.00  0.00    +0.006 C 
ATOM     10  C   UNL     1       2.463   2.082   0.048  0.00  0.00    -0.073 C 
ATOM     11  N   UNL     1       1.025   1.945   0.316  0.00  0.00    +0.383 N 
ATOM     12  C   UNL     1       3.257   1.404   1.166  0.00  0.00    -0.014 C 
ATOM     13  H   UNL     1       0.808   2.390   1.298  0.00  0.00    -0.085 HD
ATOM     14  H   UNL     1       0.772   0.875   0.334  0.00  0.00    -0.085 HD
ENDBRANCH   3   8
ENDBRANCH   1   3
BRANCH   1  15
ATOM     15  N   UNL     1       2.346   1.471  -6.010  0.00  0.00    -0.297 N 
ATOM     16  H   UNL     1       2.753   0.449  -6.019  0.00  0.00    +0.154 HD
BRANCH  15  17
ATOM     17  C   UNL     1       2.088   2.131  -7.216  0.00  0.00    +0.034 A 
ATOM     18  C   UNL     1       1.441   1.467  -8.250  0.00  0.00    +0.023 A 
ATOM     19  C   UNL     1       1.184   2.124  -9.437  0.00  0.00    +0.004 A 
ATOM     20  C   UNL     1       1.581   3.438  -9.601  0.00  0.00    +0.028 A 
ATOM     21  C   UNL     1       2.230   4.101  -8.576  0.00  0.00    +0.107 A 
ATOM     22  C   UNL     1       2.485   3.452  -7.384  0.00  0.00    +0.051 A 
BRANCH  21  23
ATOM     23  S   UNL     1       2.733   5.776  -8.791  0.00  0.00    +0.060 S 
ATOM     24  O   UNL     1       1.894   6.327  -9.797  0.00  0.00    -0.153 OA
ATOM     25  O   UNL     1       2.835   6.340  -7.491  0.00  0.00    -0.153 OA
BRANCH  23  26
ATOM     26  N   UNL     1       4.266   5.750  -9.417  0.00  0.00    -0.183 NA
ATOM     27  C   UNL     1       4.465   5.732 -10.868  0.00  0.00    +0.131 C 
ATOM     28  C   UNL     1       5.424   5.745  -8.519  0.00  0.00    +0.131 C 
ENDBRANCH  23  26
ENDBRANCH  21  23
ENDBRANCH  15  17
ENDBRANCH   1  15
TORSDOF 6
