REMARK  Name = ZINC49543195
REMARK  10 active torsions:
REMARK  status: ('A' for Active; 'I' for Inactive)
REMARK    1  A    between atoms: C_1  and  O_2
REMARK    2  A    between atoms: O_2  and  C_3
REMARK    3  A    between atoms: C_6  and  N_11
REMARK    4  A    between atoms: C_7  and  O_9
REMARK    5  A    between atoms: O_9  and  C_10
REMARK    6  A    between atoms: C_13  and  C_30
REMARK    7  A    between atoms: C_16  and  C_22
REMARK    8  A    between atoms: C_19  and  O_21
REMARK    9  A    between atoms: C_27  and  O_28
REMARK   10  A    between atoms: O_28  and  C_29
REMARK                            x       y       z     vdW  Elec       q    Type
REMARK                         _______ _______ _______ _____ _____    ______ ____
ROOT
ATOM      1  N   UNL     1       2.463  -2.451  -4.310  0.00  0.00    -0.313 N 
ATOM      2  C   UNL     1       3.781  -2.369  -4.592  0.00  0.00    +0.109 A 
ATOM      3  C   UNL     1       4.032  -3.101  -5.741  0.00  0.00    +0.107 A 
ATOM      4  C   UNL     1       2.741  -3.649  -6.152  0.00  0.00    +0.103 A 
ATOM      5  C   UNL     1       1.828  -3.220  -5.229  0.00  0.00    +0.058 A 
ATOM      6  C   UNL     1       0.373  -3.611  -5.328  0.00  0.00    +0.081 C 
ATOM      7  C   UNL     1       0.302  -4.978  -6.018  0.00  0.00    +0.110 C 
ATOM      8  C   UNL     1       1.249  -5.061  -7.179  0.00  0.00    +0.189 C 
ATOM      9  N   UNL     1       2.392  -4.438  -7.213  0.00  0.00    -0.215 NA
ENDROOT
BRANCH   1  13
ATOM     10  C   UNL     1       0.606  -0.607  -1.056  0.00  0.00    +0.124 A 
ATOM     11  C   UNL     1       1.173   0.163  -2.062  0.00  0.00    +0.048 A 
ATOM     12  C   UNL     1       1.787  -0.447  -3.138  0.00  0.00    +0.033 A 
ATOM     13  C   UNL     1       1.839  -1.831  -3.216  0.00  0.00    +0.089 A 
ATOM     14  C   UNL     1       1.271  -2.606  -2.207  0.00  0.00    +0.147 A 
ATOM     15  C   UNL     1       0.660  -1.991  -1.126  0.00  0.00    +0.093 A 
BRANCH  10  17
ATOM     16  C   UNL     1      -0.017   1.425   0.010  0.00  0.00    +0.277 C 
ATOM     17  O   UNL     1       0.002  -0.004   0.002  0.00  0.00    -0.495 OA
ENDBRANCH  10  17
BRANCH  14  18
ATOM     18  O   UNL     1       1.321  -3.962  -2.280  0.00  0.00    -0.493 OA
ATOM     19  C   UNL     1       0.718  -4.692  -1.210  0.00  0.00    +0.277 C 
ENDBRANCH  14  18
ENDBRANCH   1  13
BRANCH   6  20
ATOM     20  C   UNL     1      -0.376  -2.588  -6.142  0.00  0.00    +0.004 A 
ATOM     21  C   UNL     1      -0.015  -2.348  -7.453  0.00  0.00    +0.008 A 
ATOM     22  C   UNL     1      -0.702  -1.408  -8.200  0.00  0.00    +0.001 A 
ATOM     23  C   UNL     1      -1.752  -0.707  -7.636  0.00  0.00    +0.004 A 
ATOM     24  C   UNL     1      -2.118  -0.944  -6.325  0.00  0.00    +0.046 A 
ATOM     25  C   UNL     1      -1.433  -1.890  -5.576  0.00  0.00    +0.124 A 
BRANCH  25  26
ATOM     26  O   UNL     1      -1.794  -2.129  -4.287  0.00  0.00    -0.495 OA
ATOM     27  C   UNL     1      -2.892  -1.373  -3.771  0.00  0.00    +0.277 C 
ENDBRANCH  25  26
ENDBRANCH   6  20
BRANCH   3  28
ATOM     28  C   UNL     1       5.324  -3.287  -6.407  0.00  0.00    +0.390 C 
ATOM     29  O   UNL     1       6.331  -2.764  -5.947  0.00  0.00    -0.240 OA
ATOM     30  O   UNL     1       5.397  -3.965  -7.424  0.00  0.00    -0.240 OA
ENDBRANCH   3  28
BRANCH   8  31
ATOM     31  O   UNL     1       0.897  -5.814  -8.243  0.00  0.00    -0.495 OA
ATOM     32  H   UNL     1       1.554  -5.823  -8.953  0.00  0.00    +0.293 HD
ENDBRANCH   8  31
TORSDOF 7
