REMARK  Name = ZINC25280224
REMARK  3 active torsions:
REMARK  status: ('A' for Active; 'I' for Inactive)
REMARK    1  A    between atoms: C_1  and  C_2
REMARK    2  A    between atoms: C_12  and  C_14
REMARK    3  A    between atoms: C_19  and  N_20
REMARK                            x       y       z     vdW  Elec       q    Type
REMARK                         _______ _______ _______ _____ _____    ______ ____
ROOT
ATOM      1  C   UNL     1      -0.821   0.661   1.291  0.00  0.00    +0.008 C 
ATOM      2  C   UNL     1      -0.013   0.320   0.038  0.00  0.00    -0.009 C 
ATOM      3  C   UNL     1       1.262   1.168   0.002  0.00  0.00    +0.010 C 
ATOM      4  C   UNL     1       2.196   0.667  -1.101  0.00  0.00    +0.056 C 
ATOM      5  C   UNL     1       1.419   0.603  -2.410  0.00  0.00    +0.054 A 
ATOM      6  C   UNL     1       0.060   0.589  -2.400  0.00  0.00    +0.015 A 
ATOM      7  S   UNL     1      -0.341   0.513  -4.125  0.00  0.00    -0.057 S 
ATOM      8  C   UNL     1       1.291   0.505  -4.723  0.00  0.00    +0.165 A 
ATOM      9  N   UNL     1       1.993   0.558  -3.610  0.00  0.00    -0.229 NA
ATOM     10  N   UNL     1       1.739   0.455  -6.037  0.00  0.00    -0.261 N 
ATOM     11  C   UNL     1       3.062   0.457  -6.298  0.00  0.00    +0.253 C 
ATOM     12  O   UNL     1       3.862   0.503  -5.384  0.00  0.00    -0.270 OA
ATOM     13  C   UNL     1      -0.846   0.628  -1.217  0.00  0.00    +0.047 C 
ATOM     14  H   UNL     1       1.015   0.413  -6.864  0.00  0.00    +0.157 HD
ENDROOT
BRANCH  11  15
ATOM     15  C   UNL     1       3.538   0.404  -7.694  0.00  0.00    +0.081 A 
ATOM     16  C   UNL     1       2.632   0.472  -8.759  0.00  0.00    +0.018 A 
ATOM     17  C   UNL     1       3.130   0.422 -10.048  0.00  0.00    +0.021 A 
ATOM     18  C   UNL     1       4.494   0.298 -10.247  0.00  0.00    +0.113 A 
ATOM     19  N   UNL     1       5.329   0.231  -9.229  0.00  0.00    -0.235 NA
ATOM     20  C   UNL     1       4.906   0.279  -7.977  0.00  0.00    +0.168 A 
BRANCH  20  21
ATOM     21  N   UNL     1       5.826   0.205  -6.932  0.00  0.00    -0.202 N 
ATOM     22  C   UNL     1       6.773   1.114  -6.622  0.00  0.00    +0.226 A 
ATOM     23  N   UNL     1       7.425   0.677  -5.576  0.00  0.00    -0.222 NA
ATOM     24  C   UNL     1       6.935  -0.504  -5.197  0.00  0.00    +0.245 A 
ATOM     25  N   UNL     1       5.955  -0.835  -5.996  0.00  0.00    -0.152 NA
ENDBRANCH  20  21
ENDBRANCH  11  15
TORSDOF 2
