REMARK  Name = ZINC09608281
REMARK  9 active torsions:
REMARK  status: ('A' for Active; 'I' for Inactive)
REMARK    1  A    between atoms: C_1  and  C_2
REMARK    2  A    between atoms: C_8  and  C_9
REMARK    3  A    between atoms: C_8  and  N_65
REMARK    4  A    between atoms: C_9  and  N_10
REMARK    5  A    between atoms: C_11  and  C_13
REMARK    6  A    between atoms: C_16  and  C_19
REMARK    7  A    between atoms: C_19  and  N_20
REMARK    8  A    between atoms: N_20  and  S_21
REMARK    9  A    between atoms: S_21  and  C_24
REMARK                            x       y       z     vdW  Elec       q    Type
REMARK                         _______ _______ _______ _____ _____    ______ ____
ROOT
ATOM      1  C   UNL     1       6.604   4.629  -0.892  0.00  0.00    +0.075 C 
ATOM      2  C   UNL     1       7.226   3.319  -0.406  0.00  0.00    +0.013 C 
ATOM      3  C   UNL     1       6.137   2.252  -0.281  0.00  0.00    +0.005 C 
ATOM      4  C   UNL     1       5.080   2.718   0.723  0.00  0.00    +0.005 C 
ATOM      5  C   UNL     1       4.458   4.028   0.237  0.00  0.00    +0.005 C 
ATOM      6  C   UNL     1       5.547   5.095   0.112  0.00  0.00    +0.013 C 
ENDROOT
BRANCH   1   8
ATOM      7  N   UNL     1       7.359   6.923  -1.430  0.00  0.00    -0.317 N 
ATOM      8  C   UNL     1       7.677   5.680  -1.016  0.00  0.00    +0.216 C 
ATOM      9  O   UNL     1       8.827   5.408  -0.742  0.00  0.00    -0.276 OA
ATOM     10  H   UNL     1       6.440   7.140  -1.649  0.00  0.00    +0.149 HD
BRANCH   7  11
ATOM     11  C   UNL     1       8.403   7.944  -1.550  0.00  0.00    +0.085 C 
BRANCH  11  12
ATOM     12  C   UNL     1       7.780   9.254  -2.036  0.00  0.00    -0.059 C 
BRANCH  12  19
ATOM     13  C   UNL     1       7.245  11.890  -1.210  0.00  0.00    -0.013 C 
ATOM     14  C   UNL     1       8.239  11.612  -2.339  0.00  0.00    -0.072 C 
ATOM     15  C   UNL     1       9.348  12.667  -2.315  0.00  0.00    -0.016 C 
ATOM     16  C   UNL     1      10.351  12.372  -3.434  0.00  0.00    -0.003 C 
ATOM     17  C   UNL     1      10.911  10.960  -3.247  0.00  0.00    -0.019 C 
ATOM     18  C   UNL     1       9.758   9.954  -3.245  0.00  0.00    -0.078 C 
ATOM     19  N   UNL     1       8.841  10.278  -2.130  0.00  0.00    +0.382 N 
ATOM     20  H   UNL     1       9.375  10.287  -1.253  0.00  0.00    -0.081 HD
ENDBRANCH  12  19
ENDBRANCH  11  12
ENDBRANCH   7  11
ENDBRANCH   1   8
BRANCH   4  21
ATOM     21  C   UNL     1       3.991   1.651   0.848  0.00  0.00    +0.109 C 
BRANCH  21  22
ATOM     22  N   UNL     1       3.043   2.042   1.895  0.00  0.00    -0.190 NA
ATOM     23  H   UNL     1       3.277   2.742   2.523  0.00  0.00    +0.148 HD
BRANCH  22  24
ATOM     24  S   UNL     1       1.573   1.287   2.004  0.00  0.00    +0.061 S 
ATOM     25  O   UNL     1       1.016   1.291   0.697  0.00  0.00    -0.153 OA
ATOM     26  O   UNL     1       0.904   1.861   3.119  0.00  0.00    -0.153 OA
BRANCH  24  27
ATOM     27  C   UNL     1       1.882  -0.398   2.415  0.00  0.00    +0.133 A 
ATOM     28  C   UNL     1       1.466  -0.892   3.605  0.00  0.00    +0.031 A 
ATOM     29  C   UNL     1       1.693  -2.221   3.964  0.00  0.00    +0.004 A 
ATOM     30  C   UNL     1       2.340  -3.077   3.137  0.00  0.00    +0.031 A 
ATOM     31  C   UNL     1       2.805  -2.629   1.873  0.00  0.00    +0.102 A 
ATOM     32  C   UNL     1       2.562  -1.239   1.496  0.00  0.00    +0.126 A 
ATOM     33  N   UNL     1       3.054  -0.955   0.292  0.00  0.00    -0.189 NA
ATOM     34  S   UNL     1       3.701  -2.279  -0.241  0.00  0.00    +0.117 S 
ATOM     35  N   UNL     1       3.454  -3.299   0.924  0.00  0.00    -0.191 NA
ENDBRANCH  24  27
ENDBRANCH  22  24
ENDBRANCH  21  22
ENDBRANCH   4  21
TORSDOF 8
