REMARK  Name = ZINC41095274
REMARK  8 active torsions:
REMARK  status: ('A' for Active; 'I' for Inactive)
REMARK    1  A    between atoms: C_1  and  C_2
REMARK    2  A    between atoms: C_2  and  C_3
REMARK    3  A    between atoms: C_3  and  C_4
REMARK    4  A    between atoms: C_3  and  C_5
REMARK    5  A    between atoms: C_3  and  C_6
REMARK    6  A    between atoms: N_14  and  C_18
REMARK    7  A    between atoms: C_18  and  C_19
REMARK    8  A    between atoms: C_24  and  C_27
REMARK                            x       y       z     vdW  Elec       q    Type
REMARK                         _______ _______ _______ _____ _____    ______ ____
ROOT
ATOM      1  C   UNL     1       0.763  -2.041   1.233  0.00  0.00    -0.005 C 
ATOM      2  C   UNL     1      -0.673  -2.570   1.242  0.00  0.00    +0.006 C 
ATOM      3  C   UNL     1      -0.651  -4.101   1.222  0.00  0.00    +0.035 C 
ATOM      4  C   UNL     1       0.105  -4.615   2.442  0.00  0.00    +0.113 C 
ATOM      5  C   UNL     1       1.532  -4.078   2.458  0.00  0.00    +0.035 C 
ATOM      6  C   UNL     1       1.503  -2.547   2.473  0.00  0.00    +0.006 C 
ATOM      7  C   UNL     1       0.110  -6.126   2.462  0.00  0.00    +0.247 C 
ATOM      8  O   UNL     1       0.588  -6.870   1.632  0.00  0.00    -0.273 OA
ATOM      9  N   UNL     1      -0.529  -6.473   3.599  0.00  0.00    -0.215 N 
ATOM     10  C   UNL     1      -0.930  -5.397   4.287  0.00  0.00    +0.310 C 
ATOM     11  O   UNL     1      -1.527  -5.455   5.344  0.00  0.00    -0.252 OA
ATOM     12  N   UNL     1      -0.597  -4.244   3.677  0.00  0.00    -0.285 N 
ATOM     13  H   UNL     1      -0.785  -3.345   3.991  0.00  0.00    +0.151 HD
ENDROOT
BRANCH   1  14
ATOM     14  C   UNL     1       0.742  -0.511   1.242  0.00  0.00    -0.032 C 
ATOM     15  C   UNL     1       2.178   0.019   1.231  0.00  0.00    +0.011 C 
ATOM     16  C   UNL     1       0.026  -0.018   2.500  0.00  0.00    +0.011 C 
BRANCH  14  18
ATOM     17  C   UNL     1      -0.019   1.526   0.010  0.00  0.00    +0.004 C 
ATOM     18  C   UNL     1       0.002  -0.004   0.002  0.00  0.00    +0.003 C 
ENDBRANCH  14  18
ENDBRANCH   1  14
BRANCH   9  19
ATOM     19  C   UNL     1      -0.757  -7.856   4.025  0.00  0.00    +0.214 C 
BRANCH  19  20
ATOM     20  C   UNL     1       0.401  -8.318   4.871  0.00  0.00    +0.236 C 
ATOM     21  O   UNL     1       1.326  -7.566   5.096  0.00  0.00    -0.274 OA
ATOM     22  N   UNL     1       0.409  -9.566   5.379  0.00  0.00    -0.266 N 
ATOM     23  C   UNL     1       1.482  -9.994   6.162  0.00  0.00    +0.168 A 
ATOM     24  C   UNL     1       2.617  -9.227   6.507  0.00  0.00    +0.091 A 
ATOM     25  C   UNL     1       3.420  -9.991   7.269  0.00  0.00    +0.136 A 
ATOM     26  O   UNL     1       2.840 -11.193   7.415  0.00  0.00    -0.358 OA
ATOM     27  N   UNL     1       1.611 -11.174   6.712  0.00  0.00    -0.063 NA
ATOM     28  C   UNL     1       4.742  -9.570   7.858  0.00  0.00    +0.089 C 
ATOM     29  H   UNL     1      -0.331 -10.168   5.199  0.00  0.00    +0.156 HD
ENDBRANCH  19  20
ENDBRANCH   9  19
TORSDOF 4
