REMARK  Name = ZINC20080877
REMARK  5 active torsions:
REMARK  status: ('A' for Active; 'I' for Inactive)
REMARK    1  A    between atoms: C_12  and  C_13
REMARK    2  A    between atoms: C_13  and  C_15
REMARK    3  A    between atoms: C_13  and  N_25
REMARK    4  A    between atoms: N_19  and  C_20
REMARK    5  A    between atoms: N_28  and  C_31
REMARK                            x       y       z     vdW  Elec       q    Type
REMARK                         _______ _______ _______ _____ _____    ______ ____
ROOT
ATOM      1  C   UNL     1       3.770  -0.634  -0.041  0.00  0.00    +0.162 C 
ENDROOT
BRANCH   1  13
ATOM      2  C   UNL     1       2.003   0.720  -1.135  0.00  0.00    +0.021 A 
ATOM      3  C   UNL     1       0.699   1.379  -1.094  0.00  0.00    +0.003 A 
ATOM      4  C   UNL     1       0.207   2.077  -2.204  0.00  0.00    +0.059 A 
ATOM      5  C   UNL     1      -1.024   2.690  -2.135  0.00  0.00    +0.167 A 
ATOM      6  C   UNL     1      -1.785   2.616  -0.961  0.00  0.00    +0.168 A 
ATOM      7  C   UNL     1      -1.305   1.932   0.141  0.00  0.00    +0.075 A 
ATOM      8  C   UNL     1      -0.067   1.304   0.086  0.00  0.00    +0.053 A 
ATOM      9  N   UNL     1       0.425   0.613   1.174  0.00  0.00    -0.322 N 
ATOM     10  H   UNL     1      -0.168   0.550   2.099  0.00  0.00    +0.169 HD
ATOM     11  C   UNL     1       1.625   0.010   1.126  0.00  0.00    +0.254 A 
ATOM     12  O   UNL     1       2.028  -0.592   2.106  0.00  0.00    -0.268 OA
ATOM     13  C   UNL     1       2.430   0.056  -0.031  0.00  0.00    +0.042 A 
ATOM     14  O   UNL     1      -2.949   3.300  -1.156  0.00  0.00    -0.453 OA
ATOM     15  C   UNL     1      -2.718   4.135  -2.306  0.00  0.00    +0.466 C 
ATOM     16  O   UNL     1      -1.720   3.420  -3.057  0.00  0.00    -0.453 OA
ENDBRANCH   1  13
BRANCH   1  17
ATOM     17  N   UNL     1       4.620  -0.068   1.015  0.00  0.00    -0.292 NA
ATOM     18  C   UNL     1       4.747   1.389   0.864  0.00  0.00    +0.067 C 
ATOM     19  C   UNL     1       5.573   1.948   2.025  0.00  0.00    -0.063 C 
ATOM     20  N   UNL     1       6.894   1.306   2.038  0.00  0.00    +0.383 N 
ATOM     21  C   UNL     1       6.767  -0.150   2.188  0.00  0.00    -0.063 C 
ATOM     22  C   UNL     1       5.942  -0.710   1.028  0.00  0.00    +0.067 C 
ATOM     23  H   UNL     1       7.379   1.506   1.071  0.00  0.00    -0.081 HD
BRANCH  20  24
ATOM     24  C   UNL     1       7.745   1.872   3.093  0.00  0.00    -0.068 C 
ATOM     25  C   UNL     1       7.128   1.572   4.461  0.00  0.00    -0.015 C 
ATOM     26  C   UNL     1       8.014   2.162   5.560  0.00  0.00    -0.002 C 
ATOM     27  C   UNL     1       8.122   3.676   5.371  0.00  0.00    -0.000 C 
ATOM     28  C   UNL     1       8.739   3.976   4.003  0.00  0.00    -0.002 C 
ATOM     29  C   UNL     1       7.853   3.386   2.904  0.00  0.00    -0.015 C 
ENDBRANCH  20  24
ENDBRANCH   1  17
BRANCH   1  30
ATOM     30  C   UNL     1       4.429  -0.431  -1.380  0.00  0.00    +0.173 A 
ATOM     31  N   UNL     1       4.998   0.668  -1.814  0.00  0.00    -0.111 NA
ATOM     32  N   UNL     1       5.444   0.443  -3.002  0.00  0.00    -0.023 NA
ATOM     33  N   UNL     1       5.175  -0.771  -3.337  0.00  0.00    -0.044 NA
ATOM     34  N   UNL     1       4.555  -1.344  -2.361  0.00  0.00    -0.224 N 
BRANCH  34  35
ATOM     35  C   UNL     1       4.074  -2.728  -2.329  0.00  0.00    +0.111 C 
ATOM     36  C   UNL     1       5.250  -3.701  -2.553  0.00  0.00    +0.027 C 
ATOM     37  C   UNL     1       4.641  -4.839  -3.411  0.00  0.00    +0.002 C 
ATOM     38  C   UNL     1       3.684  -4.077  -4.361  0.00  0.00    +0.002 C 
ATOM     39  C   UNL     1       3.079  -2.967  -3.477  0.00  0.00    +0.027 C 
ENDBRANCH  34  35
ENDBRANCH   1  30
TORSDOF 5
