REMARK  Name = ZINC19458527
REMARK  7 active torsions:
REMARK  status: ('A' for Active; 'I' for Inactive)
REMARK    1  A    between atoms: C_1  and  C_2
REMARK    2  A    between atoms: C_2  and  C_4
REMARK    3  A    between atoms: C_2  and  N_14
REMARK    4  A    between atoms: C_15  and  C_17
REMARK    5  A    between atoms: C_17  and  C_18
REMARK    6  A    between atoms: C_18  and  C_19
REMARK    7  A    between atoms: C_19  and  C_26
REMARK                            x       y       z     vdW  Elec       q    Type
REMARK                         _______ _______ _______ _____ _____    ______ ____
ROOT
ATOM      1  N   UNL     1       2.949  -1.882  -0.924  0.00  0.00    -0.306 N 
ATOM      2  C   UNL     1       3.257  -3.065  -1.493  0.00  0.00    +0.214 C 
ATOM      3  O   UNL     1       2.581  -4.044  -1.260  0.00  0.00    -0.276 OA
ATOM      4  H   UNL     1       3.562  -0.994  -1.135  0.00  0.00    +0.149 HD
ENDROOT
BRANCH   1   6
ATOM      5  C   UNL     1       2.217  -2.185   1.390  0.00  0.00    +0.036 C 
ATOM      6  C   UNL     1       1.797  -1.780  -0.025  0.00  0.00    +0.136 C 
BRANCH   6   7
ATOM      7  C   UNL     1       1.294  -0.360  -0.012  0.00  0.00    +0.126 A 
ATOM      8  C   UNL     1       0.002  -0.004   0.002  0.00  0.00    +0.055 A 
ATOM      9  C   UNL     1      -0.018   1.464   0.010  0.00  0.00    +0.022 A 
ATOM     10  C   UNL     1      -1.028   2.424   0.030  0.00  0.00    +0.031 A 
ATOM     11  C   UNL     1      -0.696   3.762   0.029  0.00  0.00    +0.042 A 
ATOM     12  C   UNL     1       0.637   4.151   0.018  0.00  0.00    +0.023 A 
ATOM     13  C   UNL     1       1.644   3.211   0.004  0.00  0.00    +0.048 A 
ATOM     14  C   UNL     1       1.330   1.858  -0.001  0.00  0.00    +0.135 A 
ATOM     15  O   UNL     1       2.076   0.734  -0.014  0.00  0.00    -0.458 OA
ATOM     16 CL   UNL     1      -1.948   4.964   0.048  0.00  0.00    -0.084 Cl
ENDBRANCH   6   7
ENDBRANCH   1   6
BRANCH   2  17
ATOM     17  C   UNL     1       4.442  -3.170  -2.418  0.00  0.00    +0.098 C 
BRANCH  17  18
ATOM     18  C   UNL     1       4.569  -4.608  -2.923  0.00  0.00    +0.044 C 
BRANCH  18  19
ATOM     19  C   UNL     1       5.772  -4.715  -3.862  0.00  0.00    +0.110 C 
ATOM     20  C   UNL     1       7.059  -4.418  -3.118  0.00  0.00    +0.244 C 
ATOM     21  O   UNL     1       7.361  -3.383  -2.563  0.00  0.00    -0.273 OA
ATOM     22  N   UNL     1       7.794  -5.548  -3.201  0.00  0.00    -0.238 N 
ATOM     23  C   UNL     1       7.157  -6.502  -3.890  0.00  0.00    +0.307 C 
ATOM     24  O   UNL     1       7.619  -7.607  -4.099  0.00  0.00    -0.252 OA
ATOM     25  N   UNL     1       5.948  -6.103  -4.324  0.00  0.00    -0.285 N 
ATOM     26  C   UNL     1       5.609  -3.768  -5.053  0.00  0.00    +0.041 C 
ATOM     27  H   UNL     1       8.787  -5.594  -2.731  0.00  0.00    +0.159 HD
ATOM     28  H   UNL     1       5.154  -6.593  -4.907  0.00  0.00    +0.151 HD
ENDBRANCH  18  19
ENDBRANCH  17  18
ENDBRANCH   2  17
TORSDOF 5
