REMARK  Name = ZINC05067635
REMARK  9 active torsions:
REMARK  status: ('A' for Active; 'I' for Inactive)
REMARK    1  A    between atoms: C_1  and  C_2
REMARK    2  A    between atoms: C_7  and  N_12
REMARK    3  A    between atoms: C_9  and  C_11
REMARK    4  A    between atoms: C_13  and  C_15
REMARK    5  A    between atoms: C_15  and  O_16
REMARK    6  A    between atoms: O_16  and  C_17
REMARK    7  A    between atoms: C_17  and  C_19
REMARK    8  A    between atoms: C_19  and  N_20
REMARK    9  A    between atoms: C_28  and  C_30
REMARK                            x       y       z     vdW  Elec       q    Type
REMARK                         _______ _______ _______ _____ _____    ______ ____
ROOT
ATOM      1  C   UNL     1      -2.945   1.171   1.442  0.00  0.00    +0.326 C 
ATOM      2  O   UNL     1      -2.217   1.471   2.359  0.00  0.00    -0.249 OA
ENDROOT
BRANCH   1   3
ATOM      3  O   UNL     1      -4.160   0.659   1.690  0.00  0.00    -0.454 OA
BRANCH   3   4
ATOM      4  C   UNL     1      -4.534   0.492   3.083  0.00  0.00    +0.327 C 
BRANCH   4   6
ATOM      5  N   UNL     1      -6.480  -0.334   4.367  0.00  0.00    -0.309 N 
ATOM      6  C   UNL     1      -5.921  -0.091   3.165  0.00  0.00    +0.251 C 
ATOM      7  O   UNL     1      -6.534  -0.342   2.149  0.00  0.00    -0.272 OA
ATOM      8  H   UNL     1      -5.989  -0.134   5.180  0.00  0.00    +0.149 HD
BRANCH   5  14
ATOM      9  C   UNL     1      -9.566  -2.973   7.188  0.00  0.00    +0.008 C 
ATOM     10  C   UNL     1      -9.401  -2.233   5.859  0.00  0.00    -0.009 C 
ATOM     11  C   UNL     1     -10.434  -1.108   5.770  0.00  0.00    +0.003 C 
ATOM     12  C   UNL     1     -10.269  -0.368   4.441  0.00  0.00    +0.002 C 
ATOM     13  C   UNL     1      -8.861   0.224   4.358  0.00  0.00    +0.022 C 
ATOM     14  C   UNL     1      -7.828  -0.901   4.447  0.00  0.00    +0.076 C 
ATOM     15  C   UNL     1      -7.993  -1.641   5.776  0.00  0.00    +0.009 C 
ATOM     16  C   UNL     1      -6.960  -2.766   5.865  0.00  0.00    +0.009 C 
ENDBRANCH   5  14
ENDBRANCH   4   6
ENDBRANCH   3   4
ENDBRANCH   1   3
BRANCH   1  17
ATOM     17  C   UNL     1      -2.487   1.373   0.020  0.00  0.00    +0.238 C 
BRANCH  17  18
ATOM     18  N   UNL     1      -1.137   1.940   0.018  0.00  0.00    -0.213 N 
ATOM     19  C   UNL     1      -0.870   3.263   0.028  0.00  0.00    +0.247 C 
ATOM     20  O   UNL     1      -1.671   4.173   0.040  0.00  0.00    -0.273 OA
ATOM     21  C   UNL     1       0.637   3.371   0.014  0.00  0.00    +0.115 C 
ATOM     22  C   UNL     1       1.132   4.084   1.268  0.00  0.00    +0.035 C 
ATOM     23  C   UNL     1       0.617   5.525   1.276  0.00  0.00    +0.003 C 
ATOM     24  C   UNL     1       1.117   6.251   0.025  0.00  0.00    +0.000 C 
ATOM     25  C   UNL     1       0.592   5.539  -1.224  0.00  0.00    +0.006 C 
ATOM     26  C   UNL     1       1.108   4.097  -1.241  0.00  0.00    +0.018 C 
ATOM     27  C   UNL     1       0.567   3.378  -2.479  0.00  0.00    +0.010 C 
ATOM     28  N   UNL     1       1.095   1.975   0.002  0.00  0.00    -0.285 N 
ATOM     29  C   UNL     1      -0.014   1.211   0.009  0.00  0.00    +0.310 C 
ATOM     30  O   UNL     1       0.002  -0.004   0.002  0.00  0.00    -0.252 OA
ATOM     31  H   UNL     1       2.014   1.665  -0.008  0.00  0.00    +0.151 HD
ENDBRANCH  17  18
ENDBRANCH   1  17
TORSDOF 6
