REMARK  Name = ZINC46658108
REMARK  6 active torsions:
REMARK  status: ('A' for Active; 'I' for Inactive)
REMARK    1  A    between atoms: C_11  and  C_13
REMARK    2  A    between atoms: C_13  and  O_14
REMARK    3  A    between atoms: O_14  and  C_15
REMARK    4  A    between atoms: C_15  and  C_17
REMARK    5  A    between atoms: C_20  and  S_22
REMARK    6  A    between atoms: S_22  and  N_25
REMARK                            x       y       z     vdW  Elec       q    Type
REMARK                         _______ _______ _______ _____ _____    ______ ____
ROOT
ATOM      1  O   UNL     1       6.236  -2.932   2.566  0.00  0.00    -0.450 OA
ENDROOT
BRANCH   1   2
ATOM      2  C   UNL     1       7.278  -2.426   3.258  0.00  0.00    +0.375 C 
ATOM      3  O   UNL     1       7.562  -1.248   3.154  0.00  0.00    -0.241 OA
BRANCH   2   4
ATOM      4  C   UNL     1       8.067  -3.295   4.133  0.00  0.00    +0.214 A 
ATOM      5  C   UNL     1       9.139  -2.913   4.890  0.00  0.00    +0.059 A 
ATOM      6  C   UNL     1       9.584  -4.059   5.566  0.00  0.00    +0.072 A 
ATOM      7  C   UNL     1       8.776  -5.078   5.197  0.00  0.00    +0.258 A 
ATOM      8  O   UNL     1       7.860  -4.613   4.338  0.00  0.00    -0.430 OA
BRANCH   7   9
ATOM      9  S   UNL     1       8.903  -6.743   5.759  0.00  0.00    +0.089 S 
ATOM     10  O   UNL     1       8.290  -7.554   4.767  0.00  0.00    -0.150 OA
ATOM     11  O   UNL     1      10.250  -6.931   6.171  0.00  0.00    -0.150 OA
BRANCH   9  12
ATOM     12  N   UNL     1       7.969  -6.873   7.121  0.00  0.00    -0.201 NA
ATOM     13  H   UNL     1       7.547  -7.718   7.340  0.00  0.00    +0.144 HD
ATOM     14  H   UNL     1       7.844  -6.104   7.698  0.00  0.00    +0.144 HD
ENDBRANCH   9  12
ENDBRANCH   7   9
ENDBRANCH   2   4
ENDBRANCH   1   2
BRANCH   1  15
ATOM     15  C   UNL     1       5.510  -2.026   1.732  0.00  0.00    +0.328 C 
BRANCH  15  26
ATOM     16  C   UNL     1      -0.017   1.375   0.010  0.00  0.00    +0.000 A 
ATOM     17  C   UNL     1       1.173   2.079   0.002  0.00  0.00    +0.000 A 
ATOM     18  C   UNL     1       2.372   1.396  -0.019  0.00  0.00    +0.005 A 
ATOM     19  C   UNL     1       2.392   0.008  -0.029  0.00  0.00    -0.027 A 
ATOM     20  C   UNL     1       1.208  -0.695  -0.011  0.00  0.00    -0.041 A 
ATOM     21  C   UNL     1       0.002  -0.004   0.002  0.00  0.00    +0.004 A 
ATOM     22  C   UNL     1       1.151  -2.200   0.010  0.00  0.00    +0.054 C 
ATOM     23  C   UNL     1       2.465  -2.801  -0.485  0.00  0.00    +0.113 C 
ATOM     24  N   UNL     1       3.568  -2.109   0.202  0.00  0.00    -0.294 N 
ATOM     25  C   UNL     1       3.735  -0.676  -0.066  0.00  0.00    +0.143 C 
ATOM     26  C   UNL     1       4.391  -2.765   1.044  0.00  0.00    +0.254 C 
ATOM     27  O   UNL     1       4.230  -3.950   1.248  0.00  0.00    -0.272 OA
ENDBRANCH  15  26
ENDBRANCH   1  15
TORSDOF 6
