REMARK  Name = ZINC02474693
REMARK  4 active torsions:
REMARK  status: ('A' for Active; 'I' for Inactive)
REMARK    1  A    between atoms: C_6  and  C_7
REMARK    2  A    between atoms: C_10  and  C_30
REMARK    3  A    between atoms: C_15  and  C_18
REMARK    4  A    between atoms: N_20  and  C_21
REMARK                            x       y       z     vdW  Elec       q    Type
REMARK                         _______ _______ _______ _____ _____    ______ ____
ROOT
ATOM      1  C   UNL     1      -2.240  -0.688  -0.478  0.00  0.00    +0.113 C 
ATOM      2  C   UNL     1      -2.244  -0.911   1.035  0.00  0.00    +0.062 C 
ATOM      3  C   UNL     1      -3.077  -2.158   1.372  0.00  0.00    +0.201 C 
ATOM      4  N   UNL     1      -2.566  -3.258   0.547  0.00  0.00    -0.226 N 
ATOM      5  C   UNL     1      -1.903  -3.046  -0.653  0.00  0.00    +0.126 C 
ATOM      6  N   UNL     1      -1.707  -1.868  -1.170  0.00  0.00    -0.364 N 
ATOM      7  C   UNL     1      -1.518  -4.374  -1.147  0.00  0.00    +0.091 C 
ATOM      8  C   UNL     1      -1.987  -5.283  -0.237  0.00  0.00    +0.104 C 
ATOM      9  N   UNL     1      -2.623  -4.629   0.768  0.00  0.00    -0.269 N 
ATOM     10  H   UNL     1      -3.051  -5.054   1.528  0.00  0.00    +0.170 HD
ATOM     11  H   UNL     1      -1.216  -1.772  -2.002  0.00  0.00    +0.161 HD
ENDROOT
BRANCH   1  17
ATOM     12  C   UNL     1      -1.970   1.736  -1.041  0.00  0.00    +0.008 A 
ATOM     13  C   UNL     1      -1.185   2.833  -1.338  0.00  0.00    +0.038 A 
ATOM     14  C   UNL     1       0.193   2.702  -1.396  0.00  0.00    +0.123 A 
ATOM     15  C   UNL     1       0.781   1.472  -1.155  0.00  0.00    +0.038 A 
ATOM     16  C   UNL     1      -0.007   0.376  -0.859  0.00  0.00    +0.008 A 
ATOM     17  C   UNL     1      -1.382   0.508  -0.802  0.00  0.00    -0.025 A 
ATOM     18  F   UNL     1       0.962   3.774  -1.686  0.00  0.00    -0.205 F 
ENDBRANCH   1  17
BRANCH   7  19
ATOM     19  C   UNL     1      -0.776  -4.669  -2.377  0.00  0.00    +0.253 C 
ATOM     20  O   UNL     1      -0.428  -5.809  -2.619  0.00  0.00    -0.270 OA
ATOM     21  N   UNL     1      -0.480  -3.676  -3.240  0.00  0.00    -0.281 N 
ATOM     22  H   UNL     1      -0.689  -2.757  -3.012  0.00  0.00    +0.155 HD
BRANCH  21  23
ATOM     23  C   UNL     1       0.131  -3.973  -4.465  0.00  0.00    +0.037 A 
ATOM     24  C   UNL     1      -0.165  -5.161  -5.119  0.00  0.00    +0.027 A 
ATOM     25  C   UNL     1       0.436  -5.455  -6.328  0.00  0.00    +0.051 A 
ATOM     26  C   UNL     1       1.335  -4.564  -6.892  0.00  0.00    +0.166 A 
ATOM     27  C   UNL     1       1.634  -3.371  -6.239  0.00  0.00    +0.168 A 
ATOM     28  C   UNL     1       1.027  -3.075  -5.029  0.00  0.00    +0.072 A 
ATOM     29  O   UNL     1       2.536  -2.676  -6.991  0.00  0.00    -0.453 OA
ATOM     30  C   UNL     1       3.095  -3.636  -7.906  0.00  0.00    +0.466 C 
ATOM     31  O   UNL     1       2.050  -4.616  -8.054  0.00  0.00    -0.453 OA
ENDBRANCH  21  23
ENDBRANCH   7  19
BRANCH   3  32
ATOM     32  C   UNL     1      -2.923  -2.501   2.855  0.00  0.00    +0.410 C 
ATOM     33  F   UNL     1      -3.367  -1.426   3.632  0.00  0.00    -0.169 F 
ATOM     34  F   UNL     1      -3.684  -3.637   3.153  0.00  0.00    -0.169 F 
ATOM     35  F   UNL     1      -1.577  -2.756   3.138  0.00  0.00    -0.169 F 
ENDBRANCH   3  32
TORSDOF 4
