REMARK  Name = ZINC12659000
REMARK  7 active torsions:
REMARK  status: ('A' for Active; 'I' for Inactive)
REMARK    1  A    between atoms: C_1  and  C_2
REMARK    2  A    between atoms: C_2  and  N_3
REMARK    3  A    between atoms: C_4  and  C_6
REMARK    4  A    between atoms: C_6  and  N_17
REMARK    5  A    between atoms: C_7  and  C_8
REMARK    6  A    between atoms: C_12  and  N_14
REMARK    7  A    between atoms: C_18  and  C_20
REMARK                            x       y       z     vdW  Elec       q    Type
REMARK                         _______ _______ _______ _____ _____    ______ ____
ROOT
ATOM      1  C   UNL     1      -1.268   6.021  -0.039  0.00  0.00    +0.097 C 
ATOM      2  C   UNL     1      -0.057   5.469   0.205  0.00  0.00    +0.036 C 
ENDROOT
BRANCH   2   3
ATOM      3  C   UNL     1       0.040   4.062   0.624  0.00  0.00    -0.021 A 
ATOM      4  C   UNL     1      -1.062   3.424   1.203  0.00  0.00    +0.008 A 
ATOM      5  C   UNL     1      -0.965   2.103   1.586  0.00  0.00    +0.003 A 
ATOM      6  C   UNL     1       0.221   1.412   1.410  0.00  0.00    +0.033 A 
ATOM      7  C   UNL     1       1.315   2.037   0.837  0.00  0.00    +0.127 A 
ATOM      8  C   UNL     1       1.233   3.356   0.443  0.00  0.00    +0.040 A 
BRANCH   7   9
ATOM      9  N   UNL     1       2.578   1.287   0.647  0.00  0.00    +0.056 N 
ATOM     10  O   UNL     1       2.652   0.122   0.995  0.00  0.00    -0.126 OA
ATOM     11  O   UNL     1       3.542   1.835   0.144  0.00  0.00    -0.126 OA
ENDBRANCH   7   9
ENDBRANCH   2   3
BRANCH   1  13
ATOM     12  N   UNL     1      -2.569   7.998  -0.636  0.00  0.00    -0.311 N 
ATOM     13  C   UNL     1      -1.382   7.466  -0.286  0.00  0.00    +0.258 C 
ATOM     14  O   UNL     1      -0.404   8.181  -0.175  0.00  0.00    -0.269 OA
ATOM     15  H   UNL     1      -3.363   7.441  -0.658  0.00  0.00    +0.149 HD
BRANCH  12  17
ATOM     16  C   UNL     1      -4.109   9.764  -1.338  0.00  0.00    +0.024 C 
ATOM     17  C   UNL     1      -2.662   9.419  -0.982  0.00  0.00    +0.101 C 
ENDBRANCH  12  17
ENDBRANCH   1  13
BRANCH   1  18
ATOM     18  N   UNL     1      -2.411   5.217  -0.057  0.00  0.00    -0.277 N 
ATOM     19  C   UNL     1      -3.442   5.491   0.767  0.00  0.00    +0.248 C 
ATOM     20  O   UNL     1      -3.412   6.486   1.466  0.00  0.00    -0.270 OA
ATOM     21  H   UNL     1      -2.463   4.461  -0.663  0.00  0.00    +0.155 HD
BRANCH  19  22
ATOM     22  C   UNL     1      -4.607   4.583   0.822  0.00  0.00    +0.038 A 
ATOM     23  C   UNL     1      -4.646   3.443   0.017  0.00  0.00    +0.013 A 
ATOM     24  C   UNL     1      -5.733   2.598   0.076  0.00  0.00    +0.002 A 
ATOM     25  C   UNL     1      -6.790   2.882   0.924  0.00  0.00    +0.015 A 
ATOM     26  C   UNL     1      -6.760   4.013   1.721  0.00  0.00    +0.019 A 
ATOM     27  C   UNL     1      -5.675   4.865   1.675  0.00  0.00    +0.028 A 
ATOM     28 BR   UNL     1      -8.209   4.392   2.875  0.00  0.00    -0.050 Br
ENDBRANCH  19  22
ENDBRANCH   1  18
TORSDOF 6
