REMARK  Name = ZINC13238253
REMARK  10 active torsions:
REMARK  status: ('A' for Active; 'I' for Inactive)
REMARK    1  A    between atoms: C_1  and  C_2
REMARK    2  A    between atoms: C_2  and  C_3
REMARK    3  A    between atoms: C_2  and  C_4
REMARK    4  A    between atoms: C_4  and  C_6
REMARK    5  A    between atoms: C_4  and  N_8
REMARK    6  A    between atoms: C_18  and  S_19
REMARK    7  A    between atoms: S_19  and  C_20
REMARK    8  A    between atoms: C_20  and  C_21
REMARK    9  A    between atoms: N_23  and  C_24
REMARK   10  A    between atoms: C_25  and  C_29
REMARK                            x       y       z     vdW  Elec       q    Type
REMARK                         _______ _______ _______ _____ _____    ______ ____
ROOT
ATOM      1  N   UNL     1       1.532  -7.859  -0.386  0.00  0.00    -0.273 N 
ATOM      2  C   UNL     1       2.488  -8.785  -0.627  0.00  0.00    +0.263 A 
ATOM      3  O   UNL     1       2.220  -9.971  -0.681  0.00  0.00    -0.267 OA
ATOM      4  C   UNL     1       3.865  -8.306  -0.814  0.00  0.00    +0.065 A 
ATOM      5  C   UNL     1       4.922  -9.181  -1.061  0.00  0.00    +0.015 A 
ATOM      6  C   UNL     1       6.184  -8.682  -1.228  0.00  0.00    +0.001 A 
ATOM      7  C   UNL     1       6.423  -7.315  -1.154  0.00  0.00    +0.002 A 
ATOM      8  C   UNL     1       5.405  -6.436  -0.912  0.00  0.00    +0.028 A 
ATOM      9  C   UNL     1       4.104  -6.915  -0.737  0.00  0.00    +0.079 A 
ATOM     10  N   UNL     1       3.070  -6.083  -0.497  0.00  0.00    -0.223 NA
ATOM     11  C   UNL     1       1.851  -6.532  -0.333  0.00  0.00    +0.173 A 
ENDROOT
BRANCH   1  12
ATOM     12  C   UNL     1       0.143  -8.282  -0.186  0.00  0.00    +0.208 C 
BRANCH  12  14
ATOM     13  C   UNL     1      -1.451  -9.320   1.433  0.00  0.00    +0.010 C 
ATOM     14  C   UNL     1       0.022  -9.021   1.147  0.00  0.00    +0.017 C 
ATOM     15  C   UNL     1       0.804 -10.335   1.075  0.00  0.00    +0.010 C 
ENDBRANCH  12  14
BRANCH  12  16
ATOM     16  C   UNL     1      -0.269  -9.199  -1.309  0.00  0.00    +0.379 C 
ATOM     17  O   UNL     1       0.517  -9.472  -2.185  0.00  0.00    -0.244 OA
ATOM     18  O   UNL     1      -1.508  -9.713  -1.335  0.00  0.00    -0.244 OA
ENDBRANCH  12  16
ENDBRANCH   1  12
BRANCH  11  19
ATOM     19  S   UNL     1       0.562  -5.370  -0.024  0.00  0.00    -0.078 S 
BRANCH  19  20
ATOM     20  C   UNL     1       1.514  -3.831  -0.052  0.00  0.00    +0.173 C 
BRANCH  20  21
ATOM     21  C   UNL     1       0.592  -2.665   0.197  0.00  0.00    +0.228 C 
ATOM     22  O   UNL     1      -0.593  -2.857   0.376  0.00  0.00    -0.275 OA
ATOM     23  N   UNL     1       1.083  -1.410   0.221  0.00  0.00    -0.278 N 
ATOM     24  H   UNL     1       2.030  -1.257   0.077  0.00  0.00    +0.155 HD
BRANCH  23  25
ATOM     25  C   UNL     1       0.233  -0.337   0.450  0.00  0.00    +0.089 A 
ATOM     26  C   UNL     1       0.548   1.015   0.511  0.00  0.00    +0.080 A 
ATOM     27  C   UNL     1      -0.542   1.925   0.766  0.00  0.00    +0.028 A 
ATOM     28  C   UNL     1      -1.767   1.388   0.923  0.00  0.00    +0.048 A 
ATOM     29  S   UNL     1      -1.476  -0.358   0.730  0.00  0.00    -0.081 S 
BRANCH  26  30
ATOM     30  C   UNL     1       1.889   1.482   0.329  0.00  0.00    +0.102 C 
ATOM     31  N   UNL     1       2.953   1.853   0.184  0.00  0.00    -0.191 NA
ENDBRANCH  26  30
ENDBRANCH  23  25
ENDBRANCH  20  21
ENDBRANCH  19  20
ENDBRANCH  11  19
TORSDOF 8
