REMARK  Name = ZINC12378791
REMARK  8 active torsions:
REMARK  status: ('A' for Active; 'I' for Inactive)
REMARK    1  A    between atoms: C_1  and  C_2
REMARK    2  A    between atoms: C_2  and  C_23
REMARK    3  A    between atoms: N_3  and  N_4
REMARK    4  A    between atoms: C_7  and  O_22
REMARK    5  A    between atoms: C_8  and  C_11
REMARK    6  A    between atoms: C_11  and  C_12
REMARK    7  A    between atoms: N_14  and  C_15
REMARK    8  A    between atoms: C_26  and  N_29
REMARK                            x       y       z     vdW  Elec       q    Type
REMARK                         _______ _______ _______ _____ _____    ______ ____
ROOT
ATOM      1  N   UNL     1       5.081   0.383   1.984  0.00  0.00    -0.122 NA
ATOM      2  C   UNL     1       4.215   0.889   1.051  0.00  0.00    +0.213 C 
ATOM      3  N   UNL     1       4.421   1.902   0.213  0.00  0.00    -0.189 NA
ATOM      4  C   UNL     1       3.553   2.328  -0.645  0.00  0.00    +0.204 C 
ATOM      5  C   UNL     1       2.233   1.566  -0.633  0.00  0.00    +0.148 C 
ATOM      6  S   UNL     1       2.601   0.352   0.697  0.00  0.00    -0.071 S 
ENDROOT
BRANCH   1   9
ATOM      7  C   UNL     1       5.214  -2.356   4.411  0.00  0.00    +0.068 C 
ATOM      8  C   UNL     1       5.577  -1.110   3.644  0.00  0.00    +0.068 C 
ATOM      9  N   UNL     1       4.723  -0.612   2.724  0.00  0.00    -0.151 NA
BRANCH   8  10
ATOM     10  C   UNL     1       6.800  -0.469   3.886  0.00  0.00    -0.002 A 
ATOM     11  C   UNL     1       7.944  -1.224   4.239  0.00  0.00    +0.012 A 
ATOM     12  C   UNL     1       9.129  -0.588   4.466  0.00  0.00    +0.033 A 
ATOM     13  C   UNL     1       9.213   0.795   4.363  0.00  0.00    +0.126 A 
ATOM     14  C   UNL     1       8.097   1.549   4.023  0.00  0.00    +0.033 A 
ATOM     15  C   UNL     1       6.901   0.938   3.784  0.00  0.00    +0.012 A 
BRANCH  13  16
ATOM     16  N   UNL     1      10.505   1.472   4.618  0.00  0.00    +0.056 N 
ATOM     17  O   UNL     1      10.592   2.783   4.522  0.00  0.00    -0.126 OA
ATOM     18  O   UNL     1      11.567   0.764   4.942  0.00  0.00    -0.126 OA
ENDBRANCH  13  16
ENDBRANCH   8  10
ENDBRANCH   1   9
BRANCH   4  19
ATOM     19  O   UNL     1       3.794   3.351  -1.475  0.00  0.00    -0.495 OA
ATOM     20  H   UNL     1       4.661   3.774  -1.410  0.00  0.00    +0.293 HD
ENDBRANCH   4  19
BRANCH   5  21
ATOM     21  C   UNL     1       1.065   2.477  -0.250  0.00  0.00    +0.120 C 
BRANCH  21  22
ATOM     22  C   UNL     1      -0.200   1.663  -0.166  0.00  0.00    +0.219 C 
ATOM     23  O   UNL     1      -0.171   0.472  -0.390  0.00  0.00    -0.275 OA
ATOM     24  N   UNL     1      -1.365   2.261   0.152  0.00  0.00    -0.285 N 
ATOM     25  H   UNL     1      -1.379   3.200   0.395  0.00  0.00    +0.155 HD
BRANCH  24  26
ATOM     26  C   UNL     1      -2.557   1.526   0.133  0.00  0.00    +0.033 A 
ATOM     27  C   UNL     1      -3.740   2.130  -0.272  0.00  0.00    +0.025 A 
ATOM     28  C   UNL     1      -4.913   1.401  -0.295  0.00  0.00    +0.022 A 
ATOM     29  C   UNL     1      -4.912   0.074   0.096  0.00  0.00    +0.041 A 
ATOM     30  C   UNL     1      -3.736  -0.529   0.504  0.00  0.00    +0.022 A 
ATOM     31  C   UNL     1      -2.559   0.194   0.524  0.00  0.00    +0.025 A 
ATOM     32 CL   UNL     1      -6.390  -0.837   0.072  0.00  0.00    -0.084 Cl
ENDBRANCH  24  26
ENDBRANCH  21  22
ENDBRANCH   5  21
TORSDOF 7
