REMARK  Name = ZINC39361311
REMARK  3 active torsions:
REMARK  status: ('A' for Active; 'I' for Inactive)
REMARK    1  A    between atoms: C_3  and  C_28
REMARK    2  A    between atoms: C_6  and  C_7
REMARK    3  A    between atoms: N_30  and  N_31
REMARK                            x       y       z     vdW  Elec       q    Type
REMARK                         _______ _______ _______ _____ _____    ______ ____
ROOT
ATOM      1  C   UNL     1      -1.300  -0.775   0.010  0.00  0.00    +0.043 C 
ATOM      2  C   UNL     1      -1.412  -1.585  -1.255  0.00  0.00    +0.015 C 
ATOM      3  C   UNL     1      -2.901  -1.621  -1.732  0.00  0.00    -0.006 C 
ATOM      4  C   UNL     1      -3.708  -2.217  -0.539  0.00  0.00    +0.004 C 
ATOM      5  C   UNL     1      -3.159  -3.655  -0.397  0.00  0.00    +0.005 C 
ATOM      6  C   UNL     1      -2.221  -3.854  -1.623  0.00  0.00    +0.003 C 
ATOM      7  C   UNL     1      -2.883  -2.884  -2.672  0.00  0.00    +0.008 C 
ATOM      8  C   UNL     1      -0.944  -3.021  -1.306  0.00  0.00    +0.059 C 
ATOM      9  S   UNL     1      -0.064  -3.699   0.098  0.00  0.00    -0.107 S 
ATOM     10  C   UNL     1      -0.166  -2.523   1.277  0.00  0.00    +0.082 C 
ATOM     11  N   UNL     1       0.683  -2.298   2.216  0.00  0.00    -0.168 NA
ATOM     12  C   UNL     1       0.551  -1.354   3.163  0.00  0.00    +0.296 C 
ATOM     13  O   UNL     1       1.311  -1.090   4.077  0.00  0.00    -0.261 OA
ATOM     14  S   UNL     1      -1.010  -0.580   2.759  0.00  0.00    -0.055 S 
ATOM     15  C   UNL     1      -1.396  -1.603   1.282  0.00  0.00    +0.116 C 
ENDROOT
BRANCH   1  21
ATOM     16  C   UNL     1      -0.017   1.379   0.010  0.00  0.00    +0.005 A 
ATOM     17  C   UNL     1       1.167   2.088   0.002  0.00  0.00    +0.013 A 
ATOM     18  C   UNL     1       2.385   1.407  -0.013  0.00  0.00    +0.038 A 
ATOM     19  C   UNL     1       2.397   0.011  -0.021  0.00  0.00    +0.013 A 
ATOM     20  C   UNL     1       1.206  -0.686  -0.013  0.00  0.00    +0.005 A 
ATOM     21  C   UNL     1       0.002  -0.004   0.002  0.00  0.00    -0.042 A 
BRANCH  18  22
ATOM     22  C   UNL     1       3.657   2.160  -0.022  0.00  0.00    +0.257 C 
ATOM     23  O   UNL     1       3.643   3.376  -0.015  0.00  0.00    -0.269 OA
ATOM     24  N   UNL     1       4.831   1.499  -0.037  0.00  0.00    -0.250 N 
ATOM     25  H   UNL     1       4.842   0.529  -0.042  0.00  0.00    +0.169 HD
BRANCH  24  26
ATOM     26  N   UNL     1       6.007   2.195  -0.044  0.00  0.00    -0.254 NA
ATOM     27  H   UNL     1       6.057   2.828   0.740  0.00  0.00    +0.140 HD
ATOM     28  H   UNL     1       6.798   1.569  -0.055  0.00  0.00    +0.140 HD
ENDBRANCH  24  26
ENDBRANCH  18  22
ENDBRANCH   1  21
TORSDOF 3
