REMARK  Name = ZINC39770539
REMARK  10 active torsions:
REMARK  status: ('A' for Active; 'I' for Inactive)
REMARK    1  A    between atoms: C_1  and  C_2
REMARK    2  A    between atoms: C_2  and  C_3
REMARK    3  A    between atoms: C_3  and  C_4
REMARK    4  A    between atoms: C_4  and  N_5
REMARK    5  A    between atoms: C_6  and  N_31
REMARK    6  A    between atoms: C_7  and  C_15
REMARK    7  A    between atoms: C_8  and  C_14
REMARK    8  A    between atoms: C_9  and  C_12
REMARK    9  A    between atoms: N_19  and  C_23
REMARK   10  A    between atoms: C_23  and  C_24
REMARK                            x       y       z     vdW  Elec       q    Type
REMARK                         _______ _______ _______ _____ _____    ______ ____
ROOT
ATOM      1  N   UNL     1       1.972  -2.555  -2.580  0.00  0.00    -0.295 N 
ATOM      2  C   UNL     1       1.107  -2.730  -3.612  0.00  0.00    +0.112 A 
ATOM      3  C   UNL     1       1.477  -3.493  -4.731  0.00  0.00    +0.019 A 
ATOM      4  C   UNL     1       2.753  -4.078  -4.778  0.00  0.00    -0.017 A 
ATOM      5  C   UNL     1       3.622  -3.884  -3.708  0.00  0.00    +0.120 A 
ATOM      6  C   UNL     1       3.202  -3.100  -2.603  0.00  0.00    +0.270 A 
ATOM      7  O   UNL     1       3.960  -2.922  -1.665  0.00  0.00    -0.266 OA
ATOM      8  C   UNL     1       3.175  -4.902  -5.967  0.00  0.00    +0.046 C 
ENDROOT
BRANCH   3   9
ATOM      9  C   UNL     1       0.539  -3.679  -5.840  0.00  0.00    +0.032 C 
ATOM     10  C   UNL     1       0.815  -3.146  -7.061  0.00  0.00    +0.077 C 
ATOM     11  C   UNL     1       1.889  -2.293  -7.458  0.00  0.00    +0.259 C 
ATOM     12  O   UNL     1       2.734  -1.934  -6.658  0.00  0.00    -0.269 OA
ATOM     13  N   UNL     1       1.940  -1.905  -8.721  0.00  0.00    -0.251 N 
ATOM     14  C   UNL     1       1.002  -2.304  -9.609  0.00  0.00    +0.121 C 
ATOM     15  S   UNL     1       0.873  -1.927 -11.274  0.00  0.00    -0.027 S 
ATOM     16  S   UNL     1      -0.064  -3.329  -8.607  0.00  0.00    -0.061 S 
BRANCH  13  17
ATOM     17  C   UNL     1       3.028  -1.030  -9.164  0.00  0.00    +0.150 C 
BRANCH  17  18
ATOM     18  C   UNL     1       4.188  -1.869  -9.635  0.00  0.00    -0.029 A 
ATOM     19  C   UNL     1       5.167  -2.257  -8.740  0.00  0.00    +0.008 A 
ATOM     20  C   UNL     1       6.231  -3.027  -9.170  0.00  0.00    +0.038 A 
ATOM     21  C   UNL     1       6.316  -3.410 -10.498  0.00  0.00    +0.123 A 
ATOM     22  C   UNL     1       5.334  -3.021 -11.393  0.00  0.00    +0.038 A 
ATOM     23  C   UNL     1       4.269  -2.255 -10.960  0.00  0.00    +0.008 A 
ATOM     24  F   UNL     1       7.356  -4.162 -10.920  0.00  0.00    -0.205 F 
ENDBRANCH  17  18
ENDBRANCH  13  17
ENDBRANCH   3   9
BRANCH   2  25
ATOM     25  N   UNL     1      -0.131  -2.160  -3.560  0.00  0.00    -0.316 N 
ATOM     26  C   UNL     1      -0.381  -0.854  -4.186  0.00  0.00    +0.106 C 
ATOM     27  C   UNL     1      -1.573  -0.984  -5.139  0.00  0.00    +0.019 C 
ATOM     28  C   UNL     1      -2.771  -1.555  -4.377  0.00  0.00    +0.003 C 
ATOM     29  C   UNL     1      -2.423  -2.947  -3.846  0.00  0.00    +0.019 C 
ATOM     30  C   UNL     1      -1.242  -2.843  -2.883  0.00  0.00    +0.106 C 
ENDBRANCH   2  25
BRANCH   5  31
ATOM     31  C   UNL     1       4.930  -4.466  -3.724  0.00  0.00    +0.105 C 
ATOM     32  N   UNL     1       5.968  -4.928  -3.738  0.00  0.00    -0.191 NA
ENDBRANCH   5  31
BRANCH   1  33
ATOM     33  C   UNL     1       1.562  -1.755  -1.424  0.00  0.00    +0.126 C 
BRANCH  33  34
ATOM     34  C   UNL     1       2.043  -0.314  -1.604  0.00  0.00    +0.021 C 
BRANCH  34  36
ATOM     35  C   UNL     1       2.096   1.963  -0.577  0.00  0.00    +0.004 C 
ATOM     36  C   UNL     1       1.614   0.522  -0.397  0.00  0.00    -0.002 C 
ENDBRANCH  34  36
ENDBRANCH  33  34
ENDBRANCH   1  33
TORSDOF 8
