REMARK  Name = ZINC40172231
REMARK  9 active torsions:
REMARK  status: ('A' for Active; 'I' for Inactive)
REMARK    1  A    between atoms: C_1  and  C_2
REMARK    2  A    between atoms: C_3  and  C_23
REMARK    3  A    between atoms: C_5  and  N_9
REMARK    4  A    between atoms: C_6  and  C_7
REMARK    5  A    between atoms: C_10  and  C_12
REMARK    6  A    between atoms: C_12  and  C_14
REMARK    7  A    between atoms: C_12  and  N_15
REMARK    8  A    between atoms: C_19  and  S_20
REMARK    9  A    between atoms: S_20  and  C_21
REMARK                            x       y       z     vdW  Elec       q    Type
REMARK                         _______ _______ _______ _____ _____    ______ ____
ROOT
ATOM      1  N   UNL     1       0.056  -3.353   1.393  0.00  0.00    -0.254 N 
ATOM      2  C   UNL     1       0.070  -4.543   0.762  0.00  0.00    +0.242 C 
ATOM      3  O   UNL     1       0.066  -4.588  -0.450  0.00  0.00    -0.273 OA
ATOM      4  H   UNL     1       0.060  -3.317   2.362  0.00  0.00    +0.158 HD
ENDROOT
BRANCH   1   9
ATOM      5  C   UNL     1      -0.018   1.503   0.010  0.00  0.00    +0.049 C 
ATOM      6  C   UNL     1       0.002  -0.004   0.002  0.00  0.00    +0.010 A 
ATOM      7  C   UNL     1       0.008  -0.804  -1.074  0.00  0.00    +0.109 A 
ATOM      8  O   UNL     1       0.028  -2.088  -0.680  0.00  0.00    -0.445 OA
ATOM      9  C   UNL     1       0.036  -2.180   0.657  0.00  0.00    +0.210 A 
ATOM     10  C   UNL     1       0.026  -0.894   1.173  0.00  0.00    +0.115 A 
ATOM     11  C   UNL     1      -0.006  -0.334  -2.506  0.00  0.00    +0.086 C 
BRANCH  10  12
ATOM     12  C   UNL     1       0.034  -0.513   2.554  0.00  0.00    +0.105 C 
ATOM     13  N   UNL     1       0.040  -0.211   3.648  0.00  0.00    -0.191 NA
ENDBRANCH  10  12
ENDBRANCH   1   9
BRANCH   2  14
ATOM     14  C   UNL     1       0.092  -5.820   1.563  0.00  0.00    +0.175 C 
ATOM     15  C   UNL     1       1.346  -5.851   2.439  0.00  0.00    +0.041 C 
BRANCH  14  16
ATOM     16  N   UNL     1       0.104  -6.968   0.652  0.00  0.00    -0.279 N 
ATOM     17  C   UNL     1       1.065  -7.243  -0.280  0.00  0.00    +0.216 A 
ATOM     18  N   UNL     1       0.727  -8.349  -0.895  0.00  0.00    -0.113 NA
ATOM     19  N   UNL     1      -0.481  -8.798  -0.347  0.00  0.00    -0.121 NA
ATOM     20  C   UNL     1      -0.839  -7.954   0.590  0.00  0.00    +0.193 A 
ATOM     21  N   UNL     1       2.200  -6.483  -0.531  0.00  0.00    -0.328 N 
ATOM     22  H   UNL     1       2.365  -5.674  -0.021  0.00  0.00    +0.145 HD
ATOM     23  H   UNL     1       2.827  -6.760  -1.217  0.00  0.00    +0.145 HD
BRANCH  20  24
ATOM     24  S   UNL     1      -2.285  -8.069   1.591  0.00  0.00    -0.089 S 
ATOM     25  C   UNL     1      -3.098  -9.585   1.015  0.00  0.00    +0.093 C 
ENDBRANCH  20  24
ENDBRANCH  14  16
ENDBRANCH   2  14
TORSDOF 5
