REMARK  Name = ZINC36142242
REMARK  4 active torsions:
REMARK  status: ('A' for Active; 'I' for Inactive)
REMARK    1  A    between atoms: C_1  and  C_2
REMARK    2  A    between atoms: C_2  and  C_17
REMARK    3  A    between atoms: C_4  and  C_13
REMARK    4  A    between atoms: C_4  and  N_16
REMARK                            x       y       z     vdW  Elec       q    Type
REMARK                         _______ _______ _______ _____ _____    ______ ____
ROOT
ATOM      1  C   UNL     1      -0.367   1.382  -0.463  0.00  0.00    +0.055 C 
ATOM      2  C   UNL     1      -0.263  -0.144  -0.495  0.00  0.00    +0.105 C 
ATOM      3  C   UNL     1       0.671  -0.575  -1.634  0.00  0.00    +0.050 C 
ATOM      4  C   UNL     1       2.013   0.137  -1.449  0.00  0.00    +0.065 C 
ATOM      5  C   UNL     1       2.474  -0.010  -0.021  0.00  0.00    -0.005 A 
ATOM      6  C   UNL     1       3.807   0.221   0.276  0.00  0.00    +0.026 A 
ATOM      7  C   UNL     1       4.263   0.099   1.575  0.00  0.00    +0.041 A 
ATOM      8  C   UNL     1       3.385  -0.255   2.585  0.00  0.00    +0.023 A 
ATOM      9  C   UNL     1       2.057  -0.488   2.294  0.00  0.00    +0.047 A 
ATOM     10  C   UNL     1       1.595  -0.368   0.987  0.00  0.00    +0.124 A 
ATOM     11  O   UNL     1       0.283  -0.615   0.738  0.00  0.00    -0.486 OA
ATOM     12 CL   UNL     1       5.935   0.390   1.939  0.00  0.00    -0.084 Cl
ATOM     13  C   UNL     1      -1.651  -0.751  -0.709  0.00  0.00    +0.055 C 
ENDROOT
BRANCH   4  14
ATOM     14  N   UNL     1       3.010  -0.460  -2.348  0.00  0.00    +0.392 N 
ATOM     15  H   UNL     1       2.704  -0.359  -3.304  0.00  0.00    -0.088 HD
ATOM     16  H   UNL     1       3.896   0.009  -2.227  0.00  0.00    -0.088 HD
ATOM     17  H   UNL     1       3.116  -1.439  -2.131  0.00  0.00    -0.088 HD
ENDBRANCH   4  14
BRANCH   4  18
ATOM     18  C   UNL     1       1.855   1.599  -1.777  0.00  0.00    +0.349 C 
ATOM     19  O   UNL     1       2.151   2.445  -0.950  0.00  0.00    -0.248 OA
ATOM     20  O   UNL     1       1.431   1.937  -2.869  0.00  0.00    -0.248 OA
ENDBRANCH   4  18
TORSDOF 2
