REMARK  Name = ZINC39676098
REMARK  6 active torsions:
REMARK  status: ('A' for Active; 'I' for Inactive)
REMARK    1  A    between atoms: C_4  and  C_7
REMARK    2  A    between atoms: C_7  and  N_8
REMARK    3  A    between atoms: C_10  and  C_13
REMARK    4  A    between atoms: C_13  and  N_14
REMARK    5  A    between atoms: C_15  and  C_17
REMARK    6  A    between atoms: C_28  and  C_30
REMARK                            x       y       z     vdW  Elec       q    Type
REMARK                         _______ _______ _______ _____ _____    ______ ____
ROOT
ATOM      1  C   UNL     1       8.824  -4.257   4.774  0.00  0.00    +0.100 C 
ATOM      2  C   UNL     1       9.229  -4.868   3.414  0.00  0.00    +0.121 C 
ATOM      3  N   UNL     1      10.347  -5.786   3.733  0.00  0.00    -0.297 N 
ATOM      4  C   UNL     1       9.951  -6.418   5.015  0.00  0.00    +0.115 C 
ATOM      5  C   UNL     1       9.299  -5.277   5.822  0.00  0.00    -0.004 C 
ATOM      6  C   UNL     1      10.324  -4.638   6.755  0.00  0.00    -0.010 C 
ATOM      7  C   UNL     1      10.739  -5.655   7.822  0.00  0.00    -0.082 C 
ATOM      8  N   UNL     1       9.557  -6.081   8.580  0.00  0.00    +0.379 N 
ATOM      9  C   UNL     1       8.617  -6.777   7.693  0.00  0.00    -0.082 C 
ATOM     10  C   UNL     1       8.112  -5.808   6.620  0.00  0.00    -0.010 C 
ATOM     11  C   UNL     1      11.470  -5.999   3.020  0.00  0.00    +0.260 C 
ATOM     12  O   UNL     1      12.300  -6.790   3.417  0.00  0.00    -0.271 OA
ATOM     13  H   UNL     1       9.841  -6.704   9.322  0.00  0.00    -0.086 HD
ATOM     14  H   UNL     1       9.105  -5.272   8.979  0.00  0.00    -0.086 HD
ENDROOT
BRANCH  11  15
ATOM     15  C   UNL     1      11.696  -5.254   1.730  0.00  0.00    +0.296 C 
ATOM     16  C   UNL     1      10.648  -5.683   0.694  0.00  0.00    +0.283 C 
ATOM     17  O   UNL     1      10.899  -4.968  -0.521  0.00  0.00    -0.484 OA
ATOM     18  C   UNL     1      12.191  -4.924  -0.948  0.00  0.00    +0.162 A 
ATOM     19  C   UNL     1      12.461  -4.579  -2.264  0.00  0.00    +0.049 A 
ATOM     20  C   UNL     1      13.768  -4.526  -2.711  0.00  0.00    +0.004 A 
ATOM     21  C   UNL     1      14.809  -4.817  -1.849  0.00  0.00    +0.004 A 
ATOM     22  C   UNL     1      14.546  -5.163  -0.537  0.00  0.00    +0.049 A 
ATOM     23  C   UNL     1      13.237  -5.219  -0.081  0.00  0.00    +0.163 A 
ATOM     24  O   UNL     1      12.994  -5.568   1.212  0.00  0.00    -0.473 OA
ENDBRANCH  11  15
BRANCH   1  26
ATOM     25  N   UNL     1       6.800  -3.108   5.611  0.00  0.00    -0.311 N 
ATOM     26  C   UNL     1       7.329  -4.086   4.849  0.00  0.00    +0.218 C 
ATOM     27  O   UNL     1       6.602  -4.827   4.223  0.00  0.00    -0.275 OA
ATOM     28  H   UNL     1       7.381  -2.515   6.112  0.00  0.00    +0.149 HD
BRANCH  25  29
ATOM     29  C   UNL     1       5.346  -2.942   5.684  0.00  0.00    +0.142 C 
BRANCH  29  32
ATOM     30  N   UNL     1       4.585   0.221   7.331  0.00  0.00    -0.267 N 
ATOM     31  C   UNL     1       4.879  -0.494   6.225  0.00  0.00    +0.113 A 
ATOM     32  C   UNL     1       5.017  -1.788   6.596  0.00  0.00    +0.007 A 
ATOM     33  C   UNL     1       4.800  -1.866   7.975  0.00  0.00    +0.139 A 
ATOM     34  N   UNL     1       4.547  -0.661   8.418  0.00  0.00    -0.179 NA
BRANCH  30  35
ATOM     35  C   UNL     1       4.353   1.667   7.385  0.00  0.00    +0.178 C 
BRANCH  35  39
ATOM     36  C   UNL     1       0.563   2.435   9.199  0.00  0.00    +0.000 A 
ATOM     37  C   UNL     1       1.699   2.353   9.981  0.00  0.00    +0.000 A 
ATOM     38  C   UNL     1       2.926   2.104   9.394  0.00  0.00    +0.005 A 
ATOM     39  C   UNL     1       3.016   1.937   8.025  0.00  0.00    -0.026 A 
ATOM     40  C   UNL     1       1.879   2.018   7.243  0.00  0.00    +0.005 A 
ATOM     41  C   UNL     1       0.652   2.268   7.830  0.00  0.00    +0.000 A 
ENDBRANCH  35  39
ENDBRANCH  30  35
ENDBRANCH  29  32
ENDBRANCH  25  29
ENDBRANCH   1  26
TORSDOF 6
