REMARK  Name = ZINC49812445
REMARK  3 active torsions:
REMARK  status: ('A' for Active; 'I' for Inactive)
REMARK    1  A    between atoms: C_1  and  C_2
REMARK    2  A    between atoms: C_7  and  C_17
REMARK    3  A    between atoms: C_14  and  C_16
REMARK                            x       y       z     vdW  Elec       q    Type
REMARK                         _______ _______ _______ _____ _____    ______ ____
ROOT
ATOM      1  C   UNL     1      -0.019   1.526   0.010  0.00  0.00    +0.008 C 
ATOM      2  C   UNL     1       0.002  -0.004   0.002  0.00  0.00    -0.007 C 
ATOM      3  C   UNL     1       0.729  -0.503  -1.245  0.00  0.00    +0.040 C 
ATOM      4  C   UNL     1       0.968  -1.988  -1.165  0.00  0.00    -0.026 A 
ATOM      5  C   UNL     1       1.262  -2.655  -2.363  0.00  0.00    +0.029 A 
ATOM      6  C   UNL     1       1.496  -4.025  -2.349  0.00  0.00    +0.116 A 
ATOM      7  C   UNL     1       1.433  -4.709  -1.107  0.00  0.00    +0.266 A 
ATOM      8  O   UNL     1       1.637  -5.910  -1.056  0.00  0.00    -0.267 OA
ATOM      9  N   UNL     1       1.147  -4.024   0.012  0.00  0.00    -0.325 N 
ATOM     10  H   UNL     1       1.110  -4.498   0.857  0.00  0.00    +0.169 HD
ATOM     11  C   UNL     1       0.908  -2.681  -0.005  0.00  0.00    +0.023 A 
ATOM     12  C   UNL     1       0.570  -2.031   1.313  0.00  0.00    +0.057 C 
ATOM     13  C   UNL     1       0.756  -0.518   1.235  0.00  0.00    -0.005 C 
ATOM     14  C   UNL     1       2.244  -0.189   1.104  0.00  0.00    +0.008 C 
ENDROOT
BRANCH   6  15
ATOM     15  C   UNL     1       1.794  -4.729  -3.559  0.00  0.00    +0.105 C 
ATOM     16  N   UNL     1       2.031  -5.288  -4.520  0.00  0.00    -0.191 NA
ENDBRANCH   6  15
TORSDOF 1
