REMARK  Name = ZINC39662703
REMARK  5 active torsions:
REMARK  status: ('A' for Active; 'I' for Inactive)
REMARK    1  A    between atoms: C_2  and  C_9
REMARK    2  A    between atoms: C_13  and  C_22
REMARK    3  A    between atoms: N_24  and  C_25
REMARK    4  A    between atoms: C_25  and  C_26
REMARK    5  A    between atoms: C_29  and  C_32
REMARK                            x       y       z     vdW  Elec       q    Type
REMARK                         _______ _______ _______ _____ _____    ______ ____
ROOT
ATOM      1  C   UNL     1       1.167   3.575   0.007  0.00  0.00    +0.247 C 
ATOM      2  O   UNL     1       0.115   4.175  -0.090  0.00  0.00    -0.270 OA
ATOM      3  N   UNL     1       2.326   4.256   0.102  0.00  0.00    -0.296 N 
ATOM      4  C   UNL     1       3.704   3.711   0.099  0.00  0.00    +0.121 C 
ATOM      5  C   UNL     1       4.521   4.719  -0.740  0.00  0.00    +0.100 C 
ATOM      6  C   UNL     1       3.733   6.037  -0.645  0.00  0.00    -0.004 C 
ATOM      7  C   UNL     1       2.510   5.722   0.228  0.00  0.00    +0.115 C 
ATOM      8  C   UNL     1       3.282   6.484  -2.033  0.00  0.00    -0.010 C 
ATOM      9  C   UNL     1       2.551   7.824  -1.920  0.00  0.00    -0.082 C 
ATOM     10  N   UNL     1       3.448   8.825  -1.329  0.00  0.00    +0.379 N 
ATOM     11  C   UNL     1       3.803   8.433   0.040  0.00  0.00    -0.082 C 
ATOM     12  C   UNL     1       4.587   7.118   0.010  0.00  0.00    -0.010 C 
ATOM     13  H   UNL     1       4.287   8.893  -1.886  0.00  0.00    -0.086 HD
ATOM     14  H   UNL     1       2.986   9.721  -1.312  0.00  0.00    -0.086 HD
ENDROOT
BRANCH   1  16
ATOM     15  C   UNL     1       0.131   1.384  -0.568  0.00  0.00    +0.051 A 
ATOM     16  C   UNL     1       1.176   2.096   0.021  0.00  0.00    +0.042 A 
ATOM     17  C   UNL     1       2.231   1.408   0.622  0.00  0.00    +0.051 A 
ATOM     18  C   UNL     1       2.234   0.026   0.631  0.00  0.00    +0.127 A 
ATOM     19  C   UNL     1       1.194  -0.676   0.044  0.00  0.00    +0.076 A 
ATOM     20  C   UNL     1       0.144   0.002  -0.553  0.00  0.00    +0.127 A 
ATOM     21  F   UNL     1      -0.868  -0.689  -1.123  0.00  0.00    -0.205 F 
ATOM     22  F   UNL     1       3.255  -0.642   1.213  0.00  0.00    -0.205 F 
ENDBRANCH   1  16
BRANCH   5  23
ATOM     23  C   UNL     1       4.610   4.260  -2.172  0.00  0.00    +0.218 C 
ATOM     24  O   UNL     1       3.675   3.679  -2.682  0.00  0.00    -0.275 OA
ATOM     25  N   UNL     1       5.728   4.495  -2.887  0.00  0.00    -0.315 N 
ATOM     26  H   UNL     1       6.476   4.959  -2.479  0.00  0.00    +0.149 HD
BRANCH  25  27
ATOM     27  C   UNL     1       5.815   4.048  -4.279  0.00  0.00    +0.107 C 
BRANCH  27  28
ATOM     28  C   UNL     1       7.178   4.437  -4.856  0.00  0.00    +0.006 C 
ATOM     29  C   UNL     1       7.292   5.961  -4.912  0.00  0.00    +0.006 C 
ATOM     30  C   UNL     1       8.655   6.350  -5.488  0.00  0.00    +0.015 C 
ATOM     31  C   UNL     1       8.794   5.776  -6.899  0.00  0.00    +0.102 C 
ATOM     32  C   UNL     1       8.680   4.251  -6.843  0.00  0.00    +0.015 C 
ATOM     33  C   UNL     1       7.317   3.863  -6.267  0.00  0.00    +0.006 C 
BRANCH  31  34
ATOM     34  C   UNL     1      10.137   6.158  -7.467  0.00  0.00    +0.359 C 
ATOM     35  O   UNL     1      10.691   5.426  -8.269  0.00  0.00    -0.246 OA
ATOM     36  O   UNL     1      10.669   7.200  -7.124  0.00  0.00    -0.246 OA
ENDBRANCH  31  34
ENDBRANCH  27  28
ENDBRANCH  25  27
ENDBRANCH   5  23
TORSDOF 5
