REMARK  Name = ZINC02478985
REMARK  7 active torsions:
REMARK  status: ('A' for Active; 'I' for Inactive)
REMARK    1  A    between atoms: C_1  and  C_2
REMARK    2  A    between atoms: C_2  and  C_17
REMARK    3  A    between atoms: C_4  and  C_15
REMARK    4  A    between atoms: C_4  and  C_16
REMARK    5  A    between atoms: N_7  and  C_8
REMARK    6  A    between atoms: C_20  and  O_24
REMARK    7  A    between atoms: C_22  and  O_23
REMARK                            x       y       z     vdW  Elec       q    Type
REMARK                         _______ _______ _______ _____ _____    ______ ____
ROOT
ATOM      1  C   UNL     1      -0.032   1.605  -0.207  0.00  0.00    +0.037 C 
ATOM      2  C   UNL     1      -0.009   0.080  -0.092  0.00  0.00    +0.069 C 
ATOM      3  C   UNL     1       0.595  -0.572  -1.332  0.00  0.00    +0.058 C 
ATOM      4  C   UNL     1       2.109  -0.433  -1.416  0.00  0.00    +0.037 C 
ATOM      5  N   UNL     1       2.745  -0.606  -0.116  0.00  0.00    -0.362 N 
ATOM      6  C   UNL     1       2.064  -0.587   1.056  0.00  0.00    +0.147 C 
ATOM      7  N   UNL     1       0.726  -0.323   1.111  0.00  0.00    -0.271 N 
ATOM      8  S   UNL     1       2.884  -0.896   2.469  0.00  0.00    -0.016 SA
ATOM      9  C   UNL     1       2.512   0.909  -2.023  0.00  0.00    +0.034 C 
ATOM     10  C   UNL     1       2.637  -1.545  -2.344  0.00  0.00    +0.034 C 
ATOM     11  H   UNL     1       3.708  -0.740  -0.089  0.00  0.00    +0.162 HD
ENDROOT
BRANCH   7  12
ATOM     12  C   UNL     1       0.049  -0.439   2.330  0.00  0.00    +0.036 A 
ATOM     13  C   UNL     1      -0.053  -1.675   2.954  0.00  0.00    +0.023 A 
ATOM     14  C   UNL     1      -0.722  -1.787   4.158  0.00  0.00    +0.002 A 
ATOM     15  C   UNL     1      -1.290  -0.669   4.741  0.00  0.00    +0.000 A 
ATOM     16  C   UNL     1      -1.190   0.564   4.122  0.00  0.00    +0.002 A 
ATOM     17  C   UNL     1      -0.518   0.683   2.921  0.00  0.00    +0.023 A 
ENDBRANCH   7  12
BRANCH   2  18
ATOM     18  C   UNL     1      -1.431  -0.395   0.049  0.00  0.00    +0.018 A 
ATOM     19  C   UNL     1      -2.463   0.522   0.115  0.00  0.00    +0.013 A 
ATOM     20  C   UNL     1      -3.768   0.090   0.245  0.00  0.00    +0.046 A 
ATOM     21  C   UNL     1      -4.047  -1.268   0.309  0.00  0.00    +0.120 A 
ATOM     22  C   UNL     1      -3.015  -2.191   0.243  0.00  0.00    +0.091 A 
ATOM     23  C   UNL     1      -1.706  -1.754   0.107  0.00  0.00    +0.126 A 
BRANCH  23  24
ATOM     24  O   UNL     1      -0.692  -2.656   0.036  0.00  0.00    -0.506 OA
ATOM     25  H   UNL     1      -0.318  -2.896   0.895  0.00  0.00    +0.292 HD
ENDBRANCH  23  24
BRANCH  21  26
ATOM     26  O   UNL     1      -5.332  -1.694   0.437  0.00  0.00    -0.507 OA
ATOM     27  H   UNL     1      -5.783  -1.842  -0.405  0.00  0.00    +0.292 HD
ENDBRANCH  21  26
ENDBRANCH   2  18
TORSDOF 4
