REMARK  Name = ZINC38671511
REMARK  8 active torsions:
REMARK  status: ('A' for Active; 'I' for Inactive)
REMARK    1  A    between atoms: C_1  and  C_2
REMARK    2  A    between atoms: C_5  and  N_8
REMARK    3  A    between atoms: C_10  and  C_15
REMARK    4  A    between atoms: N_17  and  C_18
REMARK    5  A    between atoms: C_18  and  C_19
REMARK    6  A    between atoms: C_19  and  C_21
REMARK    7  A    between atoms: C_19  and  N_31
REMARK    8  A    between atoms: N_29  and  C_30
REMARK                            x       y       z     vdW  Elec       q    Type
REMARK                         _______ _______ _______ _____ _____    ______ ____
ROOT
ATOM      1  C   UNL     1       0.743  -9.703   1.856  0.00  0.00    +0.093 C 
ENDROOT
BRANCH   1   4
ATOM      2  C   UNL     1       0.697  -8.412   3.922  0.00  0.00    +0.218 C 
ATOM      3  O   UNL     1       1.150  -7.469   3.309  0.00  0.00    -0.275 OA
ATOM      4  N   UNL     1       0.456  -9.576   3.287  0.00  0.00    -0.316 N 
ATOM      5  H   UNL     1       0.093 -10.330   3.778  0.00  0.00    +0.149 HD
BRANCH   2   8
ATOM      6  N   UNL     1      -0.274  -6.544   6.902  0.00  0.00    -0.271 N 
ATOM      7  C   UNL     1       0.753  -6.867   5.905  0.00  0.00    +0.127 C 
ATOM      8  C   UNL     1       0.402  -8.281   5.394  0.00  0.00    +0.101 C 
ATOM      9  C   UNL     1      -1.120  -8.344   5.662  0.00  0.00    +0.110 C 
ATOM     10  C   UNL     1      -1.338  -7.358   6.789  0.00  0.00    +0.221 C 
ATOM     11  O   UNL     1      -2.329  -7.308   7.486  0.00  0.00    -0.275 OA
BRANCH   6  16
ATOM     12  C   UNL     1       0.192  -2.407  10.757  0.00  0.00    +0.044 C 
ATOM     13  C   UNL     1       0.068  -3.506   9.733  0.00  0.00    -0.050 A 
ATOM     14  C   UNL     1      -1.114  -4.214   9.620  0.00  0.00    +0.005 A 
ATOM     15  C   UNL     1      -1.231  -5.222   8.683  0.00  0.00    +0.024 A 
ATOM     16  C   UNL     1      -0.159  -5.523   7.853  0.00  0.00    +0.036 A 
ATOM     17  C   UNL     1       1.027  -4.810   7.968  0.00  0.00    +0.024 A 
ATOM     18  C   UNL     1       1.135  -3.800   8.904  0.00  0.00    +0.005 A 
ENDBRANCH   6  16
ENDBRANCH   2   8
ENDBRANCH   1   4
BRANCH   1  19
ATOM     19  C   UNL     1       0.272 -11.072   1.361  0.00  0.00    -0.020 C 
BRANCH  19  20
ATOM     20  C   UNL     1       1.061 -12.154   2.052  0.00  0.00    -0.059 A 
ATOM     21  C   UNL     1       2.336 -12.469   1.617  0.00  0.00    +0.004 A 
ATOM     22  C   UNL     1       3.059 -13.458   2.246  0.00  0.00    +0.023 A 
ATOM     23  C   UNL     1       2.512 -14.151   3.328  0.00  0.00    +0.033 A 
ATOM     24  C   UNL     1       1.234 -13.829   3.757  0.00  0.00    -0.025 A 
ATOM     25  C   UNL     1       0.514 -12.832   3.126  0.00  0.00    +0.007 A 
ATOM     26  C   UNL     1       0.882 -14.715   4.930  0.00  0.00    +0.056 C 
ATOM     27  C   UNL     1       2.123 -15.600   5.132  0.00  0.00    +0.109 C 
ATOM     28  N   UNL     1       3.069 -15.175   4.096  0.00  0.00    -0.332 N 
ATOM     29  C   UNL     1       4.405 -15.742   3.896  0.00  0.00    +0.129 C 
ENDBRANCH  19  20
BRANCH  19  30
ATOM     30  N   UNL     1       0.480 -11.165  -0.090  0.00  0.00    +0.385 N 
ATOM     31  C   UNL     1      -0.350 -10.161  -0.767  0.00  0.00    -0.078 C 
ATOM     32  C   UNL     1      -0.077 -10.200  -2.272  0.00  0.00    -0.019 C 
ATOM     33  C   UNL     1      -0.417 -11.592  -2.812  0.00  0.00    -0.004 C 
ATOM     34  C   UNL     1       0.400 -12.638  -2.047  0.00  0.00    -0.019 C 
ATOM     35  C   UNL     1       0.110 -12.509  -0.550  0.00  0.00    -0.078 C 
ATOM     36  H   UNL     1       1.451 -10.994  -0.302  0.00  0.00    -0.081 HD
ENDBRANCH  19  30
ENDBRANCH   1  19
TORSDOF 6
