REMARK  Name = ZINC61992631
REMARK  8 active torsions:
REMARK  status: ('A' for Active; 'I' for Inactive)
REMARK    1  A    between atoms: C_1  and  N_2
REMARK    2  A    between atoms: N_2  and  C_3
REMARK    3  A    between atoms: N_2  and  C_18
REMARK    4  A    between atoms: C_3  and  C_4
REMARK    5  A    between atoms: C_4  and  N_5
REMARK    6  A    between atoms: N_5  and  S_6
REMARK    7  A    between atoms: S_6  and  C_9
REMARK    8  A    between atoms: C_13  and  N_16
REMARK                            x       y       z     vdW  Elec       q    Type
REMARK                         _______ _______ _______ _____ _____    ______ ____
ROOT
ATOM      1  S   UNL     1      -0.270  -0.711  -5.068  0.00  0.00    +0.060 S 
ATOM      2  O   UNL     1       0.524  -1.317  -6.079  0.00  0.00    -0.153 OA
ATOM      3  O   UNL     1      -1.489  -1.282  -4.612  0.00  0.00    -0.153 OA
ENDROOT
BRANCH   1   4
ATOM      4  C   UNL     1      -0.654   0.912  -5.633  0.00  0.00    +0.122 A 
ATOM      5  C   UNL     1      -1.962   1.361  -5.608  0.00  0.00    +0.049 A 
ATOM      6  C   UNL     1      -2.268   2.636  -6.051  0.00  0.00    +0.045 A 
ATOM      7  C   UNL     1      -1.267   3.465  -6.521  0.00  0.00    +0.044 A 
ATOM      8  C   UNL     1       0.047   3.017  -6.548  0.00  0.00    +0.042 A 
ATOM      9  C   UNL     1       0.352   1.738  -6.097  0.00  0.00    +0.065 A 
ATOM     10 BR   UNL     1       2.141   1.126  -6.124  0.00  0.00    -0.046 Br
ATOM     11 CL   UNL     1      -3.912   3.194  -6.017  0.00  0.00    -0.083 Cl
BRANCH   8  12
ATOM     12  N   UNL     1       1.062   3.852  -7.022  0.00  0.00    -0.357 N 
ATOM     13  H   UNL     1       0.849   4.746  -7.334  0.00  0.00    +0.142 HD
ATOM     14  H   UNL     1       1.980   3.538  -7.041  0.00  0.00    +0.142 HD
ENDBRANCH   8  12
ENDBRANCH   1   4
BRANCH   1  15
ATOM     15  N   UNL     1       0.703  -0.549  -3.737  0.00  0.00    -0.192 NA
ATOM     16  H   UNL     1       1.618  -0.870  -3.763  0.00  0.00    +0.148 HD
BRANCH  15  17
ATOM     17  C   UNL     1       0.182   0.081  -2.521  0.00  0.00    +0.087 C 
BRANCH  17  18
ATOM     18  C   UNL     1       1.111  -0.232  -1.347  0.00  0.00    -0.062 C 
BRANCH  18  20
ATOM     19  C   UNL     1       0.629   1.860  -0.276  0.00  0.00    -0.096 C 
ATOM     20  N   UNL     1       0.589   0.399  -0.128  0.00  0.00    +0.381 N 
ATOM     21  H   UNL     1      -0.364   0.102   0.023  0.00  0.00    -0.082 HD
BRANCH  20  22
ATOM     22  C   UNL     1       1.413   0.001   1.022  0.00  0.00    -0.069 C 
ATOM     23  C   UNL     1       0.773  -0.915   2.067  0.00  0.00    -0.017 C 
ATOM     24  C   UNL     1       1.028   0.558   2.394  0.00  0.00    -0.017 C 
ENDBRANCH  20  22
ENDBRANCH  18  20
ENDBRANCH  17  18
ENDBRANCH  15  17
ENDBRANCH   1  15
TORSDOF 7
