REMARK  Name = ZINC20750173
REMARK  6 active torsions:
REMARK  status: ('A' for Active; 'I' for Inactive)
REMARK    1  A    between atoms: C_1  and  C_2
REMARK    2  A    between atoms: C_2  and  C_3
REMARK    3  A    between atoms: C_2  and  C_4
REMARK    4  A    between atoms: C_2  and  N_5
REMARK    5  A    between atoms: C_6  and  C_8
REMARK    6  A    between atoms: C_15  and  C_24
REMARK                            x       y       z     vdW  Elec       q    Type
REMARK                         _______ _______ _______ _____ _____    ______ ____
ROOT
ATOM      1  C   UNL     1       2.646   1.623   0.077  0.00  0.00    +0.058 A 
ATOM      2  C   UNL     1       2.776   0.236   0.117  0.00  0.00    +0.015 A 
ATOM      3  C   UNL     1       1.654  -0.562   0.136  0.00  0.00    +0.001 A 
ATOM      4  C   UNL     1       0.395   0.017   0.123  0.00  0.00    +0.006 A 
ATOM      5  C   UNL     1       0.248   1.386   0.091  0.00  0.00    -0.019 A 
ATOM      6  C   UNL     1       1.369   2.221   0.055  0.00  0.00    +0.044 A 
ATOM      7  N   UNL     1       1.309   3.602  -0.023  0.00  0.00    -0.336 N 
ATOM      8  C   UNL     1      -0.026   4.216   0.055  0.00  0.00    +0.108 C 
ATOM      9  C   UNL     1      -0.970   3.332  -0.733  0.00  0.00    +0.029 C 
ATOM     10  C   UNL     1      -1.085   2.026   0.115  0.00  0.00    +0.049 C 
ATOM     11  C   UNL     1      -2.297   1.373  -0.439  0.00  0.00    -0.023 C 
ATOM     12  C   UNL     1      -3.105   2.315  -0.913  0.00  0.00    -0.030 C 
ATOM     13  C   UNL     1      -2.459   3.692  -0.740  0.00  0.00    +0.033 C 
ATOM     14  H   UNL     1       2.201   4.237  -0.138  0.00  0.00    +0.147 HD
ENDROOT
BRANCH   8  15
ATOM     15  C   UNL     1      -0.473   4.293   1.492  0.00  0.00    +0.010 A 
ATOM     16  C   UNL     1      -1.592   5.032   1.830  0.00  0.00    +0.047 A 
ATOM     17  C   UNL     1      -2.006   5.098   3.149  0.00  0.00    +0.020 A 
ATOM     18  C   UNL     1      -1.294   4.434   4.130  0.00  0.00    +0.003 A 
ATOM     19  C   UNL     1      -0.172   3.699   3.794  0.00  0.00    +0.020 A 
ATOM     20  C   UNL     1       0.239   3.628   2.474  0.00  0.00    +0.047 A 
ATOM     21 CL   UNL     1       1.647   2.705   2.052  0.00  0.00    -0.083 Cl
ATOM     22 CL   UNL     1      -2.482   5.873   0.598  0.00  0.00    -0.083 Cl
ENDBRANCH   8  15
BRANCH   1  24
ATOM     23  N   UNL     1       5.075   1.904   0.077  0.00  0.00    -0.307 N 
ATOM     24  C   UNL     1       3.852   2.471   0.056  0.00  0.00    +0.246 C 
ATOM     25  O   UNL     1       3.744   3.682   0.021  0.00  0.00    -0.270 OA
ATOM     26  H   UNL     1       5.173   0.809   0.108  0.00  0.00    +0.150 HD
BRANCH  23  28
ATOM     27  C   UNL     1       6.271   3.666   1.280  0.00  0.00    +0.031 C 
ATOM     28  C   UNL     1       6.273   2.747   0.056  0.00  0.00    +0.026 C 
ATOM     29  C   UNL     1       7.520   1.861   0.086  0.00  0.00    +0.031 C 
ATOM     30  C   UNL     1       6.280   3.594  -1.218  0.00  0.00    +0.031 C 
ENDBRANCH  23  28
ENDBRANCH   1  24
TORSDOF 3
