REMARK  Name = ZINC08301920
REMARK  7 active torsions:
REMARK  status: ('A' for Active; 'I' for Inactive)
REMARK    1  A    between atoms: C_1  and  C_2
REMARK    2  A    between atoms: C_5  and  O_9
REMARK    3  A    between atoms: C_6  and  C_8
REMARK    4  A    between atoms: O_9  and  C_10
REMARK    5  A    between atoms: C_12  and  O_32
REMARK    6  A    between atoms: C_14  and  O_31
REMARK    7  A    between atoms: C_23  and  C_26
REMARK                            x       y       z     vdW  Elec       q    Type
REMARK                         _______ _______ _______ _____ _____    ______ ____
ROOT
ATOM      1  C   UNL     1      -1.844   3.123   5.802  0.00  0.00    +0.339 C 
ATOM      2  C   UNL     1      -2.706   3.732   6.909  0.00  0.00    +0.214 C 
ATOM      3  C   UNL     1      -3.794   2.739   7.327  0.00  0.00    +0.180 C 
ATOM      4  C   UNL     1      -3.119   1.435   7.752  0.00  0.00    +0.184 C 
ATOM      5  C   UNL     1      -2.285   0.908   6.577  0.00  0.00    +0.179 C 
ATOM      6  O   UNL     1      -1.294   1.877   6.243  0.00  0.00    -0.331 OA
ATOM      7  C   UNL     1      -1.646  -0.417   6.993  0.00  0.00    +0.197 C 
ATOM      8  O   UNL     1      -2.687  -1.307   7.414  0.00  0.00    -0.342 OA
ATOM      9  C   UNL     1      -3.496  -0.806   8.479  0.00  0.00    +0.319 C 
ATOM     10  O   UNL     1      -4.085   0.445   8.104  0.00  0.00    -0.336 OA
ENDROOT
BRANCH   9  11
ATOM     11  C   UNL     1      -4.589  -1.797   8.787  0.00  0.00    +0.161 A 
ATOM     12  C   UNL     1      -4.407  -3.070   9.183  0.00  0.00    +0.050 A 
ATOM     13  C   UNL     1      -5.693  -3.632   9.357  0.00  0.00    +0.041 A 
ATOM     14  C   UNL     1      -6.583  -2.669   9.056  0.00  0.00    +0.195 A 
ATOM     15  O   UNL     1      -5.909  -1.558   8.717  0.00  0.00    -0.463 OA
ENDBRANCH   9  11
BRANCH   3  16
ATOM     16  O   UNL     1      -4.539   3.273   8.422  0.00  0.00    -0.386 OA
ATOM     17  H   UNL     1      -4.994   4.103   8.221  0.00  0.00    +0.210 HD
ENDBRANCH   3  16
BRANCH   2  18
ATOM     18  O   UNL     1      -3.320   4.930   6.429  0.00  0.00    -0.383 OA
ATOM     19  H   UNL     1      -2.691   5.609   6.150  0.00  0.00    +0.210 HD
ENDBRANCH   2  18
BRANCH   1  20
ATOM     20  O   UNL     1      -2.649   2.902   4.642  0.00  0.00    -0.461 OA
BRANCH  20  25
ATOM     21  C   UNL     1      -0.013   1.086   0.008  0.00  0.00    +0.044 C 
ATOM     22  C   UNL     1      -0.718   1.572   1.248  0.00  0.00    -0.050 A 
ATOM     23  C   UNL     1       0.002   1.805   2.405  0.00  0.00    +0.007 A 
ATOM     24  C   UNL     1      -0.642   2.250   3.543  0.00  0.00    +0.046 A 
ATOM     25  C   UNL     1      -2.013   2.463   3.524  0.00  0.00    +0.127 A 
ATOM     26  C   UNL     1      -2.733   2.229   2.362  0.00  0.00    -0.008 A 
ATOM     27  C   UNL     1      -2.083   1.789   1.225  0.00  0.00    +0.010 A 
ATOM     28  C   UNL     1      -4.222   2.459   2.338  0.00  0.00    +0.047 C 
ENDBRANCH  20  25
ENDBRANCH   1  20
TORSDOF 5
