REMARK  Name = ZINC51056077
REMARK  11 active torsions:
REMARK  status: ('A' for Active; 'I' for Inactive)
REMARK    1  A    between atoms: C_1  and  C_2
REMARK    2  A    between atoms: C_2  and  C_3
REMARK    3  A    between atoms: C_3  and  C_4
REMARK    4  A    between atoms: C_4  and  C_6
REMARK    5  A    between atoms: C_4  and  N_7
REMARK    6  A    between atoms: C_8  and  C_10
REMARK    7  A    between atoms: N_15  and  C_17
REMARK    8  A    between atoms: C_17  and  C_19
REMARK    9  A    between atoms: C_17  and  C_20
REMARK   10  A    between atoms: N_22  and  C_23
REMARK   11  A    between atoms: C_28  and  N_29
REMARK                            x       y       z     vdW  Elec       q    Type
REMARK                         _______ _______ _______ _____ _____    ______ ____
ROOT
ATOM      1  C   UNL     1       1.659  -5.108   0.629  0.00  0.00    +0.058 C 
ATOM      2  C   UNL     1       2.776  -4.125   0.991  0.00  0.00    +0.009 C 
ATOM      3  C   UNL     1       2.861  -4.005   2.516  0.00  0.00    -0.018 C 
ATOM      4  C   UNL     1       3.090  -5.392   3.120  0.00  0.00    -0.078 C 
ATOM      5  N   UNL     1       1.976  -6.277   2.759  0.00  0.00    +0.388 N 
ATOM      6  C   UNL     1       1.932  -6.455   1.303  0.00  0.00    -0.065 C 
ATOM      7  H   UNL     1       1.109  -5.868   3.073  0.00  0.00    -0.081 HD
ENDROOT
BRANCH   1   9
ATOM      8  N   UNL     1       1.391  -4.235  -1.670  0.00  0.00    -0.313 N 
ATOM      9  C   UNL     1       1.617  -5.293  -0.866  0.00  0.00    +0.215 C 
ATOM     10  O   UNL     1       1.787  -6.394  -1.346  0.00  0.00    -0.276 OA
ATOM     11  H   UNL     1       1.255  -3.355  -1.286  0.00  0.00    +0.149 HD
BRANCH   8  12
ATOM     12  C   UNL     1       1.350  -4.415  -3.124  0.00  0.00    +0.070 C 
ATOM     13  C   UNL     1      -0.055  -4.850  -3.545  0.00  0.00    +0.028 C 
BRANCH  12  14
ATOM     14  C   UNL     1       1.704  -3.095  -3.811  0.00  0.00    +0.022 C 
BRANCH  14  16
ATOM     15  C   UNL     1       3.506  -1.403  -4.177  0.00  0.00    +0.004 C 
ATOM     16  C   UNL     1       3.153  -2.724  -3.489  0.00  0.00    -0.002 C 
ENDBRANCH  14  16
ENDBRANCH  12  14
ENDBRANCH   8  12
ENDBRANCH   1   9
BRANCH   5  17
ATOM     17  C   UNL     1       2.162  -7.583   3.405  0.00  0.00    +0.016 C 
ATOM     18  C   UNL     1       2.263  -7.393   4.920  0.00  0.00    -0.004 C 
BRANCH  17  19
ATOM     19  C   UNL     1       0.987  -8.472   3.087  0.00  0.00    +0.203 C 
ATOM     20  O   UNL     1      -0.102  -7.983   2.873  0.00  0.00    -0.277 OA
ATOM     21  N   UNL     1       1.146  -9.809   3.042  0.00  0.00    -0.285 N 
ATOM     22  H   UNL     1       1.999 -10.204   3.282  0.00  0.00    +0.155 HD
BRANCH  21  23
ATOM     23  C   UNL     1       0.082 -10.628   2.648  0.00  0.00    +0.064 A 
ATOM     24  C   UNL     1      -1.206 -10.354   3.089  0.00  0.00    +0.025 A 
ATOM     25  C   UNL     1      -2.255 -11.164   2.699  0.00  0.00    +0.002 A 
ATOM     26  C   UNL     1      -2.022 -12.246   1.869  0.00  0.00    +0.002 A 
ATOM     27  C   UNL     1      -0.741 -12.521   1.429  0.00  0.00    +0.034 A 
ATOM     28  C   UNL     1       0.311 -11.711   1.811  0.00  0.00    +0.147 A 
BRANCH  28  29
ATOM     29  N   UNL     1       1.681 -12.002   1.333  0.00  0.00    +0.058 N 
ATOM     30  O   UNL     1       1.872 -12.913   0.561  0.00  0.00    -0.126 OA
ATOM     31  O   UNL     1       2.610 -11.330   1.716  0.00  0.00    -0.126 OA
ENDBRANCH  28  29
ENDBRANCH  21  23
ENDBRANCH  17  19
ENDBRANCH   5  17
TORSDOF 8
