REMARK  Name = ZINC09832143
REMARK  6 active torsions:
REMARK  status: ('A' for Active; 'I' for Inactive)
REMARK    1  A    between atoms: C_1  and  C_2
REMARK    2  A    between atoms: C_2  and  C_4
REMARK    3  A    between atoms: C_2  and  S_20
REMARK    4  A    between atoms: C_10  and  C_15
REMARK    5  A    between atoms: S_20  and  C_21
REMARK    6  A    between atoms: N_25  and  C_26
REMARK                            x       y       z     vdW  Elec       q    Type
REMARK                         _______ _______ _______ _____ _____    ______ ____
ROOT
ATOM      1  C   UNL     1       1.163   1.647  -0.000  0.00  0.00    +0.124 A 
ATOM      2  N   UNL     1      -0.011   0.966   0.007  0.00  0.00    -0.309 N 
ATOM      3  H   UNL     1       0.002  -0.004   0.002  0.00  0.00    +0.170 HD
ATOM      4  C   UNL     1      -1.193   1.609   0.017  0.00  0.00    +0.260 A 
ATOM      5  O   UNL     1      -2.239   0.983   0.018  0.00  0.00    -0.267 OA
ATOM      6  C   UNL     1      -1.204   3.040   0.029  0.00  0.00    +0.080 A 
ATOM      7  C   UNL     1      -2.340   3.955   0.044  0.00  0.00    +0.010 A 
ATOM      8  C   UNL     1      -2.101   5.290   0.049  0.00  0.00    +0.057 A 
ATOM      9  S   UNL     1      -0.322   5.391   0.033  0.00  0.00    -0.076 S 
ATOM     10  C   UNL     1       0.058   3.658   0.020  0.00  0.00    +0.116 A 
ATOM     11  N   UNL     1       1.186   2.953   0.006  0.00  0.00    -0.225 NA
ENDROOT
BRANCH   7  12
ATOM     12  C   UNL     1      -3.724   3.437   0.055  0.00  0.00    +0.021 A 
ATOM     13  C   UNL     1      -4.762   3.766   0.885  0.00  0.00    +0.016 A 
ATOM     14  C   UNL     1      -5.980   3.147   0.700  0.00  0.00    +0.008 A 
ATOM     15  C   UNL     1      -6.110   2.224  -0.287  0.00  0.00    +0.046 A 
ATOM     16  S   UNL     1      -4.475   2.212  -1.005  0.00  0.00    -0.097 S 
ENDBRANCH   7  12
BRANCH   1  18
ATOM     17  C   UNL     1       2.980   0.727   1.415  0.00  0.00    +0.027 C 
ATOM     18  C   UNL     1       2.463   0.884  -0.017  0.00  0.00    +0.117 C 
BRANCH  18  19
ATOM     19  S   UNL     1       2.192  -0.751  -0.744  0.00  0.00    -0.074 S 
BRANCH  19  20
ATOM     20  C   UNL     1       3.850  -1.348  -0.779  0.00  0.00    +0.210 A 
ATOM     21  N   UNL     1       4.921  -0.706  -0.365  0.00  0.00    -0.101 NA
ATOM     22  N   UNL     1       5.970  -1.427  -0.532  0.00  0.00    -0.022 NA
ATOM     23  N   UNL     1       5.655  -2.562  -1.055  0.00  0.00    -0.043 NA
ATOM     24  N   UNL     1       4.260  -2.557  -1.230  0.00  0.00    -0.217 N 
BRANCH  24  25
ATOM     25  C   UNL     1       3.429  -3.628  -1.785  0.00  0.00    +0.112 C 
ATOM     26  C   UNL     1       3.611  -4.919  -0.960  0.00  0.00    +0.027 C 
ATOM     27  C   UNL     1       3.565  -6.053  -2.015  0.00  0.00    +0.002 C 
ATOM     28  C   UNL     1       4.319  -5.433  -3.217  0.00  0.00    +0.002 C 
ATOM     29  C   UNL     1       3.879  -3.955  -3.220  0.00  0.00    +0.027 C 
ENDBRANCH  24  25
ENDBRANCH  19  20
ENDBRANCH  18  19
ENDBRANCH   1  18
TORSDOF 5
