REMARK  Name = ZINC12055353
REMARK  14 active torsions:
REMARK  status: ('A' for Active; 'I' for Inactive)
REMARK    1  A    between atoms: C_1  and  N_64
REMARK    2  A    between atoms: C_2  and  C_3
REMARK    3  A    between atoms: C_2  and  N_64
REMARK    4  A    between atoms: C_9  and  C_10
REMARK    5  A    between atoms: C_9  and  N_64
REMARK    6  A    between atoms: C_10  and  C_12
REMARK    7  A    between atoms: C_10  and  O_29
REMARK    8  A    between atoms: C_12  and  O_13
REMARK    9  A    between atoms: O_13  and  C_14
REMARK   10  A    between atoms: C_16  and  C_22
REMARK   11  A    between atoms: C_19  and  O_20
REMARK   12  A    between atoms: O_20  and  C_21
REMARK   13  A    between atoms: C_22  and  N_66
REMARK   14  A    between atoms: C_23  and  N_66
REMARK                            x       y       z     vdW  Elec       q    Type
REMARK                         _______ _______ _______ _____ _____    ______ ____
ROOT
ATOM      1  C   UNL     1       0.018  -2.073  -1.209  0.00  0.00    +0.162 A 
ATOM      2  C   UNL     1      -0.006  -0.687  -1.200  0.00  0.00    +0.051 A 
ATOM      3  C   UNL     1       0.002  -0.004   0.002  0.00  0.00    -0.061 A 
ATOM      4  C   UNL     1       0.023  -0.700   1.196  0.00  0.00    +0.005 A 
ATOM      5  C   UNL     1       0.042  -2.082   1.194  0.00  0.00    +0.049 A 
ATOM      6  C   UNL     1       0.039  -2.773  -0.007  0.00  0.00    +0.162 A 
ENDROOT
BRANCH   6   7
ATOM      7  O   UNL     1       0.057  -4.133  -0.011  0.00  0.00    -0.491 OA
ATOM      8  C   UNL     1       0.078  -4.785   1.260  0.00  0.00    +0.277 C 
ENDBRANCH   6   7
BRANCH   1   9
ATOM      9  O   UNL     1       0.015  -2.746  -2.391  0.00  0.00    -0.486 OA
BRANCH   9  10
ATOM     10  C   UNL     1      -0.007  -1.962  -3.585  0.00  0.00    +0.258 C 
BRANCH  10  11
ATOM     11  C   UNL     1      -0.006  -2.887  -4.803  0.00  0.00    +0.135 C 
BRANCH  11  12
ATOM     12  O   UNL     1      -1.218  -3.645  -4.826  0.00  0.00    -0.390 OA
ATOM     13  H   UNL     1      -2.018  -3.106  -4.878  0.00  0.00    +0.210 HD
ENDBRANCH  11  12
BRANCH  11  14
ATOM     14  C   UNL     1       0.095  -2.050  -6.080  0.00  0.00    -0.044 C 
BRANCH  14  16
ATOM     15  C   UNL     1       1.307  -3.769  -7.279  0.00  0.00    -0.096 C 
ATOM     16  N   UNL     1       0.073  -2.956  -7.247  0.00  0.00    +0.382 N 
ATOM     17  H   UNL     1      -0.737  -3.582  -7.168  0.00  0.00    -0.082 HD
BRANCH  16  18
ATOM     18  C   UNL     1      -0.046  -2.170  -8.494  0.00  0.00    -0.043 C 
BRANCH  18  19
ATOM     19  C   UNL     1      -0.288  -3.116  -9.642  0.00  0.00    -0.064 A 
ATOM     20  C   UNL     1       0.781  -3.623 -10.356  0.00  0.00    +0.002 A 
ATOM     21  C   UNL     1       0.560  -4.494 -11.406  0.00  0.00    +0.000 A 
ATOM     22  C   UNL     1      -0.731  -4.849 -11.750  0.00  0.00    +0.000 A 
ATOM     23  C   UNL     1      -1.800  -4.337 -11.040  0.00  0.00    +0.000 A 
ATOM     24  C   UNL     1      -1.579  -3.470  -9.986  0.00  0.00    +0.002 A 
ENDBRANCH  18  19
ENDBRANCH  16  18
ENDBRANCH  14  16
ENDBRANCH  11  14
ENDBRANCH  10  11
ENDBRANCH   9  10
ENDBRANCH   1   9
BRANCH   3  25
ATOM     25  C   UNL     1      -0.018   1.503   0.010  0.00  0.00    -0.046 C 
BRANCH  25  26
ATOM     26  N   UNL     1       1.369   2.005  -0.000  0.00  0.00    +0.384 N 
ATOM     27  H   UNL     1       1.845   1.667  -0.845  0.00  0.00    -0.085 HD
ATOM     28  H   UNL     1       1.861   1.658   0.832  0.00  0.00    -0.085 HD
BRANCH  26  29
ATOM     29  C   UNL     1       1.379   3.480   0.008  0.00  0.00    -0.071 C 
ATOM     30  C   UNL     1       1.246   3.999  -1.425  0.00  0.00    -0.016 C 
ATOM     31  C   UNL     1       1.266   5.529  -1.417  0.00  0.00    -0.002 C 
ATOM     32  C   UNL     1       2.586   6.019  -0.818  0.00  0.00    -0.000 C 
ATOM     33  C   UNL     1       2.719   5.500   0.615  0.00  0.00    -0.002 C 
ATOM     34  C   UNL     1       2.699   3.970   0.607  0.00  0.00    -0.016 C 
ENDBRANCH  26  29
ENDBRANCH  25  26
ENDBRANCH   3  25
TORSDOF 12
