REMARK  Name = ZINC66477208
REMARK  9 active torsions:
REMARK  status: ('A' for Active; 'I' for Inactive)
REMARK    1  A    between atoms: C_1  and  C_2
REMARK    2  A    between atoms: C_2  and  N_3
REMARK    3  A    between atoms: C_4  and  C_27
REMARK    4  A    between atoms: C_5  and  C_9
REMARK    5  A    between atoms: C_6  and  C_8
REMARK    6  A    between atoms: C_9  and  N_10
REMARK    7  A    between atoms: C_11  and  C_13
REMARK    8  A    between atoms: C_13  and  C_15
REMARK    9  A    between atoms: C_13  and  N_16
REMARK                            x       y       z     vdW  Elec       q    Type
REMARK                         _______ _______ _______ _____ _____    ______ ____
ROOT
ATOM      1  N   UNL     1       4.288  -0.378   3.666  0.00  0.00    -0.310 N 
ATOM      2  C   UNL     1       5.513  -0.488   4.218  0.00  0.00    +0.234 C 
ATOM      3  O   UNL     1       6.077  -1.561   4.233  0.00  0.00    -0.274 OA
ATOM      4  H   UNL     1       3.837   0.480   3.654  0.00  0.00    +0.149 HD
ENDROOT
BRANCH   2   5
ATOM      5  C   UNL     1       6.180   0.722   4.819  0.00  0.00    +0.168 C 
ATOM      6  C   UNL     1       5.311   1.274   5.951  0.00  0.00    +0.038 C 
BRANCH   5   7
ATOM      7  N   UNL     1       7.492   0.344   5.350  0.00  0.00    -0.212 N 
ATOM      8  C   UNL     1       8.661   0.880   4.939  0.00  0.00    +0.247 C 
ATOM      9  O   UNL     1       8.821   1.732   4.092  0.00  0.00    -0.273 OA
ATOM     10  C   UNL     1       9.723   0.191   5.757  0.00  0.00    +0.113 C 
ATOM     11  C   UNL     1      10.714  -0.557   4.855  0.00  0.00    +0.035 C 
ATOM     12  C   UNL     1      11.922   0.408   4.743  0.00  0.00    +0.003 C 
ATOM     13  C   UNL     1      12.002   1.027   6.161  0.00  0.00    +0.003 C 
ATOM     14  C   UNL     1      10.526   1.198   6.584  0.00  0.00    +0.035 C 
ATOM     15  N   UNL     1       8.983  -0.736   6.614  0.00  0.00    -0.285 N 
ATOM     16  C   UNL     1       7.680  -0.573   6.309  0.00  0.00    +0.310 C 
ATOM     17  O   UNL     1       6.778  -1.190   6.841  0.00  0.00    -0.252 OA
ATOM     18  H   UNL     1       9.355  -1.344   7.272  0.00  0.00    +0.151 HD
ENDBRANCH   5   7
ENDBRANCH   2   5
BRANCH   1  19
ATOM     19  C   UNL     1       3.640  -1.555   3.082  0.00  0.00    +0.143 C 
BRANCH  19  22
ATOM     20  N   UNL     1       0.711  -0.489   1.189  0.00  0.00    -0.268 N 
ATOM     21  C   UNL     1       2.035  -0.732   1.279  0.00  0.00    +0.041 A 
ATOM     22  C   UNL     1       2.291  -1.165   2.535  0.00  0.00    +0.013 A 
ATOM     23  C   UNL     1       1.081  -1.189   3.237  0.00  0.00    +0.065 A 
ATOM     24  N   UNL     1       0.134  -0.778   2.432  0.00  0.00    -0.176 NA
ATOM     25  C   UNL     1       0.900  -1.609   4.673  0.00  0.00    +0.068 C 
ATOM     26  C   UNL     1       3.048  -0.551   0.178  0.00  0.00    +0.065 C 
BRANCH  20  28
ATOM     27  C   UNL     1      -0.019   1.526   0.010  0.00  0.00    +0.029 C 
ATOM     28  C   UNL     1       0.002  -0.004   0.002  0.00  0.00    +0.140 C 
ENDBRANCH  20  28
ENDBRANCH  19  22
ENDBRANCH   1  19
TORSDOF 5
