REMARK  Name = ZINC49481202
REMARK  3 active torsions:
REMARK  status: ('A' for Active; 'I' for Inactive)
REMARK    1  A    between atoms: C_4  and  C_7
REMARK    2  A    between atoms: C_9  and  C_12
REMARK    3  A    between atoms: C_16  and  C_18
REMARK                            x       y       z     vdW  Elec       q    Type
REMARK                         _______ _______ _______ _____ _____    ______ ____
ROOT
ATOM      1  C   UNL     1       5.692  -3.722  -0.082  0.00  0.00    +0.112 C 
ATOM      2  C   UNL     1       6.980  -3.874   0.748  0.00  0.00    +0.122 C 
ATOM      3  N   UNL     1       7.486  -4.691  -0.372  0.00  0.00    -0.298 N 
ATOM      4  C   UNL     1       6.569  -4.017  -1.312  0.00  0.00    +0.122 C 
ATOM      5  C   UNL     1       8.412  -5.662  -0.490  0.00  0.00    +0.236 C 
ATOM      6  O   UNL     1       9.034  -6.028   0.485  0.00  0.00    -0.274 OA
ENDROOT
BRANCH   5   7
ATOM      7  C   UNL     1       8.676  -6.294  -1.832  0.00  0.00    +0.159 C 
ATOM      8  C   UNL     1       9.618  -5.399  -2.668  0.00  0.00    +0.041 C 
ATOM      9  C   UNL     1      10.460  -6.451  -3.427  0.00  0.00    +0.098 C 
ATOM     10  C   UNL     1      10.394  -7.682  -2.550  0.00  0.00    +0.214 C 
ATOM     11  O   UNL     1      11.138  -8.636  -2.635  0.00  0.00    -0.276 OA
ATOM     12  N   UNL     1       9.388  -7.566  -1.664  0.00  0.00    -0.304 N 
ATOM     13  H   UNL     1       9.163  -8.235  -0.999  0.00  0.00    +0.149 HD
ENDBRANCH   5   7
BRANCH   1  16
ATOM     14  C   UNL     1       3.699  -0.689  -0.037  0.00  0.00    +0.202 A 
ATOM     15  N   UNL     1       3.853  -2.025  -0.051  0.00  0.00    -0.191 NA
ATOM     16  C   UNL     1       5.120  -2.328  -0.065  0.00  0.00    +0.234 A 
ATOM     17  O   UNL     1       5.828  -1.191  -0.059  0.00  0.00    -0.337 OA
ATOM     18  N   UNL     1       4.884  -0.131  -0.046  0.00  0.00    -0.056 NA
BRANCH  14  22
ATOM     19  C   UNL     1      -0.017   1.379   0.010  0.00  0.00    +0.000 A 
ATOM     20  C   UNL     1       1.169   2.092   0.002  0.00  0.00    +0.001 A 
ATOM     21  C   UNL     1       2.377   1.426  -0.013  0.00  0.00    +0.012 A 
ATOM     22  C   UNL     1       2.402   0.033  -0.021  0.00  0.00    +0.022 A 
ATOM     23  C   UNL     1       1.205  -0.680  -0.013  0.00  0.00    +0.012 A 
ATOM     24  C   UNL     1       0.002  -0.004   0.002  0.00  0.00    +0.001 A 
ENDBRANCH  14  22
ENDBRANCH   1  16
TORSDOF 3
