REMARK  Name = ZINC15290643
REMARK  5 active torsions:
REMARK  status: ('A' for Active; 'I' for Inactive)
REMARK    1  A    between atoms: C_1  and  C_2
REMARK    2  A    between atoms: C_3  and  N_9
REMARK    3  A    between atoms: N_9  and  C_10
REMARK    4  A    between atoms: C_10  and  C_11
REMARK    5  A    between atoms: N_16  and  C_17
REMARK                            x       y       z     vdW  Elec       q    Type
REMARK                         _______ _______ _______ _____ _____    ______ ____
ROOT
ATOM      1  C   UNL     1       5.068  -2.598  -0.060  0.00  0.00    +0.237 C 
ATOM      2  O   UNL     1       5.978  -1.798  -0.064  0.00  0.00    -0.274 OA
ATOM      3  N   UNL     1       5.333  -3.920  -0.070  0.00  0.00    -0.239 N 
ATOM      4  C   UNL     1       6.610  -4.351  -0.084  0.00  0.00    +0.306 C 
ATOM      5  O   UNL     1       7.522  -3.548  -0.089  0.00  0.00    -0.252 OA
ATOM      6  N   UNL     1       6.875  -5.673  -0.094  0.00  0.00    -0.295 N 
ATOM      7  H   UNL     1       4.604  -4.561  -0.066  0.00  0.00    +0.159 HD
ATOM      8  H   UNL     1       6.146  -6.313  -0.090  0.00  0.00    +0.151 HD
ENDROOT
BRANCH   6   9
ATOM      9  C   UNL     1       8.262  -6.141  -0.110  0.00  0.00    +0.097 C 
ATOM     10  C   UNL     1       8.804  -6.181   1.329  0.00  0.00    +0.046 C 
ATOM     11  C   UNL     1      10.146  -6.968   1.319  0.00  0.00    +0.168 C 
ATOM     12  S   UNL     1       9.727  -8.335   0.157  0.00  0.00    -0.029 S 
ATOM     13  O   UNL     1       9.245  -9.444   0.902  0.00  0.00    -0.174 OA
ATOM     14  O   UNL     1      10.806  -8.516  -0.751  0.00  0.00    -0.174 OA
ATOM     15  C   UNL     1       8.320  -7.556  -0.735  0.00  0.00    +0.188 C 
ENDBRANCH   6   9
BRANCH   1  16
ATOM     16  C   UNL     1       3.640  -2.116  -0.044  0.00  0.00    +0.198 C 
BRANCH  16  17
ATOM     17  N   UNL     1       3.620  -0.651  -0.036  0.00  0.00    -0.335 N 
ATOM     18  H   UNL     1       4.453  -0.155  -0.041  0.00  0.00    +0.147 HD
BRANCH  17  21
ATOM     19  C   UNL     1       3.672   2.193  -0.022  0.00  0.00    +0.047 C 
ATOM     20  C   UNL     1       2.379   1.419  -0.013  0.00  0.00    -0.011 A 
ATOM     21  C   UNL     1       2.400   0.030  -0.020  0.00  0.00    +0.032 A 
ATOM     22  C   UNL     1       1.206  -0.680  -0.013  0.00  0.00    +0.023 A 
ATOM     23  C   UNL     1       0.002  -0.004   0.002  0.00  0.00    +0.003 A 
ATOM     24  C   UNL     1      -0.017   1.378   0.010  0.00  0.00    +0.020 A 
ATOM     25  C   UNL     1       1.171   2.089   0.002  0.00  0.00    +0.046 A 
ATOM     26 CL   UNL     1       1.143   3.825   0.011  0.00  0.00    -0.083 Cl
ENDBRANCH  17  21
ENDBRANCH  16  17
ENDBRANCH   1  16
TORSDOF 4
