REMARK  Name = ZINC59331959
REMARK  7 active torsions:
REMARK  status: ('A' for Active; 'I' for Inactive)
REMARK    1  A    between atoms: C_1  and  S_2
REMARK    2  A    between atoms: S_2  and  N_5
REMARK    3  A    between atoms: N_8  and  C_11
REMARK    4  A    between atoms: C_16  and  N_17
REMARK    5  A    between atoms: C_18  and  C_20
REMARK    6  A    between atoms: C_21  and  C_22
REMARK    7  A    between atoms: C_25  and  C_27
REMARK                            x       y       z     vdW  Elec       q    Type
REMARK                         _______ _______ _______ _____ _____    ______ ____
ROOT
ATOM      1  N   UNL     1       2.499  -2.550  -4.383  0.00  0.00    -0.280 N 
ATOM      2  C   UNL     1       2.024  -3.700  -4.900  0.00  0.00    +0.241 C 
ATOM      3  O   UNL     1       2.092  -3.902  -6.100  0.00  0.00    -0.270 OA
ATOM      4  H   UNL     1       2.506  -2.417  -3.422  0.00  0.00    +0.155 HD
ENDROOT
BRANCH   1  10
ATOM      5  C   UNL     1       2.799  -0.204  -4.906  0.00  0.00    +0.051 A 
ATOM      6  C   UNL     1       3.287   0.783  -5.748  0.00  0.00    +0.025 A 
ATOM      7  C   UNL     1       3.950   0.435  -6.910  0.00  0.00    +0.002 A 
ATOM      8  C   UNL     1       4.129  -0.897  -7.236  0.00  0.00    +0.002 A 
ATOM      9  C   UNL     1       3.646  -1.888  -6.402  0.00  0.00    +0.025 A 
ATOM     10  C   UNL     1       2.985  -1.548  -5.232  0.00  0.00    +0.055 A 
BRANCH   5  14
ATOM     11  N   UNL     1       0.797  -0.396  -1.403  0.00  0.00    -0.178 NA
ATOM     12  C   UNL     1       0.058  -0.582  -2.660  0.00  0.00    +0.128 C 
ATOM     13  C   UNL     1       0.669   0.333  -3.728  0.00  0.00    +0.122 C 
ATOM     14  N   UNL     1       2.127   0.145  -3.729  0.00  0.00    -0.326 N 
ATOM     15  C   UNL     1       2.866   0.332  -2.473  0.00  0.00    +0.122 C 
ATOM     16  C   UNL     1       2.255  -0.578  -1.406  0.00  0.00    +0.128 C 
BRANCH  11  18
ATOM     17  C   UNL     1      -0.011   1.832  -0.004  0.00  0.00    +0.215 C 
ATOM     18  S   UNL     1       0.002   0.018  -0.011  0.00  0.00    +0.029 S 
ATOM     19  O   UNL     1       0.828  -0.470   1.037  0.00  0.00    -0.158 OA
ATOM     20  O   UNL     1      -1.318  -0.480  -0.186  0.00  0.00    -0.158 OA
ENDBRANCH  11  18
ENDBRANCH   5  14
ENDBRANCH   1  10
BRANCH   2  21
ATOM     21  C   UNL     1       1.448  -4.673  -4.051  0.00  0.00    +0.071 C 
ATOM     22  C   UNL     1       0.969  -5.832  -4.572  0.00  0.00    +0.051 C 
BRANCH  22  23
ATOM     23  C   UNL     1       0.392  -6.804  -3.724  0.00  0.00    +0.129 A 
ATOM     24  C   UNL     1      -0.126  -8.023  -4.119  0.00  0.00    +0.050 A 
ATOM     25  C   UNL     1      -0.587  -8.659  -2.963  0.00  0.00    +0.050 A 
ATOM     26  C   UNL     1      -0.338  -7.819  -1.915  0.00  0.00    +0.136 A 
ATOM     27  O   UNL     1       0.257  -6.708  -2.384  0.00  0.00    -0.455 OA
BRANCH  26  28
ATOM     28  C   UNL     1      -0.663  -8.088  -0.501  0.00  0.00    +0.020 A 
ATOM     29  C   UNL     1      -1.274  -9.291  -0.138  0.00  0.00    +0.031 A 
ATOM     30  C   UNL     1      -1.575  -9.537   1.186  0.00  0.00    +0.043 A 
ATOM     31  C   UNL     1      -1.274  -8.594   2.155  0.00  0.00    +0.040 A 
ATOM     32  C   UNL     1      -0.669  -7.400   1.802  0.00  0.00    +0.043 A 
ATOM     33  C   UNL     1      -0.357  -7.144   0.482  0.00  0.00    +0.031 A 
ATOM     34 CL   UNL     1      -0.296  -6.224   3.024  0.00  0.00    -0.083 Cl
ATOM     35 CL   UNL     1      -2.334 -11.032   1.639  0.00  0.00    -0.083 Cl
ENDBRANCH  26  28
ENDBRANCH  22  23
ENDBRANCH   2  21
TORSDOF 6
