REMARK  Name = ZINC01063668
REMARK  5 active torsions:
REMARK  status: ('A' for Active; 'I' for Inactive)
REMARK    1  A    between atoms: C_8  and  N_22
REMARK    2  A    between atoms: C_9  and  N_11
REMARK    3  A    between atoms: N_14  and  C_17
REMARK    4  A    between atoms: N_22  and  S_23
REMARK    5  A    between atoms: S_23  and  C_26
REMARK                            x       y       z     vdW  Elec       q    Type
REMARK                         _______ _______ _______ _____ _____    ______ ____
ROOT
ATOM      1  C   UNL     1       1.359  13.890   0.018  0.00  0.00    +0.002 A 
ATOM      2  C   UNL     1       1.965  13.176   1.048  0.00  0.00    +0.002 A 
ATOM      3  C   UNL     1       1.974  11.814   1.043  0.00  0.00    +0.030 A 
ATOM      4  C   UNL     1       1.364  11.116  -0.012  0.00  0.00    +0.091 A 
ATOM      5  C   UNL     1       0.747  11.842  -1.058  0.00  0.00    +0.091 A 
ATOM      6  C   UNL     1       0.757  13.246  -1.021  0.00  0.00    +0.030 A 
ATOM      7  N   UNL     1       0.161  11.186  -2.070  0.00  0.00    -0.226 NA
ATOM      8  C   UNL     1       0.163   9.869  -2.084  0.00  0.00    +0.179 A 
ATOM      9  C   UNL     1       0.779   9.143  -1.037  0.00  0.00    +0.164 A 
ATOM     10  N   UNL     1       1.353   9.775  -0.035  0.00  0.00    -0.227 NA
ENDROOT
BRANCH   9  11
ATOM     11  N   UNL     1       0.774   7.756  -1.063  0.00  0.00    -0.309 N 
ATOM     12  C   UNL     1       2.139   7.226  -1.189  0.00  0.00    +0.125 C 
ATOM     13  C   UNL     1       2.083   5.700  -1.295  0.00  0.00    +0.125 C 
ATOM     14  N   UNL     1       1.416   5.153  -0.105  0.00  0.00    -0.314 N 
ATOM     15  C   UNL     1       0.051   5.683   0.020  0.00  0.00    +0.125 C 
ATOM     16  C   UNL     1       0.106   7.209   0.126  0.00  0.00    +0.125 C 
BRANCH  14  17
ATOM     17  C   UNL     1       1.410   3.763  -0.132  0.00  0.00    +0.099 A 
ATOM     18  C   UNL     1       0.822   3.056   0.912  0.00  0.00    +0.042 A 
ATOM     19  C   UNL     1       0.819   1.674   0.870  0.00  0.00    +0.005 A 
ATOM     20  C   UNL     1       1.415   1.042  -0.213  0.00  0.00    +0.018 A 
ATOM     21  C   UNL     1       1.981   1.806  -1.214  0.00  0.00    +0.084 A 
ATOM     22  N   UNL     1       1.997   3.166  -1.209  0.00  0.00    -0.350 N 
ATOM     23  H   UNL     1       2.425   3.710  -1.968  0.00  0.00    +0.166 HD
ENDBRANCH  14  17
ENDBRANCH   9  11
BRANCH   8  24
ATOM     24  N   UNL     1      -0.443   9.190  -3.130  0.00  0.00    -0.197 N 
ATOM     25  H   UNL     1      -0.532   8.224  -3.095  0.00  0.00    +0.175 HD
BRANCH  24  26
ATOM     26  S   UNL     1      -1.014  10.026  -4.440  0.00  0.00    +0.074 S 
ATOM     27  O   UNL     1      -1.546   9.062  -5.338  0.00  0.00    -0.150 OA
ATOM     28  O   UNL     1      -1.791  11.101  -3.929  0.00  0.00    -0.150 OA
BRANCH  26  29
ATOM     29  C   UNL     1       0.378  10.749  -5.244  0.00  0.00    +0.109 A 
ATOM     30  C   UNL     1       0.802  12.015  -4.886  0.00  0.00    +0.030 A 
ATOM     31  C   UNL     1       1.897  12.580  -5.512  0.00  0.00    +0.022 A 
ATOM     32  C   UNL     1       2.562  11.883  -6.505  0.00  0.00    +0.041 A 
ATOM     33  C   UNL     1       2.133  10.618  -6.867  0.00  0.00    +0.022 A 
ATOM     34  C   UNL     1       1.041  10.052  -6.236  0.00  0.00    +0.030 A 
ATOM     35 CL   UNL     1       3.933  12.595  -7.296  0.00  0.00    -0.084 Cl
ENDBRANCH  26  29
ENDBRANCH  24  26
ENDBRANCH   8  24
TORSDOF 5
