REMARK  Name = ZINC21449101
REMARK  7 active torsions:
REMARK  status: ('A' for Active; 'I' for Inactive)
REMARK    1  A    between atoms: C_1  and  C_2
REMARK    2  A    between atoms: C_9  and  C_14
REMARK    3  A    between atoms: C_14  and  S_15
REMARK    4  A    between atoms: S_15  and  C_16
REMARK    5  A    between atoms: C_19  and  C_27
REMARK    6  A    between atoms: N_20  and  C_21
REMARK    7  A    between atoms: C_31  and  C_32
REMARK                            x       y       z     vdW  Elec       q    Type
REMARK                         _______ _______ _______ _____ _____    ______ ____
ROOT
ATOM      1  C   UNL     1      -5.176  -2.665   0.034  0.00  0.00    +0.197 A 
ATOM      2  N   UNL     1      -5.126  -3.977   0.026  0.00  0.00    -0.122 NA
ATOM      3  N   UNL     1      -6.314  -4.466   0.034  0.00  0.00    -0.128 NA
ATOM      4  C   UNL     1      -7.199  -3.497   0.048  0.00  0.00    +0.173 A 
ATOM      5  N   UNL     1      -6.499  -2.311   0.054  0.00  0.00    -0.270 N 
ENDROOT
BRANCH   5   6
ATOM      6  C   UNL     1      -7.029  -1.013   0.073  0.00  0.00    +0.051 A 
ATOM      7  C   UNL     1      -7.753  -0.574   1.173  0.00  0.00    +0.026 A 
ATOM      8  C   UNL     1      -8.270   0.707   1.192  0.00  0.00    +0.002 A 
ATOM      9  C   UNL     1      -8.075   1.548   0.111  0.00  0.00    +0.000 A 
ATOM     10  C   UNL     1      -7.359   1.111  -0.988  0.00  0.00    +0.002 A 
ATOM     11  C   UNL     1      -6.835  -0.167  -1.010  0.00  0.00    +0.026 A 
ENDBRANCH   5   6
BRANCH   4  12
ATOM     12  C   UNL     1      -8.670  -3.650   0.060  0.00  0.00    +0.060 A 
ATOM     13  C   UNL     1      -9.672  -2.577   0.074  0.00  0.00    +0.053 A 
ATOM     14  C   UNL     1     -10.869  -3.187   0.081  0.00  0.00    +0.196 A 
ATOM     15  O   UNL     1     -10.683  -4.516   0.072  0.00  0.00    -0.467 OA
ATOM     16  C   UNL     1      -9.375  -4.813   0.054  0.00  0.00    +0.112 A 
ATOM     17  C   UNL     1      -8.787  -6.200   0.035  0.00  0.00    +0.087 C 
ENDBRANCH   4  12
BRANCH   1  18
ATOM     18  S   UNL     1      -3.799  -1.566   0.028  0.00  0.00    -0.078 S 
BRANCH  18  19
ATOM     19  C   UNL     1      -2.441  -2.763   0.009  0.00  0.00    +0.151 C 
BRANCH  19  28
ATOM     20  C   UNL     1      -1.330   2.131   0.020  0.00  0.00    +0.046 C 
ATOM     21  C   UNL     1      -0.017   1.392   0.010  0.00  0.00    -0.024 A 
ATOM     22  C   UNL     1       1.170   2.090   0.002  0.00  0.00    +0.005 A 
ATOM     23  C   UNL     1       2.388   1.423  -0.013  0.00  0.00    +0.001 A 
ATOM     24  C   UNL     1       2.432   0.046  -0.021  0.00  0.00    +0.015 A 
ATOM     25  C   UNL     1       1.243  -0.679  -0.013  0.00  0.00    +0.065 A 
ATOM     26  C   UNL     1       0.002  -0.004   0.002  0.00  0.00    +0.081 A 
ATOM     27  N   UNL     1      -1.143  -0.732   0.009  0.00  0.00    -0.233 NA
ATOM     28  C   UNL     1      -1.125  -2.030   0.001  0.00  0.00    +0.121 A 
ATOM     29  N   UNL     1       0.020  -2.761  -0.014  0.00  0.00    -0.310 N 
ATOM     30  H   UNL     1      -0.029  -3.860  -0.020  0.00  0.00    +0.170 HD
ATOM     31  C   UNL     1       1.228  -2.150  -0.022  0.00  0.00    +0.259 A 
ATOM     32  O   UNL     1       2.262  -2.793  -0.035  0.00  0.00    -0.267 OA
ENDBRANCH  19  28
ENDBRANCH  18  19
ENDBRANCH   1  18
TORSDOF 5
