REMARK  Name = ZINC36066435
REMARK  11 active torsions:
REMARK  status: ('A' for Active; 'I' for Inactive)
REMARK    1  A    between atoms: C_1  and  C_2
REMARK    2  A    between atoms: C_8  and  N_10
REMARK    3  A    between atoms: C_11  and  C_13
REMARK    4  A    between atoms: C_21  and  C_32
REMARK    5  A    between atoms: N_27  and  C_28
REMARK    6  A    between atoms: C_28  and  C_29
REMARK    7  A    between atoms: C_29  and  O_30
REMARK    8  A    between atoms: O_30  and  C_31
REMARK    9  A    between atoms: N_34  and  C_35
REMARK   10  A    between atoms: C_39  and  O_41
REMARK   11  A    between atoms: O_41  and  C_42
REMARK                            x       y       z     vdW  Elec       q    Type
REMARK                         _______ _______ _______ _____ _____    ______ ____
ROOT
ATOM      1  C   UNL     1       3.378   0.538   2.784  0.00  0.00    +0.198 C 
ATOM      2  C   UNL     1       4.467  -0.404   2.373  0.00  0.00    +0.127 C 
ATOM      3  C   UNL     1       4.358  -1.761   3.043  0.00  0.00    +0.009 C 
ATOM      4  C   UNL     1       5.372  -2.475   2.577  0.00  0.00    +0.004 C 
ATOM      5  C   UNL     1       6.142  -1.519   1.658  0.00  0.00    +0.155 C 
ATOM      6  O   UNL     1       5.036  -0.683   1.115  0.00  0.00    -0.358 OA
ATOM      7  C   UNL     1       6.837  -0.551   2.693  0.00  0.00    +0.123 C 
ATOM      8  C   UNL     1       5.674   0.385   3.022  0.00  0.00    +0.128 C 
ATOM      9  C   UNL     1       5.116   0.666   4.357  0.00  0.00    +0.223 C 
ATOM     10  O   UNL     1       5.732   0.718   5.401  0.00  0.00    -0.275 OA
ATOM     11  N   UNL     1       3.765   0.862   4.194  0.00  0.00    -0.284 N 
ENDROOT
BRANCH   1  13
ATOM     12  N   UNL     1       1.257  -0.021   1.642  0.00  0.00    -0.311 N 
ATOM     13  C   UNL     1       2.033  -0.140   2.737  0.00  0.00    +0.237 C 
ATOM     14  O   UNL     1       1.650  -0.792   3.685  0.00  0.00    -0.274 OA
ATOM     15  H   UNL     1       1.563   0.501   0.884  0.00  0.00    +0.149 HD
BRANCH  12  22
ATOM     16  C   UNL     1      -1.137   1.509   1.077  0.00  0.00    +0.009 C 
ATOM     17  C   UNL     1      -0.962   0.060   0.616  0.00  0.00    +0.006 C 
ATOM     18  C   UNL     1      -0.332   0.041  -0.779  0.00  0.00    +0.005 C 
ATOM     19  C   UNL     1      -0.157  -1.407  -1.240  0.00  0.00    +0.000 C 
ATOM     20  C   UNL     1       0.754  -2.148  -0.258  0.00  0.00    +0.002 C 
ATOM     21  C   UNL     1       0.124  -2.129   1.136  0.00  0.00    +0.022 C 
ATOM     22  C   UNL     1      -0.051  -0.680   1.597  0.00  0.00    +0.076 C 
ENDBRANCH  12  22
ENDBRANCH   1  13
BRANCH   7  23
ATOM     23  C   UNL     1       7.308  -1.307   3.909  0.00  0.00    +0.224 C 
ATOM     24  O   UNL     1       6.860  -1.036   5.003  0.00  0.00    -0.275 OA
ATOM     25  N   UNL     1       8.227  -2.285   3.780  0.00  0.00    -0.285 N 
ATOM     26  H   UNL     1       8.534  -2.549   2.898  0.00  0.00    +0.155 HD
BRANCH  25  27
ATOM     27  C   UNL     1       8.738  -2.918   4.918  0.00  0.00    +0.037 A 
ATOM     28  C   UNL     1       9.083  -4.263   4.869  0.00  0.00    +0.023 A 
ATOM     29  C   UNL     1       9.588  -4.888   5.993  0.00  0.00    +0.005 A 
ATOM     30  C   UNL     1       9.751  -4.179   7.167  0.00  0.00    +0.046 A 
ATOM     31  C   UNL     1       9.408  -2.835   7.222  0.00  0.00    +0.122 A 
ATOM     32  C   UNL     1       8.907  -2.203   6.095  0.00  0.00    +0.069 A 
BRANCH  31  33
ATOM     33  O   UNL     1       9.568  -2.139   8.378  0.00  0.00    -0.495 OA
ATOM     34  C   UNL     1      10.095  -2.853   9.498  0.00  0.00    +0.277 C 
ENDBRANCH  31  33
ENDBRANCH  25  27
ENDBRANCH   7  23
BRANCH  11  35
ATOM     35  C   UNL     1       2.845   1.316   5.239  0.00  0.00    +0.136 C 
BRANCH  35  36
ATOM     36  C   UNL     1       2.713   2.839   5.176  0.00  0.00    +0.178 C 
BRANCH  36  37
ATOM     37  O   UNL     1       2.098   3.213   3.941  0.00  0.00    -0.381 OA
ATOM     38  C   UNL     1       1.928   4.623   3.780  0.00  0.00    +0.194 C 
ENDBRANCH  36  37
ENDBRANCH  35  36
ENDBRANCH  11  35
TORSDOF 8
