REMARK  Name = ZINC13382219
REMARK  4 active torsions:
REMARK  status: ('A' for Active; 'I' for Inactive)
REMARK    1  A    between atoms: N_8  and  N_9
REMARK    2  A    between atoms: C_10  and  C_12
REMARK    3  A    between atoms: C_13  and  C_23
REMARK    4  A    between atoms: C_23  and  N_24
REMARK                            x       y       z     vdW  Elec       q    Type
REMARK                         _______ _______ _______ _____ _____    ______ ____
ROOT
ATOM      1  C   UNL     1      -3.079  -3.880   0.551  0.00  0.00    +0.170 A 
ATOM      2  C   UNL     1      -4.064  -4.826   0.616  0.00  0.00    +0.063 A 
ATOM      3  N   UNL     1      -5.241  -4.173   0.500  0.00  0.00    -0.194 N 
ATOM      4  N   UNL     1      -4.936  -2.811   0.364  0.00  0.00    -0.058 NA
ATOM      5  N   UNL     1      -3.657  -2.675   0.403  0.00  0.00    -0.124 NA
ATOM      6  C   UNL     1      -6.518  -4.746   0.513  0.00  0.00    +0.240 A 
ATOM      7  C   UNL     1      -7.781  -4.030   0.310  0.00  0.00    +0.206 A 
ATOM      8  N   UNL     1      -8.758  -4.891   0.391  0.00  0.00    -0.032 NA
ATOM      9  O   UNL     1      -8.193  -6.166   0.641  0.00  0.00    -0.239 OA
ATOM     10  N   UNL     1      -6.786  -6.007   0.701  0.00  0.00    -0.027 NA
ATOM     11  N   UNL     1      -7.915  -2.667   0.074  0.00  0.00    -0.337 N 
ATOM     12  H   UNL     1      -7.127  -2.102   0.031  0.00  0.00    +0.144 HD
ATOM     13  H   UNL     1      -8.796  -2.280  -0.048  0.00  0.00    +0.144 HD
ENDROOT
BRANCH   1  15
ATOM     14  N   UNL     1      -0.764  -3.105   0.662  0.00  0.00    -0.201 N 
ATOM     15  C   UNL     1      -1.630  -4.137   0.635  0.00  0.00    +0.285 C 
ATOM     16  O   UNL     1      -1.217  -5.279   0.681  0.00  0.00    -0.267 OA
ATOM     17  H   UNL     1      -1.093  -2.194   0.625  0.00  0.00    +0.178 HD
BRANCH  14  25
ATOM     18  C   UNL     1      -0.001   1.194   0.559  0.00  0.00    +0.001 A 
ATOM     19  C   UNL     1       1.198   1.863   0.739  0.00  0.00    +0.002 A 
ATOM     20  C   UNL     1       2.370   1.163   0.941  0.00  0.00    +0.024 A 
ATOM     21  C   UNL     1       2.358  -0.227   0.965  0.00  0.00    +0.043 A 
ATOM     22  C   UNL     1       1.143  -0.900   0.782  0.00  0.00    +0.028 A 
ATOM     23  C   UNL     1      -0.033  -0.186   0.580  0.00  0.00    +0.012 A 
ATOM     24  C   UNL     1       1.451  -2.347   0.859  0.00  0.00    +0.153 C 
ATOM     25  N   UNL     1       0.614  -3.349   0.742  0.00  0.00    -0.174 NA
ATOM     26  C   UNL     1       2.907  -2.415   1.094  0.00  0.00    +0.269 C 
ATOM     27  O   UNL     1       3.566  -3.431   1.218  0.00  0.00    -0.268 OA
ATOM     28  N   UNL     1       3.376  -1.157   1.146  0.00  0.00    -0.280 N 
ATOM     29  H   UNL     1       4.307  -0.926   1.291  0.00  0.00    +0.155 HD
ENDBRANCH  14  25
ENDBRANCH   1  15
BRANCH   2  30
ATOM     30  C   UNL     1      -3.873  -6.311   0.784  0.00  0.00    -0.020 C 
BRANCH  30  31
ATOM     31  N   UNL     1      -3.649  -6.619   2.203  0.00  0.00    +0.383 N 
ATOM     32  C   UNL     1      -4.894  -6.386   2.980  0.00  0.00    -0.078 C 
ATOM     33  C   UNL     1      -4.688  -7.253   4.248  0.00  0.00    -0.020 C 
ATOM     34  C   UNL     1      -3.969  -8.506   3.697  0.00  0.00    -0.020 C 
ATOM     35  C   UNL     1      -3.332  -8.054   2.370  0.00  0.00    -0.078 C 
ATOM     36  H   UNL     1      -2.899  -6.052   2.569  0.00  0.00    -0.081 HD
ENDBRANCH  30  31
ENDBRANCH   2  30
TORSDOF 4
