REMARK  Name = ZINC40140388
REMARK  5 active torsions:
REMARK  status: ('A' for Active; 'I' for Inactive)
REMARK    1  A    between atoms: C_1  and  C_2
REMARK    2  A    between atoms: C_3  and  C_7
REMARK    3  A    between atoms: N_9  and  N_10
REMARK    4  A    between atoms: C_11  and  C_13
REMARK    5  A    between atoms: N_16  and  C_18
REMARK                            x       y       z     vdW  Elec       q    Type
REMARK                         _______ _______ _______ _____ _____    ______ ____
ROOT
ATOM      1  C   UNL     1      -7.218  -1.466   0.030  0.00  0.00    +0.152 A 
ATOM      2  C   UNL     1      -8.341  -2.318   0.036  0.00  0.00    +0.006 A 
ATOM      3  C   UNL     1      -9.422  -1.507   0.036  0.00  0.00    +0.049 A 
ATOM      4  N   UNL     1      -8.964  -0.231   0.043  0.00  0.00    -0.236 N 
ATOM      5  N   UNL     1      -7.677  -0.227   0.041  0.00  0.00    -0.161 NA
ATOM      6  C   UNL     1     -10.858  -1.963   0.014  0.00  0.00    +0.056 C 
ATOM      7  C   UNL     1     -11.050  -3.066   1.060  0.00  0.00    +0.006 C 
ATOM      8  C   UNL     1     -10.753  -4.427   0.436  0.00  0.00    +0.001 C 
ATOM      9  C   UNL     1      -9.648  -4.315  -0.611  0.00  0.00    +0.005 C 
ATOM     10  C   UNL     1      -8.358  -3.822   0.053  0.00  0.00    +0.039 C 
ENDROOT
BRANCH   4  11
ATOM     11  C   UNL     1      -9.772   0.913   0.058  0.00  0.00    +0.066 A 
ATOM     12  C   UNL     1     -10.984   0.918  -0.620  0.00  0.00    +0.028 A 
ATOM     13  C   UNL     1     -11.778   2.048  -0.603  0.00  0.00    +0.002 A 
ATOM     14  C   UNL     1     -11.367   3.173   0.086  0.00  0.00    +0.000 A 
ATOM     15  C   UNL     1     -10.161   3.172   0.762  0.00  0.00    +0.002 A 
ATOM     16  C   UNL     1      -9.365   2.044   0.754  0.00  0.00    +0.028 A 
ENDBRANCH   4  11
BRANCH   1  18
ATOM     17  N   UNL     1      -4.827  -0.946   0.021  0.00  0.00    -0.229 N 
ATOM     18  C   UNL     1      -5.800  -1.878   0.020  0.00  0.00    +0.281 C 
ATOM     19  O   UNL     1      -5.511  -3.059   0.011  0.00  0.00    -0.267 OA
ATOM     20  H   UNL     1      -5.058  -0.004   0.028  0.00  0.00    +0.173 HD
BRANCH  17  23
ATOM     21  C   UNL     1      -2.508  -0.405   0.013  0.00  0.00    +0.263 C 
ATOM     22  O   UNL     1      -2.798   0.776   0.021  0.00  0.00    -0.269 OA
ATOM     23  N   UNL     1      -3.482  -1.337   0.012  0.00  0.00    -0.230 N 
ATOM     24  H   UNL     1      -3.251  -2.280   0.005  0.00  0.00    +0.173 HD
BRANCH  21  27
ATOM     25  C   UNL     1      -0.018   1.503   0.010  0.00  0.00    +0.087 C 
ATOM     26  C   UNL     1       0.002  -0.004   0.002  0.00  0.00    +0.114 A 
ATOM     27  C   UNL     1      -1.093  -0.817   0.003  0.00  0.00    +0.079 A 
ATOM     28  C   UNL     1      -0.567  -2.190  -0.008  0.00  0.00    +0.054 A 
ATOM     29  C   UNL     1       0.769  -2.073  -0.014  0.00  0.00    +0.196 A 
ATOM     30  O   UNL     1       1.097  -0.771  -0.013  0.00  0.00    -0.467 OA
ENDBRANCH  21  27
ENDBRANCH  17  23
ENDBRANCH   1  18
TORSDOF 4
