REMARK  Name = ZINC20718542
REMARK  5 active torsions:
REMARK  status: ('A' for Active; 'I' for Inactive)
REMARK    1  A    between atoms: C_1  and  C_2
REMARK    2  A    between atoms: C_5  and  N_30
REMARK    3  A    between atoms: C_9  and  C_18
REMARK    4  A    between atoms: C_27  and  O_28
REMARK    5  A    between atoms: O_28  and  C_29
REMARK                            x       y       z     vdW  Elec       q    Type
REMARK                         _______ _______ _______ _____ _____    ______ ____
ROOT
ATOM      1  C   UNL     1      -2.498   0.138  -0.147  0.00  0.00    +0.045 C 
ATOM      2  C   UNL     1      -1.224  -0.664  -0.070  0.00  0.00    -0.029 A 
ATOM      3  C   UNL     1      -1.282  -2.003   0.247  0.00  0.00    +0.007 A 
ATOM      4  C   UNL     1      -0.121  -2.752   0.323  0.00  0.00    +0.033 A 
ATOM      5  C   UNL     1       1.098  -2.149   0.074  0.00  0.00    +0.132 A 
ATOM      6  C   UNL     1       1.164  -0.811  -0.250  0.00  0.00    +0.011 A 
ATOM      7  C   UNL     1      -0.000  -0.040  -0.319  0.00  0.00    +0.037 A 
ATOM      8  N   UNL     1      -0.020   1.320  -0.620  0.00  0.00    -0.336 N 
ATOM      9  C   UNL     1       1.269   1.941  -0.963  0.00  0.00    +0.109 C 
ATOM     10  C   UNL     1       2.314   1.331  -0.052  0.00  0.00    +0.029 C 
ATOM     11  C   UNL     1       2.451  -0.144  -0.543  0.00  0.00    +0.051 C 
ATOM     12  C   UNL     1       3.731  -0.567   0.076  0.00  0.00    -0.023 C 
ATOM     13  C   UNL     1       4.514   0.485   0.210  0.00  0.00    -0.030 C 
ATOM     14  C   UNL     1       3.776   1.742  -0.258  0.00  0.00    +0.033 C 
ATOM     15  H   UNL     1      -0.938   1.927  -0.609  0.00  0.00    +0.147 HD
ENDROOT
BRANCH   9  16
ATOM     16  C   UNL     1       1.198   3.429  -0.740  0.00  0.00    +0.022 A 
ATOM     17  C   UNL     1       1.717   4.314  -1.700  0.00  0.00    -0.009 A 
ATOM     18  C   UNL     1       2.310   3.839  -2.883  0.00  0.00    +0.009 A 
ATOM     19  C   UNL     1       2.802   4.724  -3.791  0.00  0.00    +0.001 A 
ATOM     20  C   UNL     1       2.728   6.098  -3.567  0.00  0.00    +0.001 A 
ATOM     21  C   UNL     1       2.151   6.594  -2.439  0.00  0.00    +0.008 A 
ATOM     22  C   UNL     1       1.637   5.711  -1.474  0.00  0.00    -0.017 A 
ATOM     23  C   UNL     1       1.050   6.187  -0.289  0.00  0.00    +0.012 A 
ATOM     24  C   UNL     1       0.561   5.305   0.623  0.00  0.00    +0.046 A 
ATOM     25  C   UNL     1       0.634   3.926   0.401  0.00  0.00    +0.126 A 
BRANCH  25  26
ATOM     26  O   UNL     1       0.137   3.070   1.331  0.00  0.00    -0.495 OA
ATOM     27  C   UNL     1      -0.440   3.649   2.503  0.00  0.00    +0.277 C 
ENDBRANCH  25  26
ENDBRANCH   9  16
BRANCH   5  28
ATOM     28  N   UNL     1       2.342  -2.947   0.155  0.00  0.00    +0.057 N 
ATOM     29  O   UNL     1       3.151  -2.909  -0.754  0.00  0.00    -0.126 OA
ATOM     30  O   UNL     1       2.556  -3.643   1.131  0.00  0.00    -0.126 OA
ENDBRANCH   5  28
TORSDOF 3
