REMARK  Name = ZINC13065155
REMARK  16 active torsions:
REMARK  status: ('A' for Active; 'I' for Inactive)
REMARK    1  A    between atoms: C_1  and  C_2
REMARK    2  A    between atoms: C_2  and  C_3
REMARK    3  A    between atoms: C_3  and  C_5
REMARK    4  A    between atoms: C_3  and  N_71
REMARK    5  A    between atoms: N_9  and  C_10
REMARK    6  A    between atoms: C_10  and  C_11
REMARK    7  A    between atoms: C_11  and  O_13
REMARK    8  A    between atoms: O_13  and  C_14
REMARK    9  A    between atoms: C_14  and  C_15
REMARK   10  A    between atoms: C_16  and  C_17
REMARK   11  A    between atoms: C_16  and  N_71
REMARK   12  A    between atoms: C_20  and  C_23
REMARK   13  A    between atoms: C_24  and  C_25
REMARK   14  A    between atoms: C_24  and  N_71
REMARK   15  A    between atoms: C_30  and  C_38
REMARK   16  A    between atoms: C_31  and  C_37
REMARK                            x       y       z     vdW  Elec       q    Type
REMARK                         _______ _______ _______ _____ _____    ______ ____
ROOT
ATOM      1  N   UNL     1      -1.839   2.041  -0.953  0.00  0.00    +0.392 N 
ATOM      2  H   UNL     1      -1.932   1.108  -1.371  0.00  0.00    -0.080 HD
ENDROOT
BRANCH   1   3
ATOM      3  C   UNL     1      -3.152   2.719  -0.996  0.00  0.00    +0.003 C 
BRANCH   3   4
ATOM      4  C   UNL     1      -3.112   3.997  -0.198  0.00  0.00    +0.139 A 
ATOM      5  N   UNL     1      -2.586   4.161   0.991  0.00  0.00    -0.115 NA
ATOM      6  N   UNL     1      -2.752   5.392   1.333  0.00  0.00    -0.023 NA
ATOM      7  N   UNL     1      -3.372   6.017   0.394  0.00  0.00    -0.043 NA
ATOM      8  N   UNL     1      -3.607   5.192  -0.570  0.00  0.00    -0.220 N 
BRANCH   8   9
ATOM      9  C   UNL     1      -4.287   5.498  -1.831  0.00  0.00    +0.267 C 
BRANCH   9  10
ATOM     10  C   UNL     1      -5.775   5.348  -1.648  0.00  0.00    +0.329 C 
ATOM     11  O   UNL     1      -6.222   5.019  -0.575  0.00  0.00    -0.249 OA
BRANCH  10  12
ATOM     12  O   UNL     1      -6.605   5.580  -2.678  0.00  0.00    -0.464 OA
BRANCH  12  13
ATOM     13  C   UNL     1      -8.026   5.416  -2.429  0.00  0.00    +0.229 C 
ATOM     14  C   UNL     1      -8.806   5.721  -3.710  0.00  0.00    +0.048 C 
ENDBRANCH  12  13
ENDBRANCH  10  12
ENDBRANCH   9  10
ENDBRANCH   8   9
ENDBRANCH   3   4
BRANCH   3  16
ATOM     15  C   UNL     1      -4.351   0.548  -1.301  0.00  0.00    +0.002 C 
ATOM     16  C   UNL     1      -4.209   1.783  -0.408  0.00  0.00    -0.011 C 
ENDBRANCH   3  16
ENDBRANCH   1   3
BRANCH   1  17
ATOM     17  C   UNL     1      -0.845   2.816  -1.725  0.00  0.00    -0.042 C 
BRANCH  17  18
ATOM     18  C   UNL     1      -1.122   2.632  -3.195  0.00  0.00    -0.064 A 
ATOM     19  C   UNL     1      -0.615   1.532  -3.861  0.00  0.00    +0.002 A 
ATOM     20  C   UNL     1      -0.874   1.360  -5.208  0.00  0.00    +0.003 A 
ATOM     21  C   UNL     1      -1.631   2.293  -5.891  0.00  0.00    -0.050 A 
ATOM     22  C   UNL     1      -2.134   3.396  -5.226  0.00  0.00    +0.003 A 
ATOM     23  C   UNL     1      -1.879   3.565  -3.878  0.00  0.00    +0.002 A 
ATOM     24  C   UNL     1      -1.909   2.109  -7.361  0.00  0.00    +0.044 C 
ENDBRANCH  17  18
ENDBRANCH   1  17
BRANCH   1  25
ATOM     25  C   UNL     1      -1.390   1.897   0.448  0.00  0.00    -0.036 C 
BRANCH  25  26
ATOM     26  C   UNL     1      -0.286   0.873   0.498  0.00  0.00    +0.001 A 
ATOM     27  C   UNL     1       1.009   1.273   0.466  0.00  0.00    +0.017 A 
ATOM     28  C   UNL     1       2.058   0.253   0.511  0.00  0.00    -0.001 A 
ATOM     29  C   UNL     1       3.412   0.605   0.481  0.00  0.00    +0.010 A 
ATOM     30  C   UNL     1       4.366  -0.371   0.524  0.00  0.00    +0.004 A 
ATOM     31  C   UNL     1       4.005  -1.710   0.598  0.00  0.00    -0.046 A 
ATOM     32  C   UNL     1       2.678  -2.080   0.629  0.00  0.00    -0.024 A 
ATOM     33  C   UNL     1       1.688  -1.103   0.586  0.00  0.00    +0.052 A 
ATOM     34  N   UNL     1       0.353  -1.445   0.616  0.00  0.00    -0.322 N 
ATOM     35  H   UNL     1       0.100  -2.380   0.667  0.00  0.00    +0.169 HD
ATOM     36  C   UNL     1      -0.604  -0.500   0.574  0.00  0.00    +0.251 A 
ATOM     37  O   UNL     1      -1.774  -0.839   0.602  0.00  0.00    -0.268 OA
ATOM     38  C   UNL     1       2.300  -3.536   0.710  0.00  0.00    +0.046 C 
ATOM     39  C   UNL     1       5.076  -2.770   0.645  0.00  0.00    +0.044 C 
ENDBRANCH  25  26
ENDBRANCH   1  25
TORSDOF 11
