REMARK  Name = ZINC14551110
REMARK  5 active torsions:
REMARK  status: ('A' for Active; 'I' for Inactive)
REMARK    1  A    between atoms: C_3  and  N_33
REMARK    2  A    between atoms: C_6  and  C_7
REMARK    3  A    between atoms: C_18  and  C_23
REMARK    4  A    between atoms: N_25  and  C_26
REMARK    5  A    between atoms: C_26  and  C_27
REMARK                            x       y       z     vdW  Elec       q    Type
REMARK                         _______ _______ _______ _____ _____    ______ ____
ROOT
ATOM      1  C   UNL     1      -2.264   3.211  -8.238  0.00  0.00    +0.105 C 
ATOM      2  C   UNL     1      -1.565   1.891  -8.503  0.00  0.00    +0.029 C 
ATOM      3  C   UNL     1      -2.570   0.715  -8.470  0.00  0.00    +0.033 C 
ATOM      4  C   UNL     1      -1.706  -0.457  -8.040  0.00  0.00    -0.030 C 
ATOM      5  C   UNL     1      -0.631  -0.032  -7.423  0.00  0.00    -0.023 C 
ATOM      6  C   UNL     1      -0.627   1.489  -7.350  0.00  0.00    +0.049 C 
ATOM      7  C   UNL     1      -1.177   1.877  -6.004  0.00  0.00    -0.019 A 
ATOM      8  C   UNL     1      -0.513   1.424  -4.878  0.00  0.00    +0.019 A 
ATOM      9  C   UNL     1      -0.982   1.747  -3.604  0.00  0.00    +0.037 A 
ATOM     10  C   UNL     1      -2.131   2.530  -3.461  0.00  0.00    +0.015 A 
ATOM     11  C   UNL     1      -2.786   2.986  -4.582  0.00  0.00    +0.024 A 
ATOM     12  C   UNL     1      -2.312   2.659  -5.851  0.00  0.00    +0.031 A 
ATOM     13  N   UNL     1      -2.996   3.133  -6.969  0.00  0.00    -0.336 N 
ATOM     14  H   UNL     1      -3.926   3.403  -6.910  0.00  0.00    +0.147 HD
ENDROOT
BRANCH   1  20
ATOM     15  C   UNL     1      -0.520   4.506  -6.994  0.00  0.00    +0.008 A 
ATOM     16  C   UNL     1       0.423   5.514  -6.923  0.00  0.00    +0.033 A 
ATOM     17  C   UNL     1       0.641   6.336  -8.014  0.00  0.00    +0.126 A 
ATOM     18  C   UNL     1      -0.082   6.146  -9.177  0.00  0.00    +0.033 A 
ATOM     19  C   UNL     1      -1.022   5.135  -9.249  0.00  0.00    +0.008 A 
ATOM     20  C   UNL     1      -1.239   4.313  -8.159  0.00  0.00    -0.027 A 
BRANCH  17  21
ATOM     21  N   UNL     1       1.647   7.418  -7.936  0.00  0.00    +0.056 N 
ATOM     22  O   UNL     1       1.839   8.142  -8.897  0.00  0.00    -0.126 OA
ATOM     23  O   UNL     1       2.284   7.586  -6.911  0.00  0.00    -0.126 OA
ENDBRANCH  17  21
ENDBRANCH   1  20
BRANCH   9  24
ATOM     24  C   UNL     1      -0.268   1.258  -2.409  0.00  0.00    +0.244 C 
ATOM     25  O   UNL     1       0.729   0.574  -2.534  0.00  0.00    -0.270 OA
ATOM     26  N   UNL     1      -0.721   1.571  -1.179  0.00  0.00    -0.309 N 
ATOM     27  H   UNL     1      -1.516   2.118  -1.079  0.00  0.00    +0.149 HD
BRANCH  26  28
ATOM     28  C   UNL     1      -0.013   1.086   0.008  0.00  0.00    +0.136 C 
BRANCH  28  29
ATOM     29  C   UNL     1      -0.729   1.579   1.267  0.00  0.00    +0.135 C 
ATOM     30  C   UNL     1       0.050   1.152   2.531  0.00  0.00    +0.035 C 
ATOM     31  C   UNL     1      -1.056   0.811   3.555  0.00  0.00    +0.031 C 
ATOM     32  C   UNL     1      -2.371   1.072   2.789  0.00  0.00    +0.160 C 
ATOM     33  O   UNL     1      -2.019   0.944   1.393  0.00  0.00    -0.375 OA
ENDBRANCH  28  29
ENDBRANCH  26  28
ENDBRANCH   9  24
TORSDOF 5
