REMARK  Name = ZINC10272246
REMARK  5 active torsions:
REMARK  status: ('A' for Active; 'I' for Inactive)
REMARK    1  A    between atoms: C_1  and  C_2
REMARK    2  A    between atoms: C_10  and  O_32
REMARK    3  A    between atoms: C_21  and  C_22
REMARK    4  A    between atoms: C_25  and  O_28
REMARK    5  A    between atoms: O_28  and  C_29
REMARK                            x       y       z     vdW  Elec       q    Type
REMARK                         _______ _______ _______ _____ _____    ______ ____
ROOT
ATOM      1  C   UNL     1       0.017   1.091   0.014  0.00  0.00    +0.020 C 
ATOM      2  C   UNL     1      -0.733   1.564   1.261  0.00  0.00    +0.034 C 
ATOM      3  C   UNL     1      -0.824   3.087   1.296  0.00  0.00    +0.015 C 
ATOM      4  C   UNL     1      -1.494   3.623   0.041  0.00  0.00    +0.009 C 
ATOM      5  C   UNL     1      -2.593   2.686  -0.460  0.00  0.00    +0.023 C 
ATOM      6  C   UNL     1      -3.698   3.544  -1.040  0.00  0.00    -0.041 A 
ATOM      7  C   UNL     1      -3.549   3.996  -2.343  0.00  0.00    +0.008 A 
ATOM      8  C   UNL     1      -4.510   4.802  -2.917  0.00  0.00    +0.046 A 
ATOM      9  C   UNL     1      -5.632   5.160  -2.183  0.00  0.00    +0.117 A 
ATOM     10  C   UNL     1      -5.780   4.702  -0.886  0.00  0.00    +0.049 A 
ATOM     11  C   UNL     1      -4.813   3.887  -0.309  0.00  0.00    -0.040 A 
ATOM     12  C   UNL     1      -5.052   3.420   1.103  0.00  0.00    +0.036 C 
ATOM     13  C   UNL     1      -3.778   2.835   1.713  0.00  0.00    +0.009 C 
ATOM     14  C   UNL     1      -3.167   1.874   0.695  0.00  0.00    +0.001 C 
ATOM     15  C   UNL     1      -2.144   0.952   1.320  0.00  0.00    +0.010 C 
ATOM     16  C   UNL     1      -2.395   0.809   2.834  0.00  0.00    +0.043 C 
ATOM     17  C   UNL     1      -1.019   0.650   3.444  0.00  0.00    -0.004 C 
ATOM     18  C   UNL     1      -0.763   0.167   4.685  0.00  0.00    +0.015 C 
ATOM     19  C   UNL     1      -0.047   1.082   2.522  0.00  0.00    +0.165 C 
ATOM     20  O   UNL     1       1.154   1.070   2.709  0.00  0.00    -0.292 OA
ENDROOT
BRANCH  18  21
ATOM     21  C   UNL     1      -1.871  -0.112   5.607  0.00  0.00    -0.024 A 
ATOM     22  C   UNL     1      -3.083   0.579   5.479  0.00  0.00    +0.011 A 
ATOM     23  C   UNL     1      -4.120   0.309   6.343  0.00  0.00    +0.046 A 
ATOM     24  C   UNL     1      -3.962  -0.639   7.348  0.00  0.00    +0.120 A 
ATOM     25  C   UNL     1      -2.760  -1.325   7.482  0.00  0.00    +0.046 A 
ATOM     26  C   UNL     1      -1.718  -1.067   6.620  0.00  0.00    +0.011 A 
BRANCH  24  27
ATOM     27  O   UNL     1      -4.986  -0.897   8.201  0.00  0.00    -0.495 OA
ATOM     28  C   UNL     1      -6.193  -0.158   8.008  0.00  0.00    +0.277 C 
ENDBRANCH  24  27
ENDBRANCH  18  21
BRANCH   9  29
ATOM     29  O   UNL     1      -6.583   5.957  -2.738  0.00  0.00    -0.507 OA
ATOM     30  H   UNL     1      -7.282   5.473  -3.198  0.00  0.00    +0.292 HD
ENDBRANCH   9  29
TORSDOF 3
