REMARK  Name = ZINC02326785
REMARK  8 active torsions:
REMARK  status: ('A' for Active; 'I' for Inactive)
REMARK    1  A    between atoms: C_1  and  C_2
REMARK    2  A    between atoms: C_2  and  C_3
REMARK    3  A    between atoms: C_2  and  C_4
REMARK    4  A    between atoms: C_2  and  C_5
REMARK    5  A    between atoms: C_8  and  C_11
REMARK    6  A    between atoms: N_15  and  N_16
REMARK    7  A    between atoms: C_17  and  C_18
REMARK    8  A    between atoms: C_20  and  N_25
REMARK                            x       y       z     vdW  Elec       q    Type
REMARK                         _______ _______ _______ _____ _____    ______ ____
ROOT
ATOM      1  C   UNL     1      -4.428  -0.759  -1.080  0.00  0.00    +0.184 A 
ATOM      2  N   UNL     1      -5.489  -1.387  -0.626  0.00  0.00    -0.152 NA
ATOM      3  N   UNL     1      -5.480  -1.393   0.659  0.00  0.00    -0.253 N 
ATOM      4  C   UNL     1      -4.411  -0.773   1.107  0.00  0.00    +0.197 A 
ATOM      5  N   UNL     1      -3.706  -0.342   0.016  0.00  0.00    -0.188 N 
ATOM      6  S   UNL     1      -3.970  -0.540   2.797  0.00  0.00    -0.010 S 
ATOM      7  H   UNL     1      -6.300  -1.875   1.212  0.00  0.00    +0.191 HD
ENDROOT
BRANCH   1  11
ATOM      8  C   UNL     1      -3.419  -0.131  -5.158  0.00  0.00    -0.042 A 
ATOM      9  C   UNL     1      -4.385  -1.063  -4.823  0.00  0.00    +0.005 A 
ATOM     10  C   UNL     1      -4.718  -1.272  -3.501  0.00  0.00    +0.012 A 
ATOM     11  C   UNL     1      -4.077  -0.540  -2.499  0.00  0.00    +0.021 A 
ATOM     12  C   UNL     1      -3.107   0.403  -2.844  0.00  0.00    +0.012 A 
ATOM     13  C   UNL     1      -2.780   0.598  -4.170  0.00  0.00    +0.005 A 
BRANCH   8  15
ATOM     14  C   UNL     1      -4.301   0.551  -7.372  0.00  0.00    +0.015 C 
ATOM     15  C   UNL     1      -3.060   0.092  -6.604  0.00  0.00    -0.013 C 
ATOM     16  C   UNL     1      -1.974   1.165  -6.701  0.00  0.00    +0.015 C 
ATOM     17  C   UNL     1      -2.541  -1.215  -7.208  0.00  0.00    +0.015 C 
ENDBRANCH   8  15
ENDBRANCH   1  11
BRANCH   5  18
ATOM     18  N   UNL     1      -2.499   0.370   0.015  0.00  0.00    -0.170 NA
ATOM     19  C   UNL     1      -2.510   1.667   0.022  0.00  0.00    +0.142 C 
BRANCH  19  20
ATOM     20  C   UNL     1      -1.240   2.416   0.021  0.00  0.00    +0.015 A 
ATOM     21  C   UNL     1      -1.249   3.813   0.035  0.00  0.00    +0.043 A 
ATOM     22  C   UNL     1      -0.057   4.507   0.027  0.00  0.00    +0.127 A 
ATOM     23  C   UNL     1       1.146   3.823   0.012  0.00  0.00    +0.034 A 
ATOM     24  C   UNL     1       1.164   2.440   0.004  0.00  0.00    +0.023 A 
ATOM     25  C   UNL     1      -0.021   1.732   0.012  0.00  0.00    +0.050 A 
ATOM     26 CL   UNL     1       0.002  -0.004   0.002  0.00  0.00    -0.083 Cl
BRANCH  22  27
ATOM     27  N   UNL     1      -0.065   5.987   0.036  0.00  0.00    +0.056 N 
ATOM     28  O   UNL     1       0.987   6.602   0.030  0.00  0.00    -0.126 OA
ATOM     29  O   UNL     1      -1.123   6.590   0.050  0.00  0.00    -0.126 OA
ENDBRANCH  22  27
ENDBRANCH  19  20
ENDBRANCH   5  18
TORSDOF 5
