REMARK  Name = ZINC61360412
REMARK  4 active torsions:
REMARK  status: ('A' for Active; 'I' for Inactive)
REMARK    1  A    between atoms: C_3  and  S_9
REMARK    2  A    between atoms: C_6  and  N_7
REMARK    3  A    between atoms: S_9  and  N_12
REMARK    4  A    between atoms: N_12  and  C_13
REMARK                            x       y       z     vdW  Elec       q    Type
REMARK                         _______ _______ _______ _____ _____    ______ ____
ROOT
ATOM      1  S   UNL     1       3.949   2.339  -0.047  0.00  0.00    +0.060 S 
ATOM      2  O   UNL     1       4.900   1.854  -0.985  0.00  0.00    -0.153 OA
ATOM      3  O   UNL     1       3.467   3.676  -0.072  0.00  0.00    -0.153 OA
ENDROOT
BRANCH   1   6
ATOM      4  C   UNL     1       1.411  -0.550  -1.210  0.00  0.00    +0.025 A 
ATOM      5  C   UNL     1       2.517   0.273  -1.108  0.00  0.00    +0.031 A 
ATOM      6  C   UNL     1       2.537   1.292  -0.174  0.00  0.00    +0.119 A 
ATOM      7  C   UNL     1       1.451   1.493   0.660  0.00  0.00    +0.046 A 
ATOM      8  C   UNL     1       0.343   0.673   0.562  0.00  0.00    +0.040 A 
ATOM      9  C   UNL     1       0.320  -0.351  -0.375  0.00  0.00    +0.026 A 
ATOM     10 BR   UNL     1       1.485   2.889   1.935  0.00  0.00    -0.048 Br
BRANCH   9  11
ATOM     11  N   UNL     1      -0.799  -1.181  -0.477  0.00  0.00    -0.358 N 
ATOM     12  H   UNL     1      -0.814  -1.897  -1.131  0.00  0.00    +0.142 HD
ATOM     13  H   UNL     1      -1.561  -1.042   0.107  0.00  0.00    +0.142 HD
ENDBRANCH   9  11
ENDBRANCH   1   6
BRANCH   1  14
ATOM     14  N   UNL     1       4.602   2.099   1.456  0.00  0.00    -0.183 NA
ATOM     15  H   UNL     1       4.617   2.825   2.099  0.00  0.00    +0.149 HD
BRANCH  14  16
ATOM     16  C   UNL     1       5.156   0.791   1.814  0.00  0.00    +0.107 C 
ATOM     17  C   UNL     1       4.845   0.487   3.280  0.00  0.00    +0.025 C 
ATOM     18  C   UNL     1       5.606   1.456   4.190  0.00  0.00    +0.007 C 
ATOM     19  C   UNL     1       7.102   1.112   4.132  0.00  0.00    +0.043 C 
ATOM     20  C   UNL     1       7.493   0.954   2.699  0.00  0.00    -0.005 A 
ATOM     21  C   UNL     1       6.669   0.807   1.623  0.00  0.00    -0.019 A 
ATOM     22  C   UNL     1       7.282   0.677   0.376  0.00  0.00    +0.013 A 
ATOM     23  C   UNL     1       8.631   0.699   0.279  0.00  0.00    +0.046 A 
ATOM     24  S   UNL     1       9.119   0.910   1.994  0.00  0.00    -0.101 S 
ENDBRANCH  14  16
ENDBRANCH   1  14
TORSDOF 4
