REMARK  Name = ZINC00695236
REMARK  11 active torsions:
REMARK  status: ('A' for Active; 'I' for Inactive)
REMARK    1  A    between atoms: C_1  and  C_2
REMARK    2  A    between atoms: C_2  and  C_3
REMARK    3  A    between atoms: C_4  and  C_31
REMARK    4  A    between atoms: C_5  and  N_10
REMARK    5  A    between atoms: C_7  and  C_9
REMARK    6  A    between atoms: N_13  and  S_16
REMARK    7  A    between atoms: S_16  and  C_19
REMARK    8  A    between atoms: C_19  and  C_20
REMARK    9  A    between atoms: C_25  and  C_26
REMARK   10  A    between atoms: C_25  and  C_27
REMARK   11  A    between atoms: C_31  and  C_32
REMARK                            x       y       z     vdW  Elec       q    Type
REMARK                         _______ _______ _______ _____ _____    ______ ____
ROOT
ATOM      1  N   UNL     1      -0.049   1.617   0.058  0.00  0.00    -0.312 N 
ATOM      2  C   UNL     1      -1.206   2.236  -0.602  0.00  0.00    +0.123 C 
ATOM      3  C   UNL     1      -1.241   3.731  -0.269  0.00  0.00    +0.128 C 
ATOM      4  N   UNL     1       0.062   4.318  -0.618  0.00  0.00    -0.178 NA
ATOM      5  C   UNL     1       1.278   3.669  -0.105  0.00  0.00    +0.128 C 
ATOM      6  C   UNL     1       1.213   2.176  -0.444  0.00  0.00    +0.123 C 
ENDROOT
BRANCH   1   9
ATOM      7  C   UNL     1      -0.363  -1.950   0.815  0.00  0.00    +0.050 A 
ATOM      8  C   UNL     1      -0.350  -0.583   1.009  0.00  0.00    +0.018 A 
ATOM      9  C   UNL     1      -0.074   0.239  -0.085  0.00  0.00    +0.129 A 
ATOM     10  N   UNL     1       0.160  -0.321  -1.268  0.00  0.00    -0.217 NA
ATOM     11  C   UNL     1       0.142  -1.631  -1.407  0.00  0.00    +0.128 A 
ATOM     12  N   UNL     1      -0.116  -2.434  -0.394  0.00  0.00    -0.237 NA
ATOM     13  C   UNL     1       0.418  -2.228  -2.763  0.00  0.00    +0.088 C 
BRANCH   7  15
ATOM     14  C   UNL     1      -2.146  -3.227   1.972  0.00  0.00    +0.010 C 
ATOM     15  C   UNL     1      -0.656  -2.881   1.963  0.00  0.00    +0.052 C 
ENDBRANCH   7  15
BRANCH   8  16
ATOM     16  C   UNL     1      -0.627   0.007   2.368  0.00  0.00    +0.075 C 
BRANCH  16  17
ATOM     17  C   UNL     1       0.676   0.266   3.078  0.00  0.00    -0.043 A 
ATOM     18  C   UNL     1       1.216  -0.700   3.907  0.00  0.00    +0.004 A 
ATOM     19  C   UNL     1       2.414  -0.465   4.555  0.00  0.00    +0.000 A 
ATOM     20  C   UNL     1       3.068   0.741   4.382  0.00  0.00    +0.000 A 
ATOM     21  C   UNL     1       2.525   1.710   3.558  0.00  0.00    +0.000 A 
ATOM     22  C   UNL     1       1.330   1.472   2.906  0.00  0.00    +0.004 A 
ENDBRANCH  16  17
ENDBRANCH   8  16
ENDBRANCH   1   9
BRANCH   4  23
ATOM     23  S   UNL     1       0.157   5.674  -1.564  0.00  0.00    +0.033 S 
ATOM     24  O   UNL     1      -1.077   6.347  -1.359  0.00  0.00    -0.158 OA
ATOM     25  O   UNL     1       1.386   6.286  -1.198  0.00  0.00    -0.158 OA
BRANCH  23  26
ATOM     26  C   UNL     1       0.253   5.050  -3.265  0.00  0.00    +0.200 C 
BRANCH  26  27
ATOM     27  C   UNL     1       0.345   6.228  -4.236  0.00  0.00    +0.055 C 
ATOM     28  C   UNL     1      -0.873   7.202  -4.242  0.00  0.00    +0.017 C 
ATOM     29  C   UNL     1      -0.749   7.941  -5.616  0.00  0.00    +0.005 C 
ATOM     30  C   UNL     1       0.535   7.345  -6.271  0.00  0.00    +0.003 C 
ATOM     31  C   UNL     1       0.458   5.862  -5.758  0.00  0.00    -0.018 C 
ATOM     32  C   UNL     1       1.745   5.096  -6.072  0.00  0.00    +0.012 C 
ATOM     33  C   UNL     1      -0.781   5.124  -6.266  0.00  0.00    +0.012 C 
ATOM     34  C   UNL     1       1.703   7.883  -5.389  0.00  0.00    +0.079 C 
ATOM     35  C   UNL     1       1.568   7.141  -4.067  0.00  0.00    +0.142 C 
ATOM     36  O   UNL     1       2.273   7.247  -3.092  0.00  0.00    -0.297 OA
ENDBRANCH  26  27
ENDBRANCH  23  26
ENDBRANCH   4  23
TORSDOF 7
