REMARK  Name = ZINC63269574
REMARK  7 active torsions:
REMARK  status: ('A' for Active; 'I' for Inactive)
REMARK    1  A    between atoms: C_1  and  C_2
REMARK    2  A    between atoms: N_5  and  C_13
REMARK    3  A    between atoms: C_13  and  C_14
REMARK    4  A    between atoms: N_16  and  N_17
REMARK    5  A    between atoms: N_20  and  C_21
REMARK    6  A    between atoms: C_21  and  C_22
REMARK    7  A    between atoms: C_21  and  C_23
REMARK                            x       y       z     vdW  Elec       q    Type
REMARK                         _______ _______ _______ _____ _____    ______ ____
ROOT
ATOM      1  C   UNL     1       2.748  -1.105  -2.435  0.00  0.00    +0.211 C 
ENDROOT
BRANCH   1   6
ATOM      2  C   UNL     1      -0.019   1.526   0.010  0.00  0.00    +0.062 C 
ATOM      3  C   UNL     1       0.002  -0.004   0.002  0.00  0.00    +0.256 C 
ATOM      4  C   UNL     1       0.704  -0.490  -1.241  0.00  0.00    +0.261 C 
ATOM      5  O   UNL     1       0.070  -0.718  -2.249  0.00  0.00    -0.271 OA
ATOM      6  N   UNL     1       2.043  -0.669  -1.226  0.00  0.00    -0.256 N 
ATOM      7  C   UNL     1       2.748  -0.433  -0.038  0.00  0.00    +0.079 A 
ATOM      8  C   UNL     1       4.125  -0.291  -0.048  0.00  0.00    +0.027 A 
ATOM      9  C   UNL     1       4.802  -0.059   1.136  0.00  0.00    +0.002 A 
ATOM     10  C   UNL     1       4.106   0.031   2.328  0.00  0.00    +0.004 A 
ATOM     11  C   UNL     1       2.731  -0.109   2.344  0.00  0.00    +0.047 A 
ATOM     12  C   UNL     1       2.047  -0.340   1.163  0.00  0.00    +0.143 A 
ATOM     13  O   UNL     1       0.694  -0.477   1.161  0.00  0.00    -0.478 OA
ENDBRANCH   1   6
BRANCH   1  14
ATOM     14  C   UNL     1       3.175   0.102  -3.230  0.00  0.00    +0.247 C 
ATOM     15  O   UNL     1       2.917   1.216  -2.827  0.00  0.00    -0.273 OA
ATOM     16  N   UNL     1       3.845  -0.058  -4.388  0.00  0.00    -0.232 N 
ATOM     17  H   UNL     1       4.051  -0.949  -4.711  0.00  0.00    +0.173 HD
BRANCH  16  18
ATOM     18  N   UNL     1       4.242   1.064  -5.128  0.00  0.00    -0.218 N 
ATOM     19  C   UNL     1       4.912   0.905  -6.286  0.00  0.00    +0.316 C 
ATOM     20  O   UNL     1       5.257   1.879  -6.928  0.00  0.00    -0.251 OA
ATOM     21  N   UNL     1       5.199  -0.333  -6.734  0.00  0.00    -0.296 N 
ATOM     22  H   UNL     1       4.036   1.956  -4.805  0.00  0.00    +0.174 HD
ATOM     23  H   UNL     1       4.924  -1.110  -6.223  0.00  0.00    +0.151 HD
BRANCH  21  24
ATOM     24  C   UNL     1       5.927  -0.506  -7.994  0.00  0.00    +0.068 C 
ATOM     25  C   UNL     1       6.655  -1.851  -7.981  0.00  0.00    +0.027 C 
ATOM     26  C   UNL     1       4.940  -0.471  -9.162  0.00  0.00    +0.027 C 
ENDBRANCH  21  24
ENDBRANCH  16  18
ENDBRANCH   1  14
TORSDOF 4
