REMARK  Name = ZINC50673103
REMARK  6 active torsions:
REMARK  status: ('A' for Active; 'I' for Inactive)
REMARK    1  A    between atoms: C_3  and  S_11
REMARK    2  A    between atoms: C_4  and  N_10
REMARK    3  A    between atoms: C_6  and  N_7
REMARK    4  A    between atoms: S_11  and  N_14
REMARK    5  A    between atoms: N_14  and  C_15
REMARK    6  A    between atoms: C_15  and  C_16
REMARK                            x       y       z     vdW  Elec       q    Type
REMARK                         _______ _______ _______ _____ _____    ______ ____
ROOT
ATOM      1  C   UNL     1       1.208  -0.707  -0.489  0.00  0.00    +0.035 A 
ATOM      2  C   UNL     1       2.324   0.101  -0.611  0.00  0.00    +0.032 A 
ATOM      3  C   UNL     1       2.451   1.228   0.175  0.00  0.00    +0.126 A 
ATOM      4  C   UNL     1       1.457   1.551   1.090  0.00  0.00    +0.053 A 
ATOM      5  C   UNL     1       0.338   0.737   1.210  0.00  0.00    +0.057 A 
ATOM      6  C   UNL     1       0.217  -0.389   0.420  0.00  0.00    +0.128 A 
ENDROOT
BRANCH   6   7
ATOM      7  N   UNL     1      -0.976  -1.257   0.547  0.00  0.00    +0.056 N 
ATOM      8  O   UNL     1      -1.082  -2.243  -0.145  0.00  0.00    -0.126 OA
ATOM      9  O   UNL     1      -1.843  -0.979   1.342  0.00  0.00    -0.126 OA
ENDBRANCH   6   7
BRANCH   4  10
ATOM     10  N   UNL     1       1.583   2.690   1.888  0.00  0.00    -0.356 N 
ATOM     11  H   UNL     1       2.334   3.291   1.761  0.00  0.00    +0.142 HD
ATOM     12  H   UNL     1       0.919   2.881   2.569  0.00  0.00    +0.142 HD
ENDBRANCH   4  10
BRANCH   3  13
ATOM     13  S   UNL     1       3.874   2.257   0.020  0.00  0.00    +0.060 S 
ATOM     14  O   UNL     1       4.715   1.643  -0.947  0.00  0.00    -0.153 OA
ATOM     15  O   UNL     1       3.398   3.589  -0.121  0.00  0.00    -0.153 OA
BRANCH  13  16
ATOM     16  N   UNL     1       4.684   2.193   1.462  0.00  0.00    -0.190 NA
ATOM     17  H   UNL     1       4.764   2.990   2.009  0.00  0.00    +0.148 HD
BRANCH  16  18
ATOM     18  C   UNL     1       5.280   0.933   1.913  0.00  0.00    +0.111 C 
BRANCH  18  19
ATOM     19  C   UNL     1       6.276   1.214   3.040  0.00  0.00    +0.030 C 
ATOM     20  C   UNL     1       6.809  -0.111   3.594  0.00  0.00    +0.009 C 
ATOM     21  C   UNL     1       7.862   0.183   4.667  0.00  0.00    +0.028 C 
ATOM     22  C   UNL     1       8.970   1.047   4.060  0.00  0.00    +0.160 C 
ATOM     23  O   UNL     1       8.402   2.249   3.536  0.00  0.00    -0.379 OA
ATOM     24  C   UNL     1       7.445   2.039   2.496  0.00  0.00    +0.164 C 
ENDBRANCH  18  19
ENDBRANCH  16  18
ENDBRANCH  13  16
ENDBRANCH   3  13
TORSDOF 6
