REMARK  Name = ZINC32594717
REMARK  4 active torsions:
REMARK  status: ('A' for Active; 'I' for Inactive)
REMARK    1  A    between atoms: C_3  and  O_22
REMARK    2  A    between atoms: C_6  and  C_7
REMARK    3  A    between atoms: N_10  and  C_11
REMARK    4  A    between atoms: C_14  and  O_17
REMARK                            x       y       z     vdW  Elec       q    Type
REMARK                         _______ _______ _______ _____ _____    ______ ____
ROOT
ATOM      1  C   UNL     1       1.977  -0.158  -1.599  0.00  0.00    +0.026 C 
ATOM      2  C   UNL     1       2.008   1.127  -1.165  0.00  0.00    +0.058 C 
ATOM      3  C   UNL     1       1.071   1.837  -0.271  0.00  0.00    +0.140 C 
ATOM      4  N   UNL     1       0.015   1.245   0.243  0.00  0.00    -0.231 NA
ATOM      5  N   UNL     1       1.368   3.137  -0.007  0.00  0.00    -0.260 N 
ATOM      6  C   UNL     1       2.457   3.719  -0.547  0.00  0.00    +0.282 C 
ATOM      7  O   UNL     1       2.847   4.862  -0.404  0.00  0.00    -0.262 OA
ATOM      8  S   UNL     1       3.190   2.417  -1.522  0.00  0.00    -0.028 S 
ATOM      9  H   UNL     1       0.716   3.727   0.654  0.00  0.00    +0.157 HD
ENDROOT
BRANCH   1  15
ATOM     10  C   UNL     1       4.327  -0.001  -2.396  0.00  0.00    +0.011 A 
ATOM     11  C   UNL     1       5.401  -0.530  -3.077  0.00  0.00    +0.046 A 
ATOM     12  C   UNL     1       5.289  -1.764  -3.706  0.00  0.00    +0.117 A 
ATOM     13  C   UNL     1       4.096  -2.474  -3.647  0.00  0.00    +0.046 A 
ATOM     14  C   UNL     1       3.017  -1.958  -2.964  0.00  0.00    +0.011 A 
ATOM     15  C   UNL     1       3.124  -0.715  -2.329  0.00  0.00    -0.024 A 
BRANCH  12  16
ATOM     16  O   UNL     1       6.350  -2.278  -4.381  0.00  0.00    -0.507 OA
ATOM     17  H   UNL     1       6.263  -3.255  -4.880  0.00  0.00    +0.292 HD
ENDBRANCH  12  16
ENDBRANCH   1  15
BRANCH   4  18
ATOM     18  C   UNL     1      -0.238  -0.067  -0.039  0.00  0.00    +0.066 A 
ATOM     19  C   UNL     1      -1.243  -0.407  -0.949  0.00  0.00    +0.031 A 
ATOM     20  C   UNL     1      -1.491  -1.733  -1.234  0.00  0.00    +0.047 A 
ATOM     21  C   UNL     1      -0.752  -2.730  -0.612  0.00  0.00    +0.117 A 
ATOM     22  C   UNL     1       0.244  -2.397   0.297  0.00  0.00    +0.047 A 
ATOM     23  C   UNL     1       0.504  -1.075   0.585  0.00  0.00    +0.031 A 
BRANCH  21  24
ATOM     24  O   UNL     1      -1.005  -4.036  -0.892  0.00  0.00    -0.507 OA
ATOM     25  H   UNL     1      -0.420  -4.827  -0.400  0.00  0.00    +0.292 HD
ENDBRANCH  21  24
ENDBRANCH   4  18
TORSDOF 4
