REMARK  Name = ZINC53446711
REMARK  8 active torsions:
REMARK  status: ('A' for Active; 'I' for Inactive)
REMARK    1  A    between atoms: C_1  and  C_2
REMARK    2  A    between atoms: N_4  and  C_5
REMARK    3  A    between atoms: C_5  and  C_6
REMARK    4  A    between atoms: N_8  and  C_9
REMARK    5  A    between atoms: C_9  and  C_10
REMARK    6  A    between atoms: C_20  and  C_21
REMARK    7  A    between atoms: C_21  and  O_23
REMARK    8  A    between atoms: O_23  and  C_24
REMARK                            x       y       z     vdW  Elec       q    Type
REMARK                         _______ _______ _______ _____ _____    ______ ____
ROOT
ATOM      1  C   UNL     1       0.043  -5.942  -4.246  0.00  0.00    +0.234 C 
ATOM      2  O   UNL     1       0.061  -6.554  -3.199  0.00  0.00    -0.274 OA
ATOM      3  N   UNL     1       0.041  -6.610  -5.417  0.00  0.00    -0.283 N 
ATOM      4  C   UNL     1       0.053  -8.054  -5.588  0.00  0.00    +0.080 C 
ATOM      5  C   UNL     1      -0.610  -8.896  -4.518  0.00  0.00    +0.023 C 
ATOM      6  C   UNL     1      -0.426 -10.370  -4.915  0.00  0.00    +0.002 C 
ATOM      7  C   UNL     1      -1.006 -10.650  -6.298  0.00  0.00    +0.000 C 
ATOM      8  C   UNL     1      -0.416  -9.706  -7.358  0.00  0.00    +0.005 C 
ATOM      9  C   UNL     1      -0.720  -8.284  -6.915  0.00  0.00    +0.012 C 
ATOM     10  C   UNL     1      -0.102  -7.180  -7.786  0.00  0.00    +0.039 C 
ATOM     11  C   UNL     1       0.019  -6.010  -6.772  0.00  0.00    +0.185 C 
ENDROOT
BRANCH  11  12
ATOM     12  C   UNL     1       1.298  -5.252  -7.018  0.00  0.00    +0.328 C 
ATOM     13  O   UNL     1       2.270  -5.469  -6.335  0.00  0.00    -0.249 OA
BRANCH  12  14
ATOM     14  O   UNL     1       1.356  -4.335  -7.997  0.00  0.00    -0.467 OA
ATOM     15  C   UNL     1       2.600  -3.654  -8.174  0.00  0.00    +0.280 C 
ENDBRANCH  12  14
ENDBRANCH  11  12
BRANCH   1  16
ATOM     16  C   UNL     1       0.022  -4.436  -4.238  0.00  0.00    +0.200 C 
BRANCH  16  19
ATOM     17  C   UNL     1       0.013  -2.631  -2.600  0.00  0.00    +0.231 C 
ATOM     18  O   UNL     1      -0.006  -1.838  -3.518  0.00  0.00    -0.274 OA
ATOM     19  N   UNL     1       0.029  -3.955  -2.854  0.00  0.00    -0.305 N 
ATOM     20  H   UNL     1       0.044  -4.589  -2.120  0.00  0.00    +0.149 HD
BRANCH  17  21
ATOM     21  C   UNL     1       0.020  -2.136  -1.177  0.00  0.00    +0.200 C 
BRANCH  21  25
ATOM     22  C   UNL     1      -0.018   1.503   0.010  0.00  0.00    +0.109 C 
ATOM     23  C   UNL     1       0.002  -0.004   0.002  0.00  0.00    +0.210 C 
ATOM     24  O   UNL     1       0.020  -0.616   1.049  0.00  0.00    -0.276 OA
ATOM     25  N   UNL     1       0.000  -0.672  -1.169  0.00  0.00    -0.307 N 
ATOM     26  H   UNL     1      -0.015  -0.182  -2.006  0.00  0.00    +0.149 HD
ENDBRANCH  21  25
ENDBRANCH  17  21
ENDBRANCH  16  19
ENDBRANCH   1  16
TORSDOF 6
