REMARK  Name = ZINC44216867
REMARK  4 active torsions:
REMARK  status: ('A' for Active; 'I' for Inactive)
REMARK    1  A    between atoms: C_1  and  C_2
REMARK    2  A    between atoms: C_5  and  O_8
REMARK    3  A    between atoms: O_8  and  C_9
REMARK    4  A    between atoms: C_16  and  O_18
REMARK                            x       y       z     vdW  Elec       q    Type
REMARK                         _______ _______ _______ _____ _____    ______ ____
ROOT
ATOM      1  C   UNL     1       0.182  -4.783   1.244  0.00  0.00    +0.202 C 
ATOM      2  C   UNL     1      -1.182  -5.152   1.760  0.00  0.00    +0.047 C 
ATOM      3  C   UNL     1      -1.274  -5.066   3.296  0.00  0.00    +0.004 C 
ATOM      4  C   UNL     1      -0.026  -5.631   4.001  0.00  0.00    +0.000 C 
ATOM      5  C   UNL     1       0.469  -6.903   3.366  0.00  0.00    +0.003 C 
ATOM      6  C   UNL     1       1.563  -6.544   2.340  0.00  0.00    +0.035 C 
ATOM      7  C   UNL     1       1.014  -6.072   1.079  0.00  0.00    +0.155 C 
ENDROOT
BRANCH   7   8
ATOM      8  O   UNL     1       2.086  -5.819   0.170  0.00  0.00    -0.388 OA
ATOM      9  H   UNL     1       2.657  -6.583   0.012  0.00  0.00    +0.210 HD
ENDBRANCH   7   8
BRANCH   1  10
ATOM     10  O   UNL     1       0.057  -4.129  -0.021  0.00  0.00    -0.486 OA
BRANCH  10  15
ATOM     11  C   UNL     1      -0.891   1.423   0.056  0.00  0.00    +0.044 C 
ATOM     12  C   UNL     1      -0.638  -0.063   0.035  0.00  0.00    -0.050 A 
ATOM     13  C   UNL     1      -0.618  -0.776   1.220  0.00  0.00    +0.007 A 
ATOM     14  C   UNL     1      -0.385  -2.138   1.204  0.00  0.00    +0.046 A 
ATOM     15  C   UNL     1      -0.173  -2.790  -0.002  0.00  0.00    +0.121 A 
ATOM     16  C   UNL     1      -0.194  -2.072  -1.189  0.00  0.00    +0.046 A 
ATOM     17  C   UNL     1      -0.432  -0.711  -1.168  0.00  0.00    +0.007 A 
ENDBRANCH  10  15
ENDBRANCH   1  10
TORSDOF 3
