REMARK  Name = ZINC11787990
REMARK  11 active torsions:
REMARK  status: ('A' for Active; 'I' for Inactive)
REMARK    1  A    between atoms: C_1  and  O_2
REMARK    2  A    between atoms: O_2  and  C_3
REMARK    3  A    between atoms: C_3  and  C_5
REMARK    4  A    between atoms: N_7  and  C_10
REMARK    5  A    between atoms: C_13  and  C_27
REMARK    6  A    between atoms: C_16  and  C_17
REMARK    7  A    between atoms: C_16  and  N_66
REMARK    8  A    between atoms: C_22  and  O_23
REMARK    9  A    between atoms: O_23  and  C_24
REMARK   10  A    between atoms: C_24  and  C_25
REMARK   11  A    between atoms: N_29  and  C_30
REMARK                            x       y       z     vdW  Elec       q    Type
REMARK                         _______ _______ _______ _____ _____    ______ ____
ROOT
ATOM      1  C   UNL     1       0.844   1.522   2.121  0.00  0.00    +0.091 C 
ATOM      2  C   UNL     1      -0.406   1.662   1.221  0.00  0.00    +0.019 C 
ATOM      3  C   UNL     1       0.034   0.968  -0.092  0.00  0.00    +0.022 C 
ATOM      4  C   UNL     1       2.018   1.308   1.148  0.00  0.00    -0.050 C 
ATOM      5  N   UNL     1       1.443   1.363  -0.201  0.00  0.00    +0.391 N 
ATOM      6  H   UNL     1       1.507   2.320  -0.567  0.00  0.00    -0.080 HD
ENDROOT
BRANCH   1   9
ATOM      7  C   UNL     1       0.692  -1.656   3.821  0.00  0.00    +0.189 A 
ATOM      8  C   UNL     1       0.956  -0.920   2.701  0.00  0.00    +0.145 A 
ATOM      9  N   UNL     1       0.703   0.367   3.010  0.00  0.00    -0.250 N 
ATOM     10  N   UNL     1       0.286   0.388   4.348  0.00  0.00    -0.065 NA
ATOM     11  N   UNL     1       0.285  -0.821   4.793  0.00  0.00    -0.123 NA
BRANCH   7  12
ATOM     12  C   UNL     1       0.830  -3.119   3.945  0.00  0.00    +0.361 C 
ATOM     13  O   UNL     1       1.208  -3.775   2.995  0.00  0.00    -0.243 OA
BRANCH  12  15
ATOM     14  C   UNL     1       0.695  -5.170   5.160  0.00  0.00    +0.280 C 
ATOM     15  O   UNL     1       0.536  -3.727   5.111  0.00  0.00    -0.463 OA
ENDBRANCH  12  15
ENDBRANCH   7  12
ENDBRANCH   1   9
BRANCH   3  16
ATOM     16  C   UNL     1      -0.765   1.482  -1.262  0.00  0.00    +0.204 C 
ATOM     17  O   UNL     1      -0.211   2.081  -2.159  0.00  0.00    -0.277 OA
ATOM     18  N   UNL     1      -2.096   1.274  -1.312  0.00  0.00    -0.287 N 
ATOM     19  H   UNL     1      -2.528   0.730  -0.635  0.00  0.00    +0.155 HD
BRANCH  18  20
ATOM     20  C   UNL     1      -2.855   1.844  -2.341  0.00  0.00    +0.034 A 
ATOM     21  C   UNL     1      -3.967   1.176  -2.837  0.00  0.00    +0.023 A 
ATOM     22  C   UNL     1      -4.715   1.741  -3.852  0.00  0.00    +0.008 A 
ATOM     23  C   UNL     1      -4.357   2.969  -4.372  0.00  0.00    -0.016 A 
ATOM     24  C   UNL     1      -3.248   3.638  -3.879  0.00  0.00    -0.015 A 
ATOM     25  C   UNL     1      -2.500   3.082  -2.863  0.00  0.00    +0.029 A 
ATOM     26  C   UNL     1      -3.127   4.934  -4.647  0.00  0.00    +0.196 C 
ATOM     27  O   UNL     1      -3.926   4.766  -5.833  0.00  0.00    -0.371 OA
ATOM     28  C   UNL     1      -4.955   3.832  -5.459  0.00  0.00    +0.195 C 
ENDBRANCH  18  20
ENDBRANCH   3  16
BRANCH   5  29
ATOM     29  C   UNL     1       2.179   0.438  -1.115  0.00  0.00    -0.038 C 
BRANCH  29  30
ATOM     30  C   UNL     1       3.546   0.996  -1.417  0.00  0.00    -0.022 A 
ATOM     31  C   UNL     1       3.778   1.649  -2.612  0.00  0.00    +0.005 A 
ATOM     32  C   UNL     1       5.031   2.165  -2.887  0.00  0.00    +0.000 A 
ATOM     33  C   UNL     1       6.057   2.020  -1.972  0.00  0.00    +0.004 A 
ATOM     34  C   UNL     1       5.832   1.364  -0.778  0.00  0.00    +0.046 A 
ATOM     35  C   UNL     1       4.574   0.850  -0.497  0.00  0.00    +0.122 A 
BRANCH  35  36
ATOM     36  O   UNL     1       4.350   0.203   0.677  0.00  0.00    -0.488 OA
BRANCH  36  37
ATOM     37  C   UNL     1       5.455   0.089   1.577  0.00  0.00    +0.256 C 
BRANCH  37  38
ATOM     38  C   UNL     1       5.021  -0.652   2.815  0.00  0.00    +0.006 C 
ATOM     39  C   UNL     1       5.779  -1.597   3.312  0.00  0.00    +0.007 C 
ENDBRANCH  37  38
ENDBRANCH  36  37
ENDBRANCH  35  36
ENDBRANCH  29  30
ENDBRANCH   5  29
TORSDOF 10
