REMARK  Name = ZINC12758142
REMARK  10 active torsions:
REMARK  status: ('A' for Active; 'I' for Inactive)
REMARK    1  A    between atoms: C_1  and  C_2
REMARK    2  A    between atoms: C_3  and  N_9
REMARK    3  A    between atoms: C_10  and  C_12
REMARK    4  A    between atoms: C_16  and  S_18
REMARK    5  A    between atoms: S_18  and  N_21
REMARK    6  A    between atoms: N_21  and  C_22
REMARK    7  A    between atoms: N_21  and  C_23
REMARK    8  A    between atoms: C_24  and  C_36
REMARK    9  A    between atoms: N_25  and  C_35
REMARK   10  A    between atoms: N_26  and  C_29
REMARK                            x       y       z     vdW  Elec       q    Type
REMARK                         _______ _______ _______ _____ _____    ______ ____
ROOT
ATOM      1  S   UNL     1       6.352  -7.453   0.579  0.00  0.00    +0.075 S 
ATOM      2  O   UNL     1       7.495  -8.193   0.986  0.00  0.00    -0.150 OA
ATOM      3  O   UNL     1       5.032  -7.827   0.947  0.00  0.00    -0.150 OA
ENDROOT
BRANCH   1   8
ATOM      4  C   UNL     1       5.686  -3.680   1.820  0.00  0.00    +0.039 A 
ATOM      5  C   UNL     1       6.979  -3.211   2.060  0.00  0.00    +0.013 A 
ATOM      6  C   UNL     1       8.060  -4.042   1.853  0.00  0.00    +0.003 A 
ATOM      7  C   UNL     1       7.866  -5.336   1.400  0.00  0.00    +0.029 A 
ATOM      8  C   UNL     1       6.588  -5.805   1.156  0.00  0.00    +0.109 A 
ATOM      9  C   UNL     1       5.497  -4.986   1.363  0.00  0.00    +0.042 A 
BRANCH   4  11
ATOM     10  N   UNL     1       4.708  -1.537   2.485  0.00  0.00    -0.281 N 
ATOM     11  C   UNL     1       4.522  -2.797   2.044  0.00  0.00    +0.248 C 
ATOM     12  O   UNL     1       3.398  -3.206   1.829  0.00  0.00    -0.270 OA
ATOM     13  H   UNL     1       5.606  -1.184   2.580  0.00  0.00    +0.155 HD
BRANCH  10  16
ATOM     14  C   UNL     1       4.980   0.339   4.607  0.00  0.00    +0.047 C 
ATOM     15  C   UNL     1       3.694   0.190   3.835  0.00  0.00    -0.011 A 
ATOM     16  C   UNL     1       3.605  -0.739   2.806  0.00  0.00    +0.038 A 
ATOM     17  C   UNL     1       2.419  -0.874   2.097  0.00  0.00    +0.023 A 
ATOM     18  C   UNL     1       1.331  -0.085   2.417  0.00  0.00    +0.003 A 
ATOM     19  C   UNL     1       1.422   0.839   3.441  0.00  0.00    +0.020 A 
ATOM     20  C   UNL     1       2.603   0.977   4.150  0.00  0.00    +0.046 A 
ATOM     21 CL   UNL     1       2.712   2.139   5.435  0.00  0.00    -0.083 Cl
ENDBRANCH  10  16
ENDBRANCH   4  11
ENDBRANCH   1   8
BRANCH   1  22
ATOM     22  N   UNL     1       6.385  -7.402  -1.076  0.00  0.00    -0.199 N 
ATOM     23  C   UNL     1       7.668  -7.361  -1.782  0.00  0.00    +0.158 C 
BRANCH  22  24
ATOM     24  C   UNL     1       5.178  -7.398  -1.806  0.00  0.00    +0.137 A 
ATOM     25  C   UNL     1       5.021  -7.812  -3.081  0.00  0.00    +0.061 A 
ATOM     26  N   UNL     1       3.702  -7.650  -3.429  0.00  0.00    -0.282 N 
ATOM     27  N   UNL     1       3.022  -7.116  -2.325  0.00  0.00    -0.216 N 
ATOM     28  C   UNL     1       3.915  -6.964  -1.326  0.00  0.00    +0.295 A 
ATOM     29  O   UNL     1       3.681  -6.529  -0.213  0.00  0.00    -0.264 OA
ATOM     30  C   UNL     1       3.108  -7.978  -4.727  0.00  0.00    +0.171 C 
ATOM     31  C   UNL     1       6.107  -8.360  -3.971  0.00  0.00    +0.067 C 
BRANCH  27  32
ATOM     32  C   UNL     1       1.661  -6.803  -2.268  0.00  0.00    +0.067 A 
ATOM     33  C   UNL     1       1.237  -5.657  -1.608  0.00  0.00    +0.028 A 
ATOM     34  C   UNL     1      -0.108  -5.348  -1.559  0.00  0.00    +0.002 A 
ATOM     35  C   UNL     1      -1.034  -6.184  -2.156  0.00  0.00    +0.000 A 
ATOM     36  C   UNL     1      -0.616  -7.328  -2.809  0.00  0.00    +0.002 A 
ATOM     37  C   UNL     1       0.729  -7.640  -2.868  0.00  0.00    +0.028 A 
ENDBRANCH  27  32
ENDBRANCH  22  24
ENDBRANCH   1  22
TORSDOF 6
