REMARK  Name = ZINC06196908
REMARK  14 active torsions:
REMARK  status: ('A' for Active; 'I' for Inactive)
REMARK    1  A    between atoms: C_1  and  C_2
REMARK    2  A    between atoms: C_2  and  O_3
REMARK    3  A    between atoms: O_3  and  C_4
REMARK    4  A    between atoms: C_11  and  C_16
REMARK    5  A    between atoms: C_16  and  C_18
REMARK    6  A    between atoms: C_16  and  N_67
REMARK    7  A    between atoms: N_22  and  C_23
REMARK    8  A    between atoms: C_23  and  C_24
REMARK    9  A    between atoms: C_23  and  C_25
REMARK   10  A    between atoms: C_23  and  C_26
REMARK   11  A    between atoms: C_27  and  C_28
REMARK   12  A    between atoms: C_27  and  N_67
REMARK   13  A    between atoms: C_33  and  C_34
REMARK   14  A    between atoms: C_33  and  N_67
REMARK                            x       y       z     vdW  Elec       q    Type
REMARK                         _______ _______ _______ _____ _____    ______ ____
ROOT
ATOM      1  C   UNL     1      -2.228   1.226   2.211  0.00  0.00    +0.040 C 
ENDROOT
BRANCH   1   9
ATOM      2  C   UNL     1       0.614  -2.163   6.555  0.00  0.00    +0.121 A 
ATOM      3  C   UNL     1       1.467  -2.837   5.684  0.00  0.00    +0.047 A 
ATOM      4  C   UNL     1       1.428  -2.588   4.330  0.00  0.00    +0.030 A 
ATOM      5  C   UNL     1       0.531  -1.655   3.821  0.00  0.00    +0.049 A 
ATOM      6  C   UNL     1      -0.332  -0.970   4.697  0.00  0.00    +0.002 A 
ATOM      7  C   UNL     1      -0.283  -1.232   6.070  0.00  0.00    +0.055 A 
ATOM      8  C   UNL     1      -1.267   0.013   4.148  0.00  0.00    +0.017 A 
ATOM      9  C   UNL     1      -1.275   0.224   2.809  0.00  0.00    +0.011 A 
ATOM     10  C   UNL     1      -0.389  -0.489   1.972  0.00  0.00    +0.251 A 
ATOM     11  O   UNL     1      -0.409  -0.281   0.771  0.00  0.00    -0.268 OA
ATOM     12  N   UNL     1       0.477  -1.391   2.467  0.00  0.00    -0.322 N 
ATOM     13  H   UNL     1       1.090  -1.877   1.845  0.00  0.00    +0.169 HD
BRANCH   2  14
ATOM     14  O   UNL     1       0.667  -2.421   7.888  0.00  0.00    -0.492 OA
BRANCH  14  16
ATOM     15  C   UNL     1       1.531  -3.549   9.843  0.00  0.00    +0.048 C 
ATOM     16  C   UNL     1       1.618  -3.395   8.324  0.00  0.00    +0.225 C 
ENDBRANCH  14  16
ENDBRANCH   2  14
ENDBRANCH   1   9
BRANCH   1  17
ATOM     17  C   UNL     1      -3.143   0.530   1.236  0.00  0.00    +0.143 A 
ATOM     18  N   UNL     1      -2.872   0.225  -0.009  0.00  0.00    -0.115 NA
ATOM     19  N   UNL     1      -3.904  -0.363  -0.508  0.00  0.00    -0.023 NA
ATOM     20  N   UNL     1      -4.830  -0.432   0.384  0.00  0.00    -0.043 NA
ATOM     21  N   UNL     1      -4.398   0.107   1.473  0.00  0.00    -0.225 N 
BRANCH  21  22
ATOM     22  C   UNL     1      -5.137   0.236   2.732  0.00  0.00    +0.059 C 
ATOM     23  C   UNL     1      -5.365   1.717   3.041  0.00  0.00    +0.036 C 
ATOM     24  C   UNL     1      -6.487  -0.473   2.606  0.00  0.00    +0.036 C 
ATOM     25  C   UNL     1      -4.329  -0.402   3.864  0.00  0.00    +0.036 C 
ENDBRANCH  21  22
ENDBRANCH   1  17
BRANCH   1  26
ATOM     26  N   UNL     1      -1.458   2.258   1.486  0.00  0.00    +0.397 N 
ATOM     27  H   UNL     1      -1.115   1.859   0.604  0.00  0.00    -0.079 HD
BRANCH  26  28
ATOM     28  C   UNL     1      -2.324   3.417   1.184  0.00  0.00    -0.001 C 
BRANCH  28  29
ATOM     29  C   UNL     1      -3.206   3.068   0.013  0.00  0.00    +0.089 A 
ATOM     30  C   UNL     1      -4.480   2.643   0.087  0.00  0.00    +0.042 A 
ATOM     31  C   UNL     1      -4.922   2.442  -1.241  0.00  0.00    +0.041 A 
ATOM     32  C   UNL     1      -3.892   2.757  -2.047  0.00  0.00    +0.195 A 
ATOM     33  O   UNL     1      -2.855   3.135  -1.282  0.00  0.00    -0.470 OA
ENDBRANCH  28  29
ENDBRANCH  26  28
BRANCH  26  34
ATOM     34  C   UNL     1      -0.301   2.689   2.299  0.00  0.00    -0.034 C 
BRANCH  34  35
ATOM     35  C   UNL     1       0.585   3.570   1.456  0.00  0.00    -0.027 A 
ATOM     36  C   UNL     1       0.557   4.917   1.308  0.00  0.00    +0.009 A 
ATOM     37  C   UNL     1       1.479   5.518   0.471  0.00  0.00    +0.008 A 
ATOM     38  C   UNL     1       2.382   4.743  -0.177  0.00  0.00    +0.045 A 
ATOM     39  S   UNL     1       1.947   3.110   0.398  0.00  0.00    -0.103 S 
ENDBRANCH  34  35
ENDBRANCH  26  34
ENDBRANCH   1  26
TORSDOF 10
