REMARK  Name = ZINC36160376
REMARK  14 active torsions:
REMARK  status: ('A' for Active; 'I' for Inactive)
REMARK    1  A    between atoms: C_1  and  C_2
REMARK    2  A    between atoms: C_2  and  C_3
REMARK    3  A    between atoms: C_2  and  C_4
REMARK    4  A    between atoms: C_4  and  C_6
REMARK    5  A    between atoms: C_4  and  N_20
REMARK    6  A    between atoms: C_8  and  C_11
REMARK    7  A    between atoms: C_14  and  N_17
REMARK    8  A    between atoms: N_20  and  C_21
REMARK    9  A    between atoms: C_21  and  C_22
REMARK   10  A    between atoms: C_22  and  C_24
REMARK   11  A    between atoms: C_22  and  O_33
REMARK   12  A    between atoms: C_24  and  O_25
REMARK   13  A    between atoms: O_25  and  C_26
REMARK   14  A    between atoms: C_26  and  C_27
REMARK                            x       y       z     vdW  Elec       q    Type
REMARK                         _______ _______ _______ _____ _____    ______ ____
ROOT
ATOM      1  C   UNL     1      -1.351  -0.634  -0.094  0.00  0.00    +0.022 C 
ENDROOT
BRANCH   1   2
ATOM      2  C   UNL     1      -1.968  -0.471  -1.459  0.00  0.00    +0.214 A 
ATOM      3  N   UNL     1      -2.033  -1.391  -2.380  0.00  0.00    -0.193 NA
ATOM      4  C   UNL     1      -2.649  -0.905  -3.472  0.00  0.00    +0.202 A 
ATOM      5  N   UNL     1      -2.982   0.342  -3.246  0.00  0.00    -0.056 NA
ATOM      6  O   UNL     1      -2.548   0.641  -1.928  0.00  0.00    -0.339 OA
BRANCH   4   7
ATOM      7  C   UNL     1      -2.908  -1.657  -4.726  0.00  0.00    +0.023 A 
ATOM      8  C   UNL     1      -2.506  -2.986  -4.840  0.00  0.00    +0.014 A 
ATOM      9  C   UNL     1      -2.750  -3.680  -6.007  0.00  0.00    +0.033 A 
ATOM     10  C   UNL     1      -3.392  -3.059  -7.064  0.00  0.00    +0.126 A 
ATOM     11  C   UNL     1      -3.792  -1.739  -6.956  0.00  0.00    +0.033 A 
ATOM     12  C   UNL     1      -3.558  -1.037  -5.791  0.00  0.00    +0.014 A 
BRANCH  10  13
ATOM     13  N   UNL     1      -3.650  -3.808  -8.313  0.00  0.00    +0.056 N 
ATOM     14  O   UNL     1      -3.301  -4.962  -8.410  0.00  0.00    -0.126 OA
ATOM     15  O   UNL     1      -4.211  -3.267  -9.238  0.00  0.00    -0.126 OA
ENDBRANCH  10  13
ENDBRANCH   4   7
ENDBRANCH   1   2
BRANCH   1  17
ATOM     16  C   UNL     1       0.663  -0.148   1.303  0.00  0.00    +0.006 C 
ATOM     17  C   UNL     1      -0.004   0.090  -0.054  0.00  0.00    -0.022 C 
ATOM     18  C   UNL     1       0.898  -0.449  -1.166  0.00  0.00    +0.006 C 
ENDBRANCH   1  17
BRANCH   1  19
ATOM     19  N   UNL     1      -2.246  -0.060   0.920  0.00  0.00    +0.389 N 
ATOM     20  H   UNL     1      -1.793  -0.087   1.821  0.00  0.00    -0.085 HD
ATOM     21  H   UNL     1      -2.458   0.896   0.678  0.00  0.00    -0.085 HD
BRANCH  19  22
ATOM     22  C   UNL     1      -3.489  -0.841   0.973  0.00  0.00    -0.048 C 
BRANCH  22  23
ATOM     23  C   UNL     1      -4.363  -0.329   2.120  0.00  0.00    +0.123 C 
BRANCH  23  24
ATOM     24  O   UNL     1      -4.770   1.013   1.846  0.00  0.00    -0.391 OA
ATOM     25  H   UNL     1      -5.282   1.111   1.032  0.00  0.00    +0.210 HD
ENDBRANCH  23  24
BRANCH  23  26
ATOM     26  C   UNL     1      -5.600  -1.219   2.255  0.00  0.00    +0.189 C 
BRANCH  26  27
ATOM     27  O   UNL     1      -6.357  -0.813   3.397  0.00  0.00    -0.373 OA
BRANCH  27  28
ATOM     28  C   UNL     1      -7.540  -1.585   3.615  0.00  0.00    +0.195 C 
BRANCH  28  29
ATOM     29  C   UNL     1      -8.256  -1.073   4.838  0.00  0.00    -0.022 A 
ATOM     30  C   UNL     1      -7.957  -1.595   6.083  0.00  0.00    +0.006 A 
ATOM     31  C   UNL     1      -8.614  -1.126   7.205  0.00  0.00    +0.000 A 
ATOM     32  C   UNL     1      -9.569  -0.134   7.082  0.00  0.00    +0.000 A 
ATOM     33  C   UNL     1      -9.866   0.390   5.838  0.00  0.00    +0.000 A 
ATOM     34  C   UNL     1      -9.206  -0.077   4.716  0.00  0.00    +0.006 A 
ENDBRANCH  28  29
ENDBRANCH  27  28
ENDBRANCH  26  27
ENDBRANCH  23  26
ENDBRANCH  22  23
ENDBRANCH  19  22
ENDBRANCH   1  19
TORSDOF 12
