REMARK  Name = ZINC13467612
REMARK  12 active torsions:
REMARK  status: ('A' for Active; 'I' for Inactive)
REMARK    1  A    between atoms: C_1  and  C_2
REMARK    2  A    between atoms: C_2  and  N_3
REMARK    3  A    between atoms: N_3  and  C_4
REMARK    4  A    between atoms: N_3  and  S_6
REMARK    5  A    between atoms: C_4  and  C_5
REMARK    6  A    between atoms: S_6  and  C_9
REMARK    7  A    between atoms: C_12  and  O_28
REMARK    8  A    between atoms: C_13  and  N_15
REMARK    9  A    between atoms: C_16  and  C_18
REMARK   10  A    between atoms: C_24  and  C_26
REMARK   11  A    between atoms: O_28  and  C_29
REMARK   12  A    between atoms: C_33  and  C_35
REMARK                            x       y       z     vdW  Elec       q    Type
REMARK                         _______ _______ _______ _____ _____    ______ ____
ROOT
ATOM      1  C   UNL     1       0.780  -0.702  -0.046  0.00  0.00    +0.107 A 
ATOM      2  C   UNL     1       2.016  -0.083  -0.094  0.00  0.00    +0.032 A 
ATOM      3  C   UNL     1       2.103   1.296  -0.083  0.00  0.00    +0.050 A 
ATOM      4  C   UNL     1       0.951   2.063  -0.024  0.00  0.00    +0.150 A 
ATOM      5  C   UNL     1      -0.295   1.441   0.024  0.00  0.00    +0.078 A 
ATOM      6  C   UNL     1      -0.374   0.056   0.013  0.00  0.00    +0.055 A 
ENDROOT
BRANCH   5   7
ATOM      7  N   UNL     1      -1.464   2.211   0.078  0.00  0.00    -0.282 N 
ATOM      8  C   UNL     1      -2.584   1.699   0.625  0.00  0.00    +0.221 C 
ATOM      9  O   UNL     1      -2.597   0.551   1.017  0.00  0.00    -0.275 OA
ATOM     10  H   UNL     1      -1.467   3.113  -0.279  0.00  0.00    +0.155 HD
BRANCH   8  11
ATOM     11  C   UNL     1      -3.819   2.553   0.751  0.00  0.00    +0.093 C 
ATOM     12  C   UNL     1      -4.268   3.016  -0.637  0.00  0.00    +0.040 C 
ATOM     13  C   UNL     1      -5.631   3.638  -0.558  0.00  0.00    -0.030 C 
ATOM     14  C   UNL     1      -6.443   3.482   0.437  0.00  0.00    -0.030 C 
ATOM     15  C   UNL     1      -6.131   2.665   1.657  0.00  0.00    +0.042 C 
ATOM     16  C   UNL     1      -4.952   1.731   1.378  0.00  0.00    +0.118 C 
BRANCH  16  17
ATOM     17  C   UNL     1      -4.477   1.115   2.669  0.00  0.00    +0.360 C 
ATOM     18  O   UNL     1      -3.348   1.311   3.052  0.00  0.00    -0.246 OA
ATOM     19  O   UNL     1      -5.308   0.349   3.393  0.00  0.00    -0.246 OA
ENDBRANCH  16  17
ENDBRANCH   8  11
ENDBRANCH   5   7
BRANCH   1  20
ATOM     20  S   UNL     1       0.676  -2.461  -0.059  0.00  0.00    +0.061 S 
ATOM     21  O   UNL     1       1.919  -2.944   0.433  0.00  0.00    -0.153 OA
ATOM     22  O   UNL     1      -0.565  -2.799   0.544  0.00  0.00    -0.153 OA
BRANCH  20  23
ATOM     23  N   UNL     1       0.578  -2.934  -1.643  0.00  0.00    -0.177 NA
BRANCH  23  25
ATOM     24  C   UNL     1       2.094  -4.717  -2.351  0.00  0.00    +0.022 C 
ATOM     25  C   UNL     1       1.799  -3.217  -2.400  0.00  0.00    +0.106 C 
ENDBRANCH  23  25
BRANCH  23  26
ATOM     26  C   UNL     1      -0.731  -3.069  -2.287  0.00  0.00    +0.106 C 
ATOM     27  C   UNL     1      -1.069  -1.776  -3.032  0.00  0.00    +0.022 C 
ENDBRANCH  23  26
ENDBRANCH  20  23
ENDBRANCH   1  20
BRANCH   4  28
ATOM     28  O   UNL     1       1.035   3.420  -0.014  0.00  0.00    -0.454 OA
BRANCH  28  29
ATOM     29  C   UNL     1       1.082   4.048   1.190  0.00  0.00    +0.129 A 
ATOM     30  C   UNL     1       1.144   3.303   2.360  0.00  0.00    +0.046 A 
ATOM     31  C   UNL     1       1.197   3.944   3.582  0.00  0.00    +0.004 A 
ATOM     32  C   UNL     1       1.177   5.325   3.642  0.00  0.00    +0.003 A 
ATOM     33  C   UNL     1       1.110   6.069   2.479  0.00  0.00    -0.047 A 
ATOM     34  C   UNL     1       1.062   5.434   1.253  0.00  0.00    +0.049 A 
ATOM     35  C   UNL     1       1.088   7.574   2.548  0.00  0.00    +0.044 C 
ENDBRANCH  28  29
ENDBRANCH   4  28
TORSDOF 9
