REMARK  Name = ZINC39454905
REMARK  7 active torsions:
REMARK  status: ('A' for Active; 'I' for Inactive)
REMARK    1  A    between atoms: C_1  and  N_2
REMARK    2  A    between atoms: C_4  and  C_17
REMARK    3  A    between atoms: C_5  and  C_7
REMARK    4  A    between atoms: C_17  and  N_18
REMARK    5  A    between atoms: N_18  and  C_19
REMARK    6  A    between atoms: N_18  and  C_20
REMARK    7  A    between atoms: C_20  and  C_21
REMARK                            x       y       z     vdW  Elec       q    Type
REMARK                         _______ _______ _______ _____ _____    ______ ____
ROOT
ATOM      1  C   UNL     1       0.985   0.085   1.929  0.00  0.00    +0.172 C 
ATOM      2  N   UNL     1       0.412  -0.539   0.734  0.00  0.00    -0.274 N 
ATOM      3  C   UNL     1       0.374  -1.864   0.472  0.00  0.00    +0.110 A 
ATOM      4  C   UNL     1      -0.231  -2.035  -0.723  0.00  0.00    -0.019 A 
ATOM      5  C   UNL     1      -0.580  -0.763  -1.217  0.00  0.00    +0.094 A 
ATOM      6  N   UNL     1      -0.196   0.134  -0.334  0.00  0.00    -0.171 NA
ENDROOT
BRANCH   5   7
ATOM      7  C   UNL     1      -1.265  -0.484  -2.504  0.00  0.00    +0.006 A 
ATOM      8  C   UNL     1      -0.893  -1.173  -3.657  0.00  0.00    +0.014 A 
ATOM      9  C   UNL     1      -1.530  -0.911  -4.852  0.00  0.00    +0.050 A 
ATOM     10  C   UNL     1      -2.542   0.037  -4.912  0.00  0.00    +0.162 A 
ATOM     11  C   UNL     1      -2.919   0.726  -3.763  0.00  0.00    +0.163 A 
ATOM     12  C   UNL     1      -2.284   0.464  -2.561  0.00  0.00    +0.059 A 
ATOM     13  O   UNL     1      -3.914   1.654  -3.803  0.00  0.00    -0.485 OA
ATOM     14  C   UNL     1      -4.277   2.154  -5.094  0.00  0.00    +0.270 C 
ATOM     15  C   UNL     1      -4.414   0.962  -6.050  0.00  0.00    +0.270 C 
ATOM     16  O   UNL     1      -3.155   0.283  -6.102  0.00  0.00    -0.485 OA
ENDBRANCH   5   7
BRANCH   4  17
ATOM     17  C   UNL     1      -0.487  -3.353  -1.407  0.00  0.00    -0.040 C 
BRANCH  17  18
ATOM     18  N   UNL     1      -1.914  -3.688  -1.307  0.00  0.00    +0.382 N 
ATOM     19  C   UNL     1      -2.265  -3.920   0.101  0.00  0.00    -0.096 C 
ATOM     20  H   UNL     1      -2.465  -2.924  -1.669  0.00  0.00    -0.082 HD
BRANCH  18  21
ATOM     21  C   UNL     1      -2.188  -4.903  -2.087  0.00  0.00    -0.045 C 
BRANCH  21  22
ATOM     22  C   UNL     1      -3.693  -5.181  -2.085  0.00  0.00    +0.139 C 
ATOM     23  C   UNL     1      -4.029  -6.310  -3.025  0.00  0.00    -0.023 C 
ATOM     24  C   UNL     1      -4.836  -5.766  -3.942  0.00  0.00    +0.064 C 
ATOM     25  C   UNL     1      -5.420  -6.552  -5.095  0.00  0.00    +0.057 C 
ATOM     26  C   UNL     1      -4.615  -7.846  -5.260  0.00  0.00    +0.006 C 
ATOM     27  C   UNL     1      -4.500  -8.558  -3.909  0.00  0.00    +0.005 C 
ATOM     28  C   UNL     1      -3.585  -7.742  -2.985  0.00  0.00    +0.035 C 
ATOM     29  N   UNL     1      -5.027  -4.456  -3.670  0.00  0.00    -0.159 NA
ATOM     30  N   UNL     1      -4.436  -4.044  -2.661  0.00  0.00    -0.181 NA
ENDBRANCH  21  22
ENDBRANCH  18  21
ENDBRANCH  17  18
ENDBRANCH   4  17
TORSDOF 5
