REMARK  Name = ZINC59769213
REMARK  11 active torsions:
REMARK  status: ('A' for Active; 'I' for Inactive)
REMARK    1  A    between atoms: C_1  and  C_2
REMARK    2  A    between atoms: C_2  and  O_3
REMARK    3  A    between atoms: O_3  and  C_4
REMARK    4  A    between atoms: C_4  and  C_6
REMARK    5  A    between atoms: C_6  and  C_28
REMARK    6  A    between atoms: C_7  and  N_8
REMARK    7  A    between atoms: N_8  and  C_9
REMARK    8  A    between atoms: C_14  and  N_15
REMARK    9  A    between atoms: N_15  and  S_16
REMARK   10  A    between atoms: S_16  and  C_19
REMARK   11  A    between atoms: C_22  and  C_26
REMARK                            x       y       z     vdW  Elec       q    Type
REMARK                         _______ _______ _______ _____ _____    ______ ____
ROOT
ATOM      1  C   UNL     1      -2.089  -5.968  -0.325  0.00  0.00    +0.056 A 
ATOM      2  C   UNL     1      -3.355  -6.497  -0.530  0.00  0.00    +0.025 A 
ATOM      3  C   UNL     1      -3.510  -7.854  -0.744  0.00  0.00    +0.002 A 
ATOM      4  C   UNL     1      -2.407  -8.688  -0.754  0.00  0.00    +0.002 A 
ATOM      5  C   UNL     1      -1.142  -8.170  -0.550  0.00  0.00    +0.028 A 
ATOM      6  C   UNL     1      -0.976  -6.809  -0.341  0.00  0.00    +0.095 A 
ENDROOT
BRANCH   1   7
ATOM      7  N   UNL     1      -1.929  -4.595  -0.109  0.00  0.00    -0.318 N 
ATOM      8  H   UNL     1      -1.043  -4.226   0.031  0.00  0.00    +0.152 HD
BRANCH   7  10
ATOM      9  C   UNL     1      -2.864  -2.446   0.220  0.00  0.00    +0.149 C 
ATOM     10  C   UNL     1      -3.009  -3.783  -0.094  0.00  0.00    +0.098 C 
BRANCH   9  11
ATOM     11  C   UNL     1      -1.572  -1.942   0.695  0.00  0.00    +0.351 C 
ATOM     12  O   UNL     1      -0.661  -2.716   0.919  0.00  0.00    -0.244 OA
BRANCH  11  13
ATOM     13  O   UNL     1      -1.393  -0.618   0.884  0.00  0.00    -0.461 OA
BRANCH  13  15
ATOM     14  C   UNL     1      -0.097   1.326   1.501  0.00  0.00    +0.048 C 
ATOM     15  C   UNL     1      -0.109  -0.196   1.348  0.00  0.00    +0.229 C 
ENDBRANCH  13  15
ENDBRANCH  11  13
ENDBRANCH   9  11
BRANCH   9  16
ATOM     16  C   UNL     1      -3.974  -1.553   0.081  0.00  0.00    +0.108 C 
ATOM     17  N   UNL     1      -4.856  -0.845  -0.029  0.00  0.00    -0.191 NA
ENDBRANCH   9  16
ENDBRANCH   7  10
ENDBRANCH   1   7
BRANCH   6  18
ATOM     18  N   UNL     1       0.304  -6.281  -0.140  0.00  0.00    -0.096 NA
BRANCH  18  19
ATOM     19  S   UNL     1       1.624  -7.281  -0.160  0.00  0.00    +0.092 S 
ATOM     20  O   UNL     1       1.501  -8.137   0.968  0.00  0.00    -0.148 OA
ATOM     21  O   UNL     1       1.738  -7.778  -1.486  0.00  0.00    -0.148 OA
BRANCH  19  22
ATOM     22  C   UNL     1       3.043  -6.276   0.124  0.00  0.00    +0.112 A 
ATOM     23  C   UNL     1       3.708  -5.705  -0.947  0.00  0.00    +0.030 A 
ATOM     24  C   UNL     1       4.819  -4.917  -0.733  0.00  0.00    +0.022 A 
ATOM     25  C   UNL     1       5.274  -4.694   0.568  0.00  0.00    +0.070 A 
ATOM     26  C   UNL     1       4.598  -5.273   1.646  0.00  0.00    +0.060 A 
ATOM     27  C   UNL     1       3.484  -6.056   1.417  0.00  0.00    +0.050 A 
ATOM     28 CL   UNL     1       5.154  -5.004   3.268  0.00  0.00    -0.082 Cl
BRANCH  25  29
ATOM     29  C   UNL     1       6.428  -3.877   0.798  0.00  0.00    +0.101 C 
ATOM     30  N   UNL     1       7.343  -3.229   0.980  0.00  0.00    -0.191 NA
ENDBRANCH  25  29
ENDBRANCH  19  22
ENDBRANCH  18  19
ENDBRANCH   6  18
TORSDOF 10
