REMARK  Name = ZINC00201744
REMARK  6 active torsions:
REMARK  status: ('A' for Active; 'I' for Inactive)
REMARK    1  A    between atoms: C_1  and  N_2
REMARK    2  A    between atoms: N_2  and  C_3
REMARK    3  A    between atoms: N_2  and  C_4
REMARK    4  A    between atoms: C_7  and  C_10
REMARK    5  A    between atoms: C_22  and  N_26
REMARK    6  A    between atoms: C_23  and  C_24
REMARK                            x       y       z     vdW  Elec       q    Type
REMARK                         _______ _______ _______ _____ _____    ______ ____
ROOT
ATOM      1  C   UNL     1       1.245   3.520   0.011  0.00  0.00    +0.105 C 
ATOM      2  C   UNL     1      -0.112   4.054   0.342  0.00  0.00    +0.046 A 
ATOM      3  C   UNL     1      -1.265   3.338   0.350  0.00  0.00    +0.149 A 
ATOM      4  C   UNL     1      -2.480   4.056   0.704  0.00  0.00    +0.032 A 
ATOM      5  C   UNL     1      -3.788   3.515   0.778  0.00  0.00    +0.013 A 
ATOM      6  C   UNL     1      -4.802   4.362   1.132  0.00  0.00    +0.001 A 
ATOM      7  C   UNL     1      -4.610   5.704   1.417  0.00  0.00    +0.001 A 
ATOM      8  C   UNL     1      -3.345   6.276   1.357  0.00  0.00    +0.016 A 
ATOM      9  C   UNL     1      -2.314   5.434   1.001  0.00  0.00    +0.023 A 
ATOM     10  S   UNL     1      -0.581   5.700   0.799  0.00  0.00    -0.088 S 
ATOM     11  O   UNL     1      -1.226   1.998   0.023  0.00  0.00    -0.440 OA
ATOM     12  C   UNL     1      -0.036   1.378   0.006  0.00  0.00    +0.199 C 
ATOM     13  C   UNL     1       1.160   2.011  -0.005  0.00  0.00    +0.098 C 
ENDROOT
BRANCH   1  17
ATOM     14  C   UNL     1       2.458   4.939  -3.834  0.00  0.00    +0.029 A 
ATOM     15  C   UNL     1       3.233   5.215  -2.714  0.00  0.00    +0.023 A 
ATOM     16  C   UNL     1       2.838   4.754  -1.473  0.00  0.00    +0.006 A 
ATOM     17  C   UNL     1       1.673   4.020  -1.345  0.00  0.00    -0.034 A 
ATOM     18  C   UNL     1       0.902   3.740  -2.458  0.00  0.00    +0.006 A 
ATOM     19  C   UNL     1       1.289   4.202  -3.701  0.00  0.00    +0.023 A 
BRANCH  14  21
ATOM     20  C   UNL     1       4.018   6.285  -5.212  0.00  0.00    +0.129 C 
ATOM     21  N   UNL     1       2.854   5.403  -5.090  0.00  0.00    -0.336 N 
ATOM     22  C   UNL     1       2.107   5.008  -6.286  0.00  0.00    +0.129 C 
ENDBRANCH  14  21
ENDBRANCH   1  17
BRANCH  12  23
ATOM     23  N   UNL     1      -0.032   0.005  -0.007  0.00  0.00    -0.328 N 
ATOM     24  H   UNL     1       0.809  -0.477  -0.023  0.00  0.00    +0.145 HD
ATOM     25  H   UNL     1      -0.871  -0.482  -0.000  0.00  0.00    +0.145 HD
ENDBRANCH  12  23
BRANCH  13  26
ATOM     26  C   UNL     1       2.365   1.238  -0.031  0.00  0.00    +0.101 C 
ATOM     27  N   UNL     1       3.321   0.625  -0.053  0.00  0.00    -0.191 NA
ENDBRANCH  13  26
TORSDOF 4
