REMARK  Name = ZINC24752009
REMARK  9 active torsions:
REMARK  status: ('A' for Active; 'I' for Inactive)
REMARK    1  A    between atoms: C_1  and  C_2
REMARK    2  A    between atoms: C_2  and  O_3
REMARK    3  A    between atoms: O_3  and  C_4
REMARK    4  A    between atoms: C_9  and  C_10
REMARK    5  A    between atoms: C_12  and  C_15
REMARK    6  A    between atoms: C_15  and  N_16
REMARK    7  A    between atoms: C_20  and  S_27
REMARK    8  A    between atoms: C_24  and  C_26
REMARK    9  A    between atoms: S_27  and  N_30
REMARK                            x       y       z     vdW  Elec       q    Type
REMARK                         _______ _______ _______ _____ _____    ______ ____
ROOT
ATOM      1  N   UNL     1      -0.726   1.522   1.057  0.00  0.00    -0.318 N 
ATOM      2  C   UNL     1      -0.065   1.020  -0.074  0.00  0.00    +0.034 A 
ATOM      3  C   UNL     1       1.185   1.347  -0.598  0.00  0.00    +0.025 A 
ATOM      4  C   UNL     1       1.641   0.729  -1.743  0.00  0.00    +0.030 A 
ATOM      5  C   UNL     1       0.862  -0.221  -2.380  0.00  0.00    +0.105 A 
ATOM      6  C   UNL     1      -0.377  -0.553  -1.865  0.00  0.00    +0.034 A 
ATOM      7  C   UNL     1      -0.837   0.061  -0.719  0.00  0.00    -0.023 A 
ATOM      8  C   UNL     1      -2.126  -0.103   0.062  0.00  0.00    +0.059 C 
ATOM      9  C   UNL     1      -1.795   0.565   1.417  0.00  0.00    +0.075 C 
ATOM     10  C   UNL     1      -1.281  -0.470   2.420  0.00  0.00    +0.028 C 
ENDROOT
BRANCH   5  11
ATOM     11  S   UNL     1       1.449  -1.005  -3.844  0.00  0.00    +0.056 S 
ATOM     12  O   UNL     1       2.867  -0.914  -3.814  0.00  0.00    -0.153 OA
ATOM     13  O   UNL     1       0.767  -2.248  -3.940  0.00  0.00    -0.153 OA
BRANCH  11  14
ATOM     14  N   UNL     1       0.943  -0.087  -5.127  0.00  0.00    -0.204 NA
ATOM     15  H   UNL     1       1.291  -0.545  -6.065  0.00  0.00    +0.144 HD
ATOM     16  H   UNL     1       1.359   0.927  -5.038  0.00  0.00    +0.144 HD
ENDBRANCH  11  14
ENDBRANCH   5  11
BRANCH   1  17
ATOM     17  C   UNL     1       0.206   1.715   2.175  0.00  0.00    +0.204 C 
BRANCH  17  20
ATOM     18  C   UNL     1      -1.562   2.866   5.086  0.00  0.00    +0.206 A 
ATOM     19  N   UNL     1      -1.052   1.852   4.350  0.00  0.00    -0.190 NA
ATOM     20  C   UNL     1      -0.502   2.418   3.305  0.00  0.00    +0.245 A 
ATOM     21  O   UNL     1      -0.681   3.736   3.430  0.00  0.00    -0.336 OA
ATOM     22  N   UNL     1      -1.293   3.977   4.450  0.00  0.00    -0.056 NA
BRANCH  18  28
ATOM     23  C   UNL     1      -2.762   3.883   7.025  0.00  0.00    +0.131 A 
ATOM     24  C   UNL     1      -3.441   3.757   8.227  0.00  0.00    +0.046 A 
ATOM     25  C   UNL     1      -3.649   2.506   8.777  0.00  0.00    +0.004 A 
ATOM     26  C   UNL     1      -3.181   1.374   8.133  0.00  0.00    +0.001 A 
ATOM     27  C   UNL     1      -2.509   1.484   6.933  0.00  0.00    +0.015 A 
ATOM     28  C   UNL     1      -2.289   2.741   6.372  0.00  0.00    +0.064 A 
BRANCH  23  29
ATOM     29  O   UNL     1      -2.557   5.112   6.484  0.00  0.00    -0.492 OA
BRANCH  29  31
ATOM     30  C   UNL     1      -2.744   7.521   6.448  0.00  0.00    +0.048 C 
ATOM     31  C   UNL     1      -3.069   6.233   7.207  0.00  0.00    +0.226 C 
ENDBRANCH  29  31
ENDBRANCH  23  29
ENDBRANCH  18  28
ENDBRANCH  17  20
ENDBRANCH   1  17
TORSDOF 7
