REMARK  Name = ZINC16609637
REMARK  4 active torsions:
REMARK  status: ('A' for Active; 'I' for Inactive)
REMARK    1  A    between atoms: C_1  and  C_2
REMARK    2  A    between atoms: N_7  and  C_8
REMARK    3  A    between atoms: C_11  and  N_14
REMARK    4  A    between atoms: C_18  and  C_21
REMARK                            x       y       z     vdW  Elec       q    Type
REMARK                         _______ _______ _______ _____ _____    ______ ____
ROOT
ATOM      1  C   UNL     1       4.067  -2.878  -0.083  0.00  0.00    +0.067 A 
ATOM      2  C   UNL     1       3.675  -3.208  -1.383  0.00  0.00    +0.030 A 
ATOM      3  C   UNL     1       4.599  -3.701  -2.277  0.00  0.00    +0.030 A 
ATOM      4  C   UNL     1       5.929  -3.871  -1.884  0.00  0.00    +0.067 A 
ATOM      5  C   UNL     1       6.321  -3.541  -0.585  0.00  0.00    +0.030 A 
ATOM      6  C   UNL     1       5.398  -3.044   0.308  0.00  0.00    +0.030 A 
ENDROOT
BRANCH   1  12
ATOM      7  C   UNL     1      -0.019   1.526   0.010  0.00  0.00    +0.021 C 
ATOM      8  C   UNL     1       0.002  -0.004   0.002  0.00  0.00    +0.068 C 
ATOM      9  C   UNL     1       0.803  -0.549  -1.208  0.00  0.00    +0.117 C 
ATOM     10  N   UNL     1       2.175  -0.858  -0.813  0.00  0.00    -0.323 N 
ATOM     11  C   UNL     1       2.298  -1.460   0.428  0.00  0.00    +0.155 C 
ATOM     12  N   UNL     1       3.147  -2.388   0.806  0.00  0.00    -0.226 NA
ATOM     13  S   UNL     1       1.016  -0.666   1.390  0.00  0.00    -0.086 S 
ATOM     14  H   UNL     1       2.940  -0.657  -1.375  0.00  0.00    +0.148 HD
ENDBRANCH   1  12
BRANCH   4  15
ATOM     15  N   UNL     1       6.849  -4.363  -2.773  0.00  0.00    -0.226 NA
ATOM     16  C   UNL     1       8.029  -3.796  -2.879  0.00  0.00    +0.155 C 
ATOM     17  N   UNL     1       9.067  -4.150  -3.717  0.00  0.00    -0.323 N 
ATOM     18  C   UNL     1       9.990  -3.080  -4.085  0.00  0.00    +0.117 C 
ATOM     19  C   UNL     1      10.263  -2.187  -2.844  0.00  0.00    +0.068 C 
ATOM     20  S   UNL     1       8.652  -2.387  -1.975  0.00  0.00    -0.086 S 
ATOM     21  C   UNL     1      11.427  -2.729  -2.011  0.00  0.00    +0.021 C 
ATOM     22  H   UNL     1       9.177  -5.057  -4.043  0.00  0.00    +0.148 HD
ENDBRANCH   4  15
TORSDOF 2
