REMARK  Name = ZINC39545434
REMARK  5 active torsions:
REMARK  status: ('A' for Active; 'I' for Inactive)
REMARK    1  A    between atoms: C_1  and  O_2
REMARK    2  A    between atoms: O_2  and  N_3
REMARK    3  A    between atoms: N_3  and  C_4
REMARK    4  A    between atoms: C_9  and  O_10
REMARK    5  A    between atoms: C_11  and  C_13
REMARK                            x       y       z     vdW  Elec       q    Type
REMARK                         _______ _______ _______ _____ _____    ______ ____
ROOT
ATOM      1  C   UNL     1      -0.896  -0.442   2.495  0.00  0.00    +0.033 C 
ATOM      2  C   UNL     1      -0.586   1.073   2.494  0.00  0.00    +0.068 C 
ATOM      3  C   UNL     1      -0.591   1.481   3.961  0.00  0.00    +0.136 C 
ATOM      4  C   UNL     1      -0.862   0.201   4.715  0.00  0.00    +0.085 C 
ATOM      5  N   UNL     1      -1.556   0.410   5.969  0.00  0.00    -0.350 N 
ATOM      6  C   UNL     1      -2.947   0.532   5.997  0.00  0.00    +0.027 A 
ATOM      7  C   UNL     1      -3.597   0.905   7.165  0.00  0.00    +0.023 A 
ATOM      8  C   UNL     1      -4.975   1.007   7.182  0.00  0.00    +0.002 A 
ATOM      9  C   UNL     1      -5.700   0.736   6.036  0.00  0.00    +0.000 A 
ATOM     10  C   UNL     1      -5.053   0.370   4.872  0.00  0.00    +0.003 A 
ATOM     11  C   UNL     1      -3.672   0.273   4.843  0.00  0.00    -0.043 A 
ATOM     12  C   UNL     1      -2.977  -0.087   3.564  0.00  0.00    -0.037 C 
ATOM     13  N   UNL     1      -1.637  -0.650   3.782  0.00  0.00    +0.407 N 
ATOM     14  O   UNL     1      -0.416   2.584   4.420  0.00  0.00    -0.298 OA
ATOM     15  H   UNL     1      -1.051   0.466   6.795  0.00  0.00    +0.145 HD
ATOM     16  H   UNL     1      -1.655  -1.618   4.067  0.00  0.00    -0.077 HD
ENDROOT
BRANCH   1  18
ATOM     17  N   UNL     1      -1.279  -1.603   0.345  0.00  0.00    -0.146 N 
ATOM     18  C   UNL     1      -1.764  -0.808   1.319  0.00  0.00    +0.230 C 
ATOM     19  O   UNL     1      -2.899  -0.387   1.249  0.00  0.00    -0.275 OA
BRANCH  17  20
ATOM     20  C   UNL     1      -2.047  -1.859  -0.798  0.00  0.00    +0.106 A 
ATOM     21  C   UNL     1      -2.019  -0.976  -1.868  0.00  0.00    +0.029 A 
ATOM     22  C   UNL     1      -2.778  -1.231  -2.994  0.00  0.00    +0.002 A 
ATOM     23  C   UNL     1      -3.567  -2.364  -3.059  0.00  0.00    +0.004 A 
ATOM     24  C   UNL     1      -3.601  -3.249  -1.997  0.00  0.00    +0.047 A 
ATOM     25  C   UNL     1      -2.838  -3.004  -0.867  0.00  0.00    +0.140 A 
BRANCH  25  26
ATOM     26  O   UNL     1      -2.865  -3.876   0.176  0.00  0.00    -0.505 OA
ATOM     27  H   UNL     1      -3.549  -3.683   0.833  0.00  0.00    +0.292 HD
ENDBRANCH  25  26
ENDBRANCH  17  20
BRANCH  17  29
ATOM     28  C   UNL     1       1.067  -1.356  -0.013  0.00  0.00    +0.227 C 
ATOM     29  O   UNL     1       0.007  -2.180   0.477  0.00  0.00    -0.276 OA
ENDBRANCH  17  29
ENDBRANCH   1  18
TORSDOF 4
