REMARK  Name = ZINC67171674
REMARK  6 active torsions:
REMARK  status: ('A' for Active; 'I' for Inactive)
REMARK    1  A    between atoms: C_1  and  C_2
REMARK    2  A    between atoms: C_2  and  N_3
REMARK    3  A    between atoms: C_4  and  C_6
REMARK    4  A    between atoms: C_11  and  N_12
REMARK    5  A    between atoms: C_13  and  C_15
REMARK    6  A    between atoms: C_18  and  N_20
REMARK                            x       y       z     vdW  Elec       q    Type
REMARK                         _______ _______ _______ _____ _____    ______ ____
ROOT
ATOM      1  C   UNL     1       1.515  -2.277  -2.646  0.00  0.00    +0.059 A 
ATOM      2  C   UNL     1       1.936  -1.368  -3.620  0.00  0.00    +0.035 A 
ATOM      3  C   UNL     1       2.578  -1.823  -4.753  0.00  0.00    +0.042 A 
ATOM      4  C   UNL     1       2.806  -3.179  -4.931  0.00  0.00    +0.022 A 
ATOM      5  C   UNL     1       2.396  -4.087  -3.977  0.00  0.00    +0.025 A 
ATOM      6  C   UNL     1       1.754  -3.647  -2.827  0.00  0.00    +0.046 A 
ATOM      7 CL   UNL     1       3.100  -0.692  -5.962  0.00  0.00    -0.084 Cl
ENDROOT
BRANCH   1   9
ATOM      8  N   UNL     1       0.690  -0.474  -1.213  0.00  0.00    -0.312 N 
ATOM      9  C   UNL     1       0.829  -1.797  -1.431  0.00  0.00    +0.246 C 
ATOM     10  O   UNL     1       0.388  -2.595  -0.627  0.00  0.00    -0.270 OA
ATOM     11  H   UNL     1       1.042   0.162  -1.855  0.00  0.00    +0.149 HD
BRANCH   8  13
ATOM     12  C   UNL     1      -0.012   1.531  -0.003  0.00  0.00    +0.024 C 
ATOM     13  C   UNL     1       0.009   0.002  -0.007  0.00  0.00    +0.101 C 
ENDBRANCH   8  13
ENDBRANCH   1   9
BRANCH   6  14
ATOM     14  N   UNL     1       1.344  -4.562  -1.860  0.00  0.00    -0.285 N 
ATOM     15  C   UNL     1       2.085  -5.662  -1.616  0.00  0.00    +0.223 C 
ATOM     16  O   UNL     1       3.155  -5.807  -2.168  0.00  0.00    -0.275 OA
ATOM     17  H   UNL     1       0.526  -4.409  -1.362  0.00  0.00    +0.155 HD
BRANCH  15  18
ATOM     18  C   UNL     1       1.583  -6.710  -0.657  0.00  0.00    +0.107 C 
ATOM     19  C   UNL     1       1.181  -8.066  -1.240  0.00  0.00    +0.047 C 
ATOM     20  C   UNL     1       2.469  -7.936  -0.424  0.00  0.00    +0.182 C 
BRANCH  20  21
ATOM     21  N   UNL     1       2.480  -8.517   0.921  0.00  0.00    +0.026 N 
ATOM     22  O   UNL     1       1.454  -8.935   1.407  0.00  0.00    -0.131 OA
ATOM     23  O   UNL     1       3.514  -8.580   1.544  0.00  0.00    -0.131 OA
ENDBRANCH  20  21
ENDBRANCH  15  18
ENDBRANCH   6  14
TORSDOF 5
