REMARK  Name = ZINC36644861
REMARK  10 active torsions:
REMARK  status: ('A' for Active; 'I' for Inactive)
REMARK    1  A    between atoms: C_1  and  N_2
REMARK    2  A    between atoms: N_2  and  C_3
REMARK    3  A    between atoms: N_2  and  C_4
REMARK    4  A    between atoms: C_4  and  C_5
REMARK    5  A    between atoms: C_5  and  C_6
REMARK    6  A    between atoms: C_6  and  N_7
REMARK    7  A    between atoms: C_11  and  O_18
REMARK    8  A    between atoms: O_18  and  C_19
REMARK    9  A    between atoms: C_20  and  C_22
REMARK   10  A    between atoms: N_27  and  C_29
REMARK                            x       y       z     vdW  Elec       q    Type
REMARK                         _______ _______ _______ _____ _____    ______ ____
ROOT
ATOM      1  N   UNL     1      -2.527  -4.022  -0.366  0.00  0.00    -0.250 N 
ATOM      2  C   UNL     1      -2.264  -4.923   0.654  0.00  0.00    +0.168 A 
ATOM      3  N   UNL     1      -2.211  -6.233   0.601  0.00  0.00    -0.221 NA
ATOM      4  C   UNL     1      -1.940  -6.993   1.685  0.00  0.00    +0.123 A 
ATOM      5  C   UNL     1      -1.855  -8.407   1.764  0.00  0.00    +0.147 A 
ATOM      6  C   UNL     1      -1.569  -9.026   2.957  0.00  0.00    +0.049 A 
ATOM      7  C   UNL     1      -1.355  -8.297   4.118  0.00  0.00    +0.025 A 
ATOM      8  C   UNL     1      -1.431  -6.917   4.076  0.00  0.00    +0.057 A 
ATOM      9  C   UNL     1      -1.716  -6.288   2.887  0.00  0.00    +0.063 A 
ATOM     10  S   UNL     1      -1.902  -4.597   2.373  0.00  0.00    -0.050 S 
ATOM     11 CL   UNL     1      -1.168  -5.984   5.516  0.00  0.00    -0.082 Cl
ATOM     12  C   UNL     1      -2.780  -4.469  -1.612  0.00  0.00    +0.226 C 
ATOM     13  O   UNL     1      -2.937  -3.679  -2.519  0.00  0.00    -0.275 OA
ENDROOT
BRANCH  12  14
ATOM     14  C   UNL     1      -2.866  -5.949  -1.878  0.00  0.00    +0.102 C 
ATOM     15  C   UNL     1      -4.182  -6.536  -1.317  0.00  0.00    +0.110 C 
ATOM     16  C   UNL     1      -5.140  -6.486  -2.486  0.00  0.00    +0.221 C 
ATOM     17  O   UNL     1      -6.346  -6.589  -2.402  0.00  0.00    -0.275 OA
ATOM     18  N   UNL     1      -4.461  -6.309  -3.633  0.00  0.00    -0.271 N 
ATOM     19  C   UNL     1      -3.015  -6.232  -3.390  0.00  0.00    +0.127 C 
BRANCH  18  20
ATOM     20  C   UNL     1      -5.056  -6.211  -4.897  0.00  0.00    +0.036 A 
ATOM     21  C   UNL     1      -6.439  -6.172  -5.013  0.00  0.00    +0.026 A 
ATOM     22  C   UNL     1      -7.024  -6.076  -6.260  0.00  0.00    +0.040 A 
ATOM     23  C   UNL     1      -6.232  -6.019  -7.395  0.00  0.00    +0.124 A 
ATOM     24  C   UNL     1      -4.852  -6.057  -7.281  0.00  0.00    +0.040 A 
ATOM     25  C   UNL     1      -4.263  -6.147  -6.035  0.00  0.00    +0.026 A 
ATOM     26  F   UNL     1      -6.806  -5.925  -8.614  0.00  0.00    -0.205 F 
ENDBRANCH  18  20
ENDBRANCH  12  14
BRANCH   5  27
ATOM     27  O   UNL     1      -2.058  -9.157   0.648  0.00  0.00    -0.493 OA
ATOM     28  C   UNL     1      -1.958 -10.575   0.792  0.00  0.00    +0.277 C 
ENDBRANCH   5  27
BRANCH   1  29
ATOM     29  C   UNL     1      -2.531  -2.583  -0.089  0.00  0.00    +0.114 C 
BRANCH  29  30
ATOM     30  C   UNL     1      -1.104  -2.041  -0.184  0.00  0.00    +0.001 C 
BRANCH  30  31
ATOM     31  C   UNL     1      -1.118  -0.526   0.028  0.00  0.00    -0.078 C 
BRANCH  31  33
ATOM     32  C   UNL     1       0.227   1.460   0.021  0.00  0.00    -0.097 C 
ATOM     33  N   UNL     1       0.253  -0.006  -0.063  0.00  0.00    +0.376 N 
ATOM     34  C   UNL     1       1.056  -0.545   1.042  0.00  0.00    -0.097 C 
ATOM     35  H   UNL     1       0.660  -0.285  -0.943  0.00  0.00    -0.083 HD
ENDBRANCH  31  33
ENDBRANCH  30  31
ENDBRANCH  29  30
ENDBRANCH   1  29
TORSDOF 7
