REMARK  Name = ZINC20079815
REMARK  7 active torsions:
REMARK  status: ('A' for Active; 'I' for Inactive)
REMARK    1  A    between atoms: C_1  and  C_2
REMARK    2  A    between atoms: C_6  and  C_15
REMARK    3  A    between atoms: C_13  and  C_14
REMARK    4  A    between atoms: C_15  and  C_17
REMARK    5  A    between atoms: C_15  and  N_27
REMARK    6  A    between atoms: N_21  and  C_22
REMARK    7  A    between atoms: N_30  and  C_33
REMARK                            x       y       z     vdW  Elec       q    Type
REMARK                         _______ _______ _______ _____ _____    ______ ____
ROOT
ATOM      1  C   UNL     1      -0.109   1.057  -2.412  0.00  0.00    +0.162 C 
ENDROOT
BRANCH   1   7
ATOM      2  C   UNL     1      -4.285  -1.026  -8.229  0.00  0.00    +0.044 C 
ATOM      3  C   UNL     1      -3.700   0.048  -7.349  0.00  0.00    -0.047 A 
ATOM      4  C   UNL     1      -2.900  -0.300  -6.296  0.00  0.00    +0.013 A 
ATOM      5  C   UNL     1      -2.357   0.697  -5.480  0.00  0.00    -0.001 A 
ATOM      6  C   UNL     1      -1.496   0.360  -4.345  0.00  0.00    +0.021 A 
ATOM      7  C   UNL     1      -0.998   1.369  -3.588  0.00  0.00    +0.042 A 
ATOM      8  C   UNL     1      -1.313   2.710  -3.894  0.00  0.00    +0.254 A 
ATOM      9  O   UNL     1      -0.858   3.601  -3.198  0.00  0.00    -0.268 OA
ATOM     10  N   UNL     1      -2.099   3.030  -4.937  0.00  0.00    -0.322 N 
ATOM     11  H   UNL     1      -2.321   4.085  -5.156  0.00  0.00    +0.169 HD
ATOM     12  C   UNL     1      -2.636   2.051  -5.746  0.00  0.00    +0.049 A 
ATOM     13  C   UNL     1      -3.453   2.381  -6.822  0.00  0.00    +0.030 A 
ATOM     14  C   UNL     1      -3.978   1.382  -7.614  0.00  0.00    -0.046 A 
ATOM     15  C   UNL     1      -4.862   1.741  -8.780  0.00  0.00    +0.044 C 
ENDBRANCH   1   7
BRANCH   1  16
ATOM     16  N   UNL     1      -0.646   1.703  -1.207  0.00  0.00    -0.292 NA
ATOM     17  C   UNL     1      -2.011   1.239  -0.924  0.00  0.00    +0.067 C 
ATOM     18  C   UNL     1      -2.563   1.992   0.288  0.00  0.00    -0.063 C 
ATOM     19  N   UNL     1      -1.683   1.766   1.444  0.00  0.00    +0.383 N 
ATOM     20  C   UNL     1      -0.318   2.230   1.161  0.00  0.00    -0.063 C 
ATOM     21  C   UNL     1       0.234   1.477  -0.051  0.00  0.00    +0.067 C 
ATOM     22  H   UNL     1      -1.642   0.683   1.632  0.00  0.00    -0.081 HD
BRANCH  19  23
ATOM     23  C   UNL     1      -2.220   2.413   2.649  0.00  0.00    -0.068 C 
ATOM     24  C   UNL     1      -1.331   2.077   3.847  0.00  0.00    -0.015 C 
ATOM     25  C   UNL     1      -1.890   2.750   5.102  0.00  0.00    -0.002 C 
ATOM     26  C   UNL     1      -3.310   2.243   5.363  0.00  0.00    -0.000 C 
ATOM     27  C   UNL     1      -4.199   2.579   4.164  0.00  0.00    -0.002 C 
ATOM     28  C   UNL     1      -3.640   1.906   2.909  0.00  0.00    -0.015 C 
ENDBRANCH  19  23
ENDBRANCH   1  16
BRANCH   1  29
ATOM     29  C   UNL     1       1.281   1.573  -2.681  0.00  0.00    +0.173 A 
ATOM     30  N   UNL     1       1.672   2.823  -2.646  0.00  0.00    -0.111 NA
ATOM     31  N   UNL     1       2.928   2.856  -2.931  0.00  0.00    -0.023 NA
ATOM     32  N   UNL     1       3.347   1.659  -3.155  0.00  0.00    -0.044 NA
ATOM     33  N   UNL     1       2.361   0.840  -3.011  0.00  0.00    -0.224 N 
BRANCH  33  34
ATOM     34  C   UNL     1       2.407  -0.616  -3.175  0.00  0.00    +0.111 C 
ATOM     35  C   UNL     1       3.452  -1.222  -2.216  0.00  0.00    +0.027 C 
ATOM     36  C   UNL     1       4.093  -2.373  -3.032  0.00  0.00    +0.002 C 
ATOM     37  C   UNL     1       4.166  -1.781  -4.461  0.00  0.00    +0.002 C 
ATOM     38  C   UNL     1       2.861  -0.971  -4.602  0.00  0.00    +0.027 C 
ENDBRANCH  33  34
ENDBRANCH   1  29
TORSDOF 5
