REMARK  Name = ZINC11495084
REMARK  4 active torsions:
REMARK  status: ('A' for Active; 'I' for Inactive)
REMARK    1  A    between atoms: C_1  and  N_2
REMARK    2  A    between atoms: C_7  and  S_11
REMARK    3  A    between atoms: S_11  and  C_12
REMARK    4  A    between atoms: C_12  and  C_13
REMARK                            x       y       z     vdW  Elec       q    Type
REMARK                         _______ _______ _______ _____ _____    ______ ____
ROOT
ATOM      1  C   UNL     1      -5.550  -1.098   0.030  0.00  0.00    +0.142 A 
ATOM      2  N   UNL     1      -5.887  -1.645  -1.124  0.00  0.00    -0.216 NA
ATOM      3  C   UNL     1      -6.692  -2.692  -1.199  0.00  0.00    +0.128 A 
ATOM      4  C   UNL     1      -7.224  -3.243   0.000  0.00  0.00    +0.051 A 
ATOM      5  C   UNL     1      -8.128  -4.383   0.163  0.00  0.00    -0.025 A 
ATOM      6  C   UNL     1      -8.486  -4.705   1.422  0.00  0.00    -0.004 A 
ATOM      7  S   UNL     1      -7.655  -3.528   2.455  0.00  0.00    -0.073 S 
ATOM      8  C   UNL     1      -6.824  -2.603   1.190  0.00  0.00    +0.114 A 
ATOM      9  N   UNL     1      -6.011  -1.564   1.174  0.00  0.00    -0.224 NA
ATOM     10  C   UNL     1      -9.392  -5.819   1.851  0.00  0.00    +0.043 C 
ATOM     11  C   UNL     1     -10.157  -6.324   0.620  0.00  0.00    +0.005 C 
ATOM     12  C   UNL     1      -9.162  -6.536  -0.524  0.00  0.00    +0.005 C 
ATOM     13  C   UNL     1      -8.653  -5.184  -1.026  0.00  0.00    +0.037 C 
ATOM     14  N   UNL     1      -7.017  -3.241  -2.427  0.00  0.00    -0.343 N 
ATOM     15  H   UNL     1      -7.774  -3.842  -2.504  0.00  0.00    +0.144 HD
ATOM     16  H   UNL     1      -6.488  -3.024  -3.210  0.00  0.00    +0.144 HD
ENDROOT
BRANCH   1  17
ATOM     17  C   UNL     1      -4.622   0.090   0.039  0.00  0.00    +0.152 C 
BRANCH  17  18
ATOM     18  S   UNL     1      -2.909  -0.484   0.156  0.00  0.00    -0.097 S 
BRANCH  18  25
ATOM     19  C   UNL     1       2.340   3.196   0.310  0.00  0.00    +0.174 C 
ATOM     20  N   UNL     1       1.298   2.165   0.293  0.00  0.00    -0.249 N 
ATOM     21  C   UNL     1      -0.044   2.388   0.216  0.00  0.00    +0.162 A 
ATOM     22  C   UNL     1      -0.661   1.121   0.224  0.00  0.00    +0.070 A 
ATOM     23  C   UNL     1       0.368   0.160   0.316  0.00  0.00    +0.147 A 
ATOM     24  N   UNL     1       1.512   0.782   0.353  0.00  0.00    -0.177 NA
ATOM     25  C   UNL     1      -2.067   1.064   0.147  0.00  0.00    +0.111 A 
ATOM     26  N   UNL     1      -2.743   2.207   0.068  0.00  0.00    -0.228 NA
ATOM     27  C   UNL     1      -2.119   3.371   0.061  0.00  0.00    +0.224 A 
ATOM     28  N   UNL     1      -0.810   3.475   0.138  0.00  0.00    -0.216 NA
ENDBRANCH  18  25
ENDBRANCH  17  18
ENDBRANCH   1  17
TORSDOF 3
