REMARK  Name = ZINC00493843
REMARK  5 active torsions:
REMARK  status: ('A' for Active; 'I' for Inactive)
REMARK    1  A    between atoms: C_4  and  N_7
REMARK    2  A    between atoms: C_8  and  C_17
REMARK    3  A    between atoms: C_9  and  C_15
REMARK    4  A    between atoms: C_10  and  C_13
REMARK    5  A    between atoms: C_11  and  N_12
REMARK                            x       y       z     vdW  Elec       q    Type
REMARK                         _______ _______ _______ _____ _____    ______ ____
ROOT
ATOM      1  N   UNL     1      -3.517   1.910   0.819  0.00  0.00    -0.293 N 
ATOM      2  C   UNL     1      -2.512   1.419   0.020  0.00  0.00    +0.109 A 
ATOM      3  C   UNL     1      -3.040   0.412  -0.781  0.00  0.00    +0.100 A 
ATOM      4  C   UNL     1      -4.469   0.312  -0.422  0.00  0.00    +0.109 A 
ATOM      5  C   UNL     1      -4.688   1.264   0.563  0.00  0.00    +0.120 A 
ENDROOT
BRANCH   1   9
ATOM      6  C   UNL     1      -3.048   4.956   3.625  0.00  0.00    +0.000 A 
ATOM      7  C   UNL     1      -3.860   5.152   2.523  0.00  0.00    +0.002 A 
ATOM      8  C   UNL     1      -4.017   4.145   1.591  0.00  0.00    +0.026 A 
ATOM      9  C   UNL     1      -3.360   2.934   1.762  0.00  0.00    +0.048 A 
ATOM     10  C   UNL     1      -2.550   2.738   2.873  0.00  0.00    +0.026 A 
ATOM     11  C   UNL     1      -2.392   3.752   3.798  0.00  0.00    +0.002 A 
ENDBRANCH   1   9
BRANCH   2  12
ATOM     12  C   UNL     1      -1.119   1.876   0.017  0.00  0.00    +0.153 A 
ATOM     13  C   UNL     1      -0.013   1.076   0.008  0.00  0.00    +0.051 A 
ATOM     14  C   UNL     1       1.105   1.931   0.002  0.00  0.00    +0.042 A 
ATOM     15  C   UNL     1       0.636   3.196   0.013  0.00  0.00    +0.196 A 
ATOM     16  O   UNL     1      -0.706   3.159   0.025  0.00  0.00    -0.461 OA
ENDBRANCH   2  12
BRANCH   5  17
ATOM     17  N   UNL     1      -5.895   1.511   1.185  0.00  0.00    -0.343 N 
ATOM     18  H   UNL     1      -6.681   0.998   0.941  0.00  0.00    +0.144 HD
ATOM     19  H   UNL     1      -5.957   2.199   1.867  0.00  0.00    +0.144 HD
ENDBRANCH   5  17
BRANCH   4  20
ATOM     20  C   UNL     1      -5.434  -0.587  -0.979  0.00  0.00    +0.104 C 
ATOM     21  N   UNL     1      -6.200  -1.300  -1.421  0.00  0.00    -0.191 NA
ENDBRANCH   4  20
BRANCH   3  22
ATOM     22  C   UNL     1      -2.339  -0.370  -1.755  0.00  0.00    +0.103 C 
ATOM     23  N   UNL     1      -1.784  -0.990  -2.528  0.00  0.00    -0.191 NA
ENDBRANCH   3  22
TORSDOF 5
