REMARK  Name = ZINC52297987
REMARK  2 active torsions:
REMARK  status: ('A' for Active; 'I' for Inactive)
REMARK    1  A    between atoms: C_1  and  C_2
REMARK    2  A    between atoms: C_5  and  N_7
REMARK                            x       y       z     vdW  Elec       q    Type
REMARK                         _______ _______ _______ _____ _____    ______ ____
ROOT
ATOM      1  N   UNL     1       1.414  -1.953   0.877  0.00  0.00    -0.324 N 
ATOM      2  C   UNL     1       2.461  -2.362   1.696  0.00  0.00    +0.156 A 
ATOM      3  C   UNL     1       3.146  -3.545   1.417  0.00  0.00    +0.169 A 
ATOM      4  N   UNL     1       4.139  -3.928   2.197  0.00  0.00    -0.239 NA
ATOM      5  C   UNL     1       4.485  -3.192   3.241  0.00  0.00    +0.132 A 
ATOM      6  C   UNL     1       3.808  -2.021   3.519  0.00  0.00    +0.132 A 
ATOM      7  N   UNL     1       2.815  -1.626   2.740  0.00  0.00    -0.236 NA
ATOM      8 CL   UNL     1       2.692  -4.511   0.048  0.00  0.00    -0.058 Cl
ATOM      9  H   UNL     1       1.156  -2.493   0.113  0.00  0.00    +0.148 HD
ENDROOT
BRANCH   1  13
ATOM     10  C   UNL     1      -0.019   1.526   0.010  0.00  0.00    +0.009 C 
ATOM     11  C   UNL     1       0.002  -0.004   0.002  0.00  0.00    +0.008 C 
ATOM     12  C   UNL     1      -0.828  -0.728   1.065  0.00  0.00    +0.027 C 
ATOM     13  C   UNL     1       0.700  -0.708   1.168  0.00  0.00    +0.075 C 
ENDBRANCH   1  13
TORSDOF 1
