REMARK  Name = ZINC38971454
REMARK  4 active torsions:
REMARK  status: ('A' for Active; 'I' for Inactive)
REMARK    1  A    between atoms: C_1  and  C_2
REMARK    2  A    between atoms: C_4  and  C_8
REMARK    3  A    between atoms: C_16  and  C_19
REMARK    4  A    between atoms: C_22  and  C_25
REMARK                            x       y       z     vdW  Elec       q    Type
REMARK                         _______ _______ _______ _____ _____    ______ ____
ROOT
ATOM      1  C   UNL     1      -0.976  -2.937  -1.266  0.00  0.00    +0.206 C 
ATOM      2  N   UNL     1      -0.320  -2.367  -2.478  0.00  0.00    -0.231 NA
ATOM      3  N   UNL     1      -0.404  -3.462  -3.457  0.00  0.00    -0.225 NA
ATOM      4  C   UNL     1      -0.314  -4.705  -2.672  0.00  0.00    +0.234 C 
ATOM      5  N   UNL     1      -0.488  -4.323  -1.249  0.00  0.00    -0.207 N 
ATOM      6  N   UNL     1      -0.153  -5.126  -0.167  0.00  0.00    -0.184 NA
ATOM      7  C   UNL     1       0.629  -6.138  -0.235  0.00  0.00    +0.076 C 
ATOM      8  C   UNL     1       1.297  -6.686  -1.460  0.00  0.00    +0.129 C 
ATOM      9  S   UNL     1       1.352  -5.432  -2.799  0.00  0.00    -0.114 S 
ATOM     10  H   UNL     1       0.641  -2.125  -2.289  0.00  0.00    +0.143 HD
ATOM     11  H   UNL     1       0.345  -3.404  -4.130  0.00  0.00    +0.143 HD
ENDROOT
BRANCH   1  15
ATOM     12  C   UNL     1      -0.018   1.503   0.010  0.00  0.00    +0.067 C 
ATOM     13  C   UNL     1       0.002  -0.004   0.002  0.00  0.00    +0.058 C 
ATOM     14  C   UNL     1      -1.086  -0.777   0.003  0.00  0.00    +0.029 C 
ATOM     15  C   UNL     1      -0.531  -2.190  -0.007  0.00  0.00    +0.190 C 
ATOM     16  N   UNL     1       0.926  -1.973  -0.013  0.00  0.00    -0.177 NA
ATOM     17  N   UNL     1       1.125  -0.756  -0.013  0.00  0.00    -0.159 NA
ENDBRANCH   1  15
BRANCH   7  18
ATOM     18  C   UNL     1       0.903  -6.841   1.030  0.00  0.00    -0.001 A 
ATOM     19  C   UNL     1       1.751  -7.952   1.045  0.00  0.00    +0.010 A 
ATOM     20  C   UNL     1       2.006  -8.608   2.228  0.00  0.00    +0.009 A 
ATOM     21  C   UNL     1       1.417  -8.164   3.413  0.00  0.00    -0.018 A 
ATOM     22  C   UNL     1       0.570  -7.055   3.400  0.00  0.00    +0.009 A 
ATOM     23  C   UNL     1       0.318  -6.394   2.219  0.00  0.00    +0.010 A 
BRANCH  21  24
ATOM     24  C   UNL     1       1.693  -8.871   4.686  0.00  0.00    -0.018 A 
ATOM     25  C   UNL     1       2.543  -9.976   4.704  0.00  0.00    +0.008 A 
ATOM     26  C   UNL     1       2.796 -10.630   5.892  0.00  0.00    +0.001 A 
ATOM     27  C   UNL     1       2.207 -10.192   7.065  0.00  0.00    +0.000 A 
ATOM     28  C   UNL     1       1.362  -9.097   7.053  0.00  0.00    +0.001 A 
ATOM     29  C   UNL     1       1.107  -8.430   5.872  0.00  0.00    +0.008 A 
ENDBRANCH  21  24
ENDBRANCH   7  18
TORSDOF 3
