REMARK  Name = ZINC06445686
REMARK  7 active torsions:
REMARK  status: ('A' for Active; 'I' for Inactive)
REMARK    1  A    between atoms: C_6  and  C_7
REMARK    2  A    between atoms: C_9  and  C_18
REMARK    3  A    between atoms: N_13  and  C_14
REMARK    4  A    between atoms: C_14  and  C_15
REMARK    5  A    between atoms: C_15  and  O_16
REMARK    6  A    between atoms: C_18  and  C_20
REMARK    7  A    between atoms: C_23  and  N_26
REMARK                            x       y       z     vdW  Elec       q    Type
REMARK                         _______ _______ _______ _____ _____    ______ ____
ROOT
ATOM      1  C   UNL     1      -2.808  -4.378  -0.209  0.00  0.00    +0.145 C 
ATOM      2  C   UNL     1      -1.489  -4.972   0.228  0.00  0.00    +0.076 C 
ATOM      3  C   UNL     1      -1.728  -6.267   0.542  0.00  0.00    +0.249 C 
ATOM      4  C   UNL     1      -3.160  -6.562   0.324  0.00  0.00    +0.288 C 
ATOM      5  O   UNL     1      -3.687  -7.640   0.517  0.00  0.00    -0.266 OA
ATOM      6  N   UNL     1      -3.794  -5.461  -0.119  0.00  0.00    -0.281 N 
ATOM      7  O   UNL     1      -0.804  -7.150   0.985  0.00  0.00    -0.282 OA
ENDROOT
BRANCH   1  13
ATOM      8  C   UNL     1      -3.403  -1.980   0.186  0.00  0.00    +0.007 A 
ATOM      9  C   UNL     1      -3.762  -0.940   1.024  0.00  0.00    +0.015 A 
ATOM     10  C   UNL     1      -3.901  -1.163   2.382  0.00  0.00    +0.018 A 
ATOM     11  C   UNL     1      -3.687  -2.427   2.901  0.00  0.00    +0.015 A 
ATOM     12  C   UNL     1      -3.333  -3.467   2.062  0.00  0.00    +0.007 A 
ATOM     13  C   UNL     1      -3.194  -3.244   0.705  0.00  0.00    -0.022 A 
ATOM     14 BR   UNL     1      -4.386   0.261   3.529  0.00  0.00    -0.050 Br
ENDBRANCH   1  13
BRANCH   2  15
ATOM     15  C   UNL     1      -0.200  -4.278   0.304  0.00  0.00    +0.195 C 
ATOM     16  O   UNL     1       0.335  -4.104   1.383  0.00  0.00    -0.287 OA
BRANCH  15  17
ATOM     17  C   UNL     1       0.451  -3.790  -0.931  0.00  0.00    +0.022 A 
ATOM     18  C   UNL     1       1.631  -3.048  -0.855  0.00  0.00    +0.014 A 
ATOM     19  C   UNL     1       2.233  -2.595  -2.011  0.00  0.00    +0.033 A 
ATOM     20  C   UNL     1       1.669  -2.874  -3.243  0.00  0.00    +0.126 A 
ATOM     21  C   UNL     1       0.495  -3.604  -3.325  0.00  0.00    +0.033 A 
ATOM     22  C   UNL     1      -0.114  -4.067  -2.178  0.00  0.00    +0.014 A 
BRANCH  20  23
ATOM     23  N   UNL     1       2.319  -2.384  -4.479  0.00  0.00    +0.056 N 
ATOM     24  O   UNL     1       3.349  -1.737  -4.410  0.00  0.00    -0.126 OA
ATOM     25  O   UNL     1       1.828  -2.632  -5.566  0.00  0.00    -0.126 OA
ENDBRANCH  20  23
ENDBRANCH  15  17
ENDBRANCH   2  15
BRANCH   6  26
ATOM     26  C   UNL     1      -5.218  -5.360  -0.448  0.00  0.00    +0.137 C 
BRANCH  26  27
ATOM     27  C   UNL     1      -6.022  -5.128   0.833  0.00  0.00    +0.175 C 
BRANCH  27  28
ATOM     28  O   UNL     1      -5.751  -3.818   1.335  0.00  0.00    -0.393 OA
ATOM     29  H   UNL     1      -6.242  -3.469   2.256  0.00  0.00    +0.209 HD
ENDBRANCH  27  28
ENDBRANCH  26  27
ENDBRANCH   6  26
TORSDOF 7
