REMARK  Name = ZINC39265503
REMARK  7 active torsions:
REMARK  status: ('A' for Active; 'I' for Inactive)
REMARK    1  A    between atoms: C_1  and  C_2
REMARK    2  A    between atoms: C_2  and  C_4
REMARK    3  A    between atoms: C_2  and  S_17
REMARK    4  A    between atoms: N_6  and  C_7
REMARK    5  A    between atoms: C_7  and  C_8
REMARK    6  A    between atoms: C_14  and  O_16
REMARK    7  A    between atoms: S_17  and  C_18
REMARK                            x       y       z     vdW  Elec       q    Type
REMARK                         _______ _______ _______ _____ _____    ______ ____
ROOT
ATOM      1  C   UNL     1      -0.019   1.526   0.010  0.00  0.00    +0.029 C 
ATOM      2  C   UNL     1       0.002  -0.004   0.002  0.00  0.00    +0.131 C 
ENDROOT
BRANCH   2   3
ATOM      3  C   UNL     1       0.731  -0.503   1.223  0.00  0.00    +0.226 C 
ATOM      4  O   UNL     1       0.105  -0.891   2.187  0.00  0.00    -0.275 OA
ATOM      5  N   UNL     1       2.079  -0.519   1.244  0.00  0.00    -0.314 N 
ATOM      6  H   UNL     1       2.579  -0.208   0.473  0.00  0.00    +0.149 HD
BRANCH   5   7
ATOM      7  C   UNL     1       2.787  -1.004   2.431  0.00  0.00    +0.110 C 
BRANCH   7   8
ATOM      8  C   UNL     1       4.296  -0.916   2.195  0.00  0.00    +0.035 C 
ATOM      9  C   UNL     1       4.693  -1.871   1.068  0.00  0.00    +0.007 C 
ATOM     10  C   UNL     1       6.202  -1.784   0.833  0.00  0.00    +0.000 C 
ATOM     11  C   UNL     1       6.942  -2.172   2.114  0.00  0.00    +0.003 C 
ATOM     12  C   UNL     1       6.545  -1.216   3.242  0.00  0.00    +0.031 C 
ATOM     13  C   UNL     1       5.036  -1.304   3.477  0.00  0.00    +0.119 C 
BRANCH  13  14
ATOM     14  O   UNL     1       4.688  -2.642   3.841  0.00  0.00    -0.391 OA
ATOM     15  H   UNL     1       5.121  -2.955   4.647  0.00  0.00    +0.210 HD
ENDBRANCH  13  14
ENDBRANCH   7   8
ENDBRANCH   5   7
ENDBRANCH   2   3
BRANCH   2  16
ATOM     16  S   UNL     1      -1.700  -0.632   0.015  0.00  0.00    -0.120 S 
BRANCH  16  17
ATOM     17  C   UNL     1      -2.384  -0.077  -1.571  0.00  0.00    +0.184 C 
ATOM     18  C   UNL     1      -3.104  -1.213  -2.255  0.00  0.00    +0.117 C 
ATOM     19  N   UNL     1      -4.273  -1.730  -2.097  0.00  0.00    -0.234 NA
ATOM     20  C   UNL     1      -4.436  -2.742  -2.975  0.00  0.00    +0.224 C 
ATOM     21  N   UNL     1      -3.372  -2.906  -3.727  0.00  0.00    -0.215 NA
ATOM     22  C   UNL     1      -2.455  -1.987  -3.358  0.00  0.00    +0.182 C 
ATOM     23  N   UNL     1      -1.242  -1.714  -3.771  0.00  0.00    -0.194 NA
ATOM     24  C   UNL     1      -0.578  -0.700  -3.128  0.00  0.00    +0.211 C 
ATOM     25  N   UNL     1      -1.292   0.311  -2.493  0.00  0.00    -0.297 N 
ATOM     26  N   UNL     1       0.727  -0.683  -3.112  0.00  0.00    -0.269 NA
ATOM     27  H   UNL     1       1.226  -1.387  -3.555  0.00  0.00    +0.190 HD
ATOM     28  H   UNL     1      -1.083   1.245  -2.651  0.00  0.00    +0.150 HD
ENDBRANCH  16  17
ENDBRANCH   2  16
TORSDOF 6
