REMARK  Name = ZINC63822313
REMARK  5 active torsions:
REMARK  status: ('A' for Active; 'I' for Inactive)
REMARK    1  A    between atoms: C_1  and  C_2
REMARK    2  A    between atoms: C_2  and  C_3
REMARK    3  A    between atoms: C_2  and  C_4
REMARK    4  A    between atoms: C_10  and  C_13
REMARK    5  A    between atoms: C_16  and  C_19
REMARK                            x       y       z     vdW  Elec       q    Type
REMARK                         _______ _______ _______ _____ _____    ______ ____
ROOT
ATOM      1  C   UNL     1       0.707  -0.490  -1.238  0.00  0.00    +0.154 A 
ATOM      2  N   UNL     1       0.355  -0.242  -2.464  0.00  0.00    -0.132 NA
ATOM      3  N   UNL     1       1.166  -0.817  -3.282  0.00  0.00    -0.121 NA
ATOM      4  C   UNL     1       2.062  -1.471  -2.611  0.00  0.00    +0.210 A 
ATOM      5  N   UNL     1       1.847  -1.273  -1.271  0.00  0.00    -0.224 N 
ATOM      6  N   UNL     1       2.717  -1.814  -0.371  0.00  0.00    -0.265 N 
ATOM      7  C   UNL     1       3.517  -2.959  -0.881  0.00  0.00    +0.182 C 
ATOM      8  S   UNL     1       3.485  -2.539  -2.676  0.00  0.00    -0.058 S 
ATOM      9  H   UNL     1       3.314  -1.104   0.026  0.00  0.00    +0.168 HD
ENDROOT
BRANCH   7  10
ATOM     10  C   UNL     1       2.822  -4.296  -0.611  0.00  0.00    +0.185 C 
ATOM     11  C   UNL     1       3.686  -5.453  -1.080  0.00  0.00    +0.034 C 
ATOM     12  C   UNL     1       2.934  -6.053  -2.027  0.00  0.00    +0.098 C 
ATOM     13  N   UNL     1       1.749  -5.402  -2.174  0.00  0.00    -0.153 NA
ATOM     14  N   UNL     1       1.606  -4.424  -1.431  0.00  0.00    -0.177 NA
BRANCH  12  15
ATOM     15  C   UNL     1       3.342  -7.248  -2.797  0.00  0.00    +0.039 A 
ATOM     16  C   UNL     1       2.657  -7.920  -3.774  0.00  0.00    +0.018 A 
ATOM     17  C   UNL     1       3.245  -9.021  -4.357  0.00  0.00    +0.008 A 
ATOM     18  C   UNL     1       4.481  -9.406  -3.946  0.00  0.00    +0.046 A 
ATOM     19  S   UNL     1       4.858  -8.185  -2.699  0.00  0.00    -0.095 S 
ENDBRANCH  12  15
ENDBRANCH   7  10
BRANCH   1  21
ATOM     20  C   UNL     1      -0.019   1.526   0.010  0.00  0.00    +0.015 C 
ATOM     21  C   UNL     1       0.002  -0.004   0.002  0.00  0.00    +0.052 C 
ATOM     22  C   UNL     1      -1.433  -0.534   0.013  0.00  0.00    +0.015 C 
ENDBRANCH   1  21
TORSDOF 3
