REMARK  Name = ZINC15677170
REMARK  3 active torsions:
REMARK  status: ('A' for Active; 'I' for Inactive)
REMARK    1  A    between atoms: C_5  and  S_8
REMARK    2  A    between atoms: S_8  and  N_11
REMARK    3  A    between atoms: C_14  and  N_51
REMARK                            x       y       z     vdW  Elec       q    Type
REMARK                         _______ _______ _______ _____ _____    ______ ____
ROOT
ATOM      1  S   UNL     1       2.703   1.572  -0.015  0.00  0.00    +0.062 S 
ATOM      2  O   UNL     1       2.607   0.598  -1.044  0.00  0.00    -0.153 OA
ATOM      3  O   UNL     1       3.726   2.558   0.008  0.00  0.00    -0.153 OA
ENDROOT
BRANCH   1   8
ATOM      4  C   UNL     1      -1.230   2.405   0.021  0.00  0.00    +0.049 A 
ATOM      5  C   UNL     1      -1.246   3.790   0.034  0.00  0.00    +0.077 A 
ATOM      6  C   UNL     1      -0.047   4.501   0.026  0.00  0.00    +0.144 A 
ATOM      7  C   UNL     1       1.158   3.821   0.011  0.00  0.00    +0.077 A 
ATOM      8  C   UNL     1       1.168   2.438   0.004  0.00  0.00    +0.127 A 
ATOM      9  C   UNL     1      -0.021   1.732   0.012  0.00  0.00    +0.069 A 
ATOM     10 CL   UNL     1       0.002  -0.004   0.002  0.00  0.00    -0.081 Cl
ATOM     11  O   UNL     1      -0.076   5.861   0.031  0.00  0.00    -0.481 OA
ATOM     12  C   UNL     1      -1.170   6.484  -0.647  0.00  0.00    +0.325 C 
ATOM     13  C   UNL     1      -2.460   5.808  -0.256  0.00  0.00    +0.255 C 
ATOM     14  O   UNL     1      -3.493   6.442  -0.218  0.00  0.00    -0.272 OA
ATOM     15  N   UNL     1      -2.460   4.492   0.052  0.00  0.00    -0.280 N 
ATOM     16  H   UNL     1      -3.287   4.041   0.281  0.00  0.00    +0.155 HD
ENDBRANCH   1   8
BRANCH   1  17
ATOM     17  N   UNL     1       2.814   0.742   1.414  0.00  0.00    -0.177 NA
ATOM     18  C   UNL     1       3.438   1.360   2.592  0.00  0.00    +0.108 C 
ATOM     19  C   UNL     1       4.534   0.435   3.118  0.00  0.00    +0.002 C 
ATOM     20  C   UNL     1       3.945  -0.955   3.374  0.00  0.00    -0.066 C 
ATOM     21  C   UNL     1       3.410  -1.534   2.062  0.00  0.00    +0.002 C 
ATOM     22  C   UNL     1       2.297  -0.628   1.526  0.00  0.00    +0.108 C 
BRANCH  20  28
ATOM     23  C   UNL     1       4.487  -3.208   4.074  0.00  0.00    -0.078 C 
ATOM     24  C   UNL     1       5.637  -4.128   4.492  0.00  0.00    -0.019 C 
ATOM     25  C   UNL     1       6.237  -3.621   5.807  0.00  0.00    -0.004 C 
ATOM     26  C   UNL     1       6.709  -2.177   5.620  0.00  0.00    -0.019 C 
ATOM     27  C   UNL     1       5.528  -1.313   5.170  0.00  0.00    -0.078 C 
ATOM     28  N   UNL     1       5.012  -1.838   3.888  0.00  0.00    +0.382 N 
ATOM     29  H   UNL     1       5.779  -1.866   3.206  0.00  0.00    -0.081 HD
ENDBRANCH  20  28
ENDBRANCH   1  17
TORSDOF 3
