REMARK  Name = ZINC02940767
REMARK  10 active torsions:
REMARK  status: ('A' for Active; 'I' for Inactive)
REMARK    1  A    between atoms: C_1  and  C_2
REMARK    2  A    between atoms: N_9  and  C_12
REMARK    3  A    between atoms: C_12  and  C_13
REMARK    4  A    between atoms: N_15  and  C_16
REMARK    5  A    between atoms: C_16  and  C_17
REMARK    6  A    between atoms: N_19  and  C_20
REMARK    7  A    between atoms: C_23  and  O_28
REMARK    8  A    between atoms: C_25  and  O_26
REMARK    9  A    between atoms: O_26  and  C_27
REMARK   10  A    between atoms: O_28  and  C_29
REMARK                            x       y       z     vdW  Elec       q    Type
REMARK                         _______ _______ _______ _____ _____    ______ ____
ROOT
ATOM      1  C   UNL     1      -0.755   1.948   1.230  0.00  0.00    +0.233 C 
ATOM      2  O   UNL     1      -1.201   1.149   2.026  0.00  0.00    -0.274 OA
ATOM      3  N   UNL     1      -0.884   3.270   1.458  0.00  0.00    -0.305 N 
ATOM      4  H   UNL     1      -0.479   3.995   0.737  0.00  0.00    +0.149 HD
ENDROOT
BRANCH   1   5
ATOM      5  C   UNL     1      -0.054   1.462  -0.013  0.00  0.00    +0.221 C 
BRANCH   5  14
ATOM      6  C   UNL     1      -2.646  -5.480  -1.565  0.00  0.00    +0.051 C 
ATOM      7  C   UNL     1      -1.788  -4.344  -1.068  0.00  0.00    -0.010 A 
ATOM      8  C   UNL     1      -2.011  -3.025  -1.175  0.00  0.00    +0.026 A 
ATOM      9  C   UNL     1      -1.045  -2.096  -0.620  0.00  0.00    +0.072 A 
ATOM     10  C   UNL     1       0.068  -2.694  -0.002  0.00  0.00    +0.115 A 
ATOM     11  S   UNL     1      -0.236  -4.431  -0.196  0.00  0.00    -0.074 S 
ATOM     12  N   UNL     1       1.037  -1.972   0.553  0.00  0.00    -0.230 NA
ATOM     13  C   UNL     1       0.994  -0.666   0.541  0.00  0.00    +0.203 A 
ATOM     14  N   UNL     1      -0.045  -0.002  -0.028  0.00  0.00    -0.290 N 
ATOM     15  C   UNL     1      -1.063  -0.663  -0.610  0.00  0.00    +0.263 A 
ATOM     16  O   UNL     1      -1.986  -0.052  -1.120  0.00  0.00    -0.267 OA
ENDBRANCH   5  14
ENDBRANCH   1   5
BRANCH   3  17
ATOM     17  C   UNL     1      -1.565   3.742   2.667  0.00  0.00    +0.200 C 
BRANCH  17  18
ATOM     18  C   UNL     1      -1.575   5.249   2.681  0.00  0.00    +0.234 C 
ATOM     19  O   UNL     1      -1.063   5.868   1.772  0.00  0.00    -0.274 OA
ATOM     20  N   UNL     1      -2.151   5.909   3.705  0.00  0.00    -0.281 N 
ATOM     21  H   UNL     1      -2.679   5.350   4.492  0.00  0.00    +0.155 HD
BRANCH  20  22
ATOM     22  C   UNL     1      -2.079   7.308   3.767  0.00  0.00    +0.077 A 
ATOM     23  C   UNL     1      -2.107   8.057   2.600  0.00  0.00    +0.050 A 
ATOM     24  C   UNL     1      -2.035   9.436   2.661  0.00  0.00    +0.084 A 
ATOM     25  C   UNL     1      -1.936  10.075   3.889  0.00  0.00    +0.142 A 
ATOM     26  C   UNL     1      -1.909   9.330   5.059  0.00  0.00    +0.094 A 
ATOM     27  C   UNL     1      -1.986   7.948   5.001  0.00  0.00    +0.145 A 
ATOM     28 CL   UNL     1      -2.069  10.372   1.198  0.00  0.00    -0.080 Cl
BRANCH  27  29
ATOM     29  O   UNL     1      -1.965   7.216   6.147  0.00  0.00    -0.493 OA
ATOM     30  C   UNL     1      -1.868   7.938   7.376  0.00  0.00    +0.277 C 
ENDBRANCH  27  29
BRANCH  25  31
ATOM     31  O   UNL     1      -1.866  11.431   3.947  0.00  0.00    -0.494 OA
ATOM     32  C   UNL     1      -1.766  12.022   5.244  0.00  0.00    +0.277 C 
ENDBRANCH  25  31
ENDBRANCH  20  22
ENDBRANCH  17  18
ENDBRANCH   3  17
TORSDOF 7
