REMARK  Name = ZINC67103556
REMARK  3 active torsions:
REMARK  status: ('A' for Active; 'I' for Inactive)
REMARK    1  A    between atoms: C_4  and  C_7
REMARK    2  A    between atoms: C_7  and  C_8
REMARK    3  A    between atoms: N_10  and  N_11
REMARK                            x       y       z     vdW  Elec       q    Type
REMARK                         _______ _______ _______ _____ _____    ______ ____
ROOT
ATOM      1  N   UNL     1       3.726  -4.016  -3.435  0.00  0.00    -0.218 N 
ATOM      2  C   UNL     1       4.231  -4.685  -4.491  0.00  0.00    +0.319 C 
ATOM      3  O   UNL     1       4.666  -4.073  -5.447  0.00  0.00    -0.251 OA
ATOM      4  N   UNL     1       4.253  -6.033  -4.487  0.00  0.00    -0.284 N 
ATOM      5  C   UNL     1       4.909  -6.774  -5.572  0.00  0.00    +0.114 C 
ATOM      6  C   UNL     1       3.912  -7.780  -6.155  0.00  0.00    +0.084 C 
ATOM      7  C   UNL     1       3.364  -8.660  -5.030  0.00  0.00    +0.173 C 
ATOM      8  C   UNL     1       2.637  -7.795  -3.999  0.00  0.00    +0.084 C 
ATOM      9  C   UNL     1       3.628  -6.788  -3.393  0.00  0.00    +0.114 C 
ATOM     10  O   UNL     1       2.455  -9.625  -5.574  0.00  0.00    -0.346 OA
ATOM     11  C   UNL     1       2.977 -10.931  -5.258  0.00  0.00    +0.191 C 
ATOM     12  C   UNL     1       3.911 -10.653  -4.054  0.00  0.00    +0.191 C 
ATOM     13  O   UNL     1       4.450  -9.352  -4.393  0.00  0.00    -0.346 OA
ATOM     14  H   UNL     1       3.448  -4.500  -2.642  0.00  0.00    +0.174 HD
ENDROOT
BRANCH   1  17
ATOM     15  C   UNL     1       3.006  -1.962  -2.471  0.00  0.00    +0.229 C 
ATOM     16  O   UNL     1       2.575  -2.576  -1.518  0.00  0.00    -0.274 OA
ATOM     17  N   UNL     1       3.603  -2.622  -3.483  0.00  0.00    -0.233 N 
ATOM     18  H   UNL     1       3.947  -2.130  -4.246  0.00  0.00    +0.173 HD
BRANCH  15  19
ATOM     19  C   UNL     1       2.873  -0.462  -2.522  0.00  0.00    +0.101 C 
BRANCH  19  23
ATOM     20  C   UNL     1      -0.003   1.522   0.030  0.00  0.00    +0.000 C 
ATOM     21  C   UNL     1       1.431   2.054   0.010  0.00  0.00    +0.000 C 
ATOM     22  C   UNL     1       2.140   1.561  -1.253  0.00  0.00    +0.004 C 
ATOM     23  C   UNL     1       2.164   0.031  -1.260  0.00  0.00    -0.002 C 
ATOM     24  C   UNL     1       0.730  -0.501  -1.239  0.00  0.00    +0.004 C 
ATOM     25  C   UNL     1       0.021  -0.008   0.024  0.00  0.00    +0.000 C 
ENDBRANCH  19  23
ENDBRANCH  15  19
ENDBRANCH   1  17
TORSDOF 3
