REMARK  Name = ZINC56247825
REMARK  7 active torsions:
REMARK  status: ('A' for Active; 'I' for Inactive)
REMARK    1  A    between atoms: C_1  and  C_2
REMARK    2  A    between atoms: C_2  and  C_3
REMARK    3  A    between atoms: C_2  and  C_4
REMARK    4  A    between atoms: C_2  and  N_22
REMARK    5  A    between atoms: C_9  and  N_12
REMARK    6  A    between atoms: N_15  and  C_16
REMARK    7  A    between atoms: N_25  and  C_26
REMARK                            x       y       z     vdW  Elec       q    Type
REMARK                         _______ _______ _______ _____ _____    ______ ____
ROOT
ATOM      1  C   UNL     1      -1.391  -0.478   0.312  0.00  0.00    +0.239 C 
ATOM      2  O   UNL     1      -1.753  -0.581   1.466  0.00  0.00    -0.273 OA
ATOM      3  N   UNL     1      -2.222  -0.830  -0.689  0.00  0.00    -0.300 N 
ATOM      4  C   UNL     1      -1.819  -0.660  -2.091  0.00  0.00    +0.109 C 
ATOM      5  C   UNL     1      -2.895   0.151  -2.819  0.00  0.00    +0.041 C 
ATOM      6  C   UNL     1      -4.253  -0.529  -2.634  0.00  0.00    +0.077 C 
ATOM      7  C   UNL     1      -4.606  -0.573  -1.145  0.00  0.00    +0.041 C 
ATOM      8  C   UNL     1      -3.546  -1.397  -0.398  0.00  0.00    +0.109 C 
ENDROOT
BRANCH   6   9
ATOM      9  N   UNL     1      -5.280   0.226  -3.356  0.00  0.00    -0.296 N 
ATOM     10  C   UNL     1      -6.404  -0.392  -3.771  0.00  0.00    +0.300 C 
ATOM     11  O   UNL     1      -6.566  -1.575  -3.545  0.00  0.00    -0.253 OA
ATOM     12  N   UNL     1      -7.349   0.303  -4.435  0.00  0.00    -0.297 N 
ATOM     13  H   UNL     1      -5.151   1.170  -3.536  0.00  0.00    +0.151 HD
ATOM     14  H   UNL     1      -7.220   1.247  -4.615  0.00  0.00    +0.151 HD
BRANCH  12  15
ATOM     15  C   UNL     1      -8.570  -0.368  -4.886  0.00  0.00    +0.074 C 
ATOM     16  C   UNL     1      -8.317  -1.035  -6.239  0.00  0.00    +0.022 C 
ATOM     17  C   UNL     1      -9.593  -1.736  -6.710  0.00  0.00    +0.002 C 
ATOM     18  C   UNL     1     -10.717  -0.708  -6.851  0.00  0.00    +0.000 C 
ATOM     19  C   UNL     1     -10.971  -0.041  -5.497  0.00  0.00    +0.002 C 
ATOM     20  C   UNL     1      -9.695   0.660  -5.027  0.00  0.00    +0.022 C 
ENDBRANCH  12  15
ENDBRANCH   6   9
BRANCH   1  22
ATOM     21  C   UNL     1       0.631   0.583   1.278  0.00  0.00    +0.041 C 
ATOM     22  C   UNL     1      -0.013   0.045  -0.001  0.00  0.00    +0.107 C 
ATOM     23  C   UNL     1       0.845  -1.088  -0.567  0.00  0.00    +0.041 C 
BRANCH  22  24
ATOM     24  N   UNL     1      -0.112   1.122  -0.988  0.00  0.00    -0.286 N 
ATOM     25  C   UNL     1       1.003   1.740  -1.426  0.00  0.00    +0.300 C 
ATOM     26  O   UNL     1       2.091   1.403  -1.001  0.00  0.00    -0.253 OA
ATOM     27  N   UNL     1       0.912   2.731  -2.334  0.00  0.00    -0.302 N 
ATOM     28  C   UNL     1       2.124   3.403  -2.810  0.00  0.00    +0.129 C 
ATOM     29  H   UNL     1      -0.980   1.391  -1.327  0.00  0.00    +0.151 HD
ATOM     30  H   UNL     1       0.044   3.000  -2.673  0.00  0.00    +0.150 HD
ENDBRANCH  22  24
ENDBRANCH   1  22
TORSDOF 4
