REMARK  Name = ZINC48847248
REMARK  9 active torsions:
REMARK  status: ('A' for Active; 'I' for Inactive)
REMARK    1  A    between atoms: C_1  and  C_2
REMARK    2  A    between atoms: C_2  and  C_3
REMARK    3  A    between atoms: C_2  and  C_4
REMARK    4  A    between atoms: C_4  and  C_5
REMARK    5  A    between atoms: C_5  and  C_7
REMARK    6  A    between atoms: C_5  and  N_20
REMARK    7  A    between atoms: N_9  and  C_10
REMARK    8  A    between atoms: C_13  and  O_19
REMARK    9  A    between atoms: C_15  and  C_16
REMARK                            x       y       z     vdW  Elec       q    Type
REMARK                         _______ _______ _______ _____ _____    ______ ____
ROOT
ATOM      1  C   UNL     1      -2.818  -2.592   0.014  0.00  0.00    +0.203 C 
ATOM      2  O   UNL     1      -3.446  -2.901  -0.977  0.00  0.00    -0.277 OA
ATOM      3  N   UNL     1      -3.371  -2.735   1.234  0.00  0.00    -0.286 N 
ATOM      4  H   UNL     1      -2.842  -2.565   2.030  0.00  0.00    +0.155 HD
ENDROOT
BRANCH   3   5
ATOM      5  C   UNL     1      -4.702  -3.129   1.354  0.00  0.00    +0.048 A 
ATOM      6  C   UNL     1      -5.598  -2.878   0.324  0.00  0.00    +0.028 A 
ATOM      7  C   UNL     1      -6.917  -3.268   0.442  0.00  0.00    +0.047 A 
ATOM      8  C   UNL     1      -7.359  -3.914   1.591  0.00  0.00    +0.118 A 
ATOM      9  C   UNL     1      -6.481  -4.171   2.627  0.00  0.00    +0.062 A 
ATOM     10  C   UNL     1      -5.141  -3.786   2.515  0.00  0.00    +0.088 A 
BRANCH  10  11
ATOM     11  C   UNL     1      -4.198  -4.061   3.611  0.00  0.00    +0.388 C 
ATOM     12  O   UNL     1      -4.560  -4.713   4.580  0.00  0.00    -0.241 OA
ATOM     13  O   UNL     1      -3.051  -3.639   3.551  0.00  0.00    -0.241 OA
ENDBRANCH  10  11
BRANCH   8  14
ATOM     14  O   UNL     1      -8.660  -4.293   1.697  0.00  0.00    -0.507 OA
ATOM     15  H   UNL     1      -8.838  -5.184   1.365  0.00  0.00    +0.292 HD
ENDBRANCH   8  14
ENDBRANCH   3   5
BRANCH   1  16
ATOM     16  C   UNL     1      -1.420  -2.047  -0.120  0.00  0.00    +0.013 C 
BRANCH  16  17
ATOM     17  N   UNL     1      -0.872  -2.421  -1.431  0.00  0.00    +0.386 N 
ATOM     18  H   UNL     1      -1.454  -2.037  -2.161  0.00  0.00    -0.089 HD
ATOM     19  H   UNL     1       0.064  -2.056  -1.521  0.00  0.00    -0.089 HD
ATOM     20  H   UNL     1      -0.850  -3.426  -1.512  0.00  0.00    -0.089 HD
ENDBRANCH  16  17
BRANCH  16  21
ATOM     21  C   UNL     1      -1.452  -0.522   0.002  0.00  0.00    -0.004 C 
BRANCH  21  23
ATOM     22  C   UNL     1      -0.058   1.551  -0.013  0.00  0.00    +0.007 C 
ATOM     23  C   UNL     1      -0.022   0.022  -0.009  0.00  0.00    -0.018 C 
ATOM     24  C   UNL     1       0.720  -0.469   1.236  0.00  0.00    +0.007 C 
ENDBRANCH  21  23
ENDBRANCH  16  21
ENDBRANCH   1  16
TORSDOF 7
