REMARK  Name = ZINC32812213
REMARK  2 active torsions:
REMARK  status: ('A' for Active; 'I' for Inactive)
REMARK    1  A    between atoms: C_5  and  C_6
REMARK    2  A    between atoms: N_12  and  C_13
REMARK                            x       y       z     vdW  Elec       q    Type
REMARK                         _______ _______ _______ _____ _____    ______ ____
ROOT
ATOM      1  C   UNL     1       1.653   3.697   6.288  0.00  0.00    +0.035 C 
ATOM      2  C   UNL     1       1.112   2.774   5.444  0.00  0.00    +0.078 C 
ATOM      3  C   UNL     1       0.873   1.385   5.659  0.00  0.00    +0.256 C 
ATOM      4  O   UNL     1       1.163   0.858   6.718  0.00  0.00    -0.269 OA
ATOM      5  N   UNL     1       0.326   0.683   4.682  0.00  0.00    -0.260 N 
ATOM      6  C   UNL     1       0.008   1.295   3.483  0.00  0.00    +0.161 C 
ATOM      7  N   UNL     1      -0.528   0.772   2.414  0.00  0.00    -0.260 NA
ATOM      8  S   UNL     1       0.512   2.983   3.774  0.00  0.00    -0.049 S 
ATOM      9  H   UNL     1       0.122  -0.389   4.822  0.00  0.00    +0.157 HD
ENDROOT
BRANCH   1  14
ATOM     10  C   UNL     1       2.322   6.124   6.565  0.00  0.00    +0.017 A 
ATOM     11  C   UNL     1       2.348   7.330   5.911  0.00  0.00    +0.023 A 
ATOM     12  C   UNL     1       1.872   7.407   4.639  0.00  0.00    +0.055 A 
ATOM     13  S   UNL     1       1.374   5.781   4.302  0.00  0.00    -0.082 S 
ATOM     14  C   UNL     1       1.800   5.039   5.868  0.00  0.00    +0.014 A 
ATOM     15 BR   UNL     1       1.784   8.919   3.507  0.00  0.00    -0.043 Br
ENDBRANCH   1  14
BRANCH   7  16
ATOM     16  C   UNL     1      -0.789   1.611   1.242  0.00  0.00    +0.108 C 
ATOM     17  C   UNL     1      -0.013   1.086   0.008  0.00  0.00    +0.027 C 
ATOM     18  C   UNL     1      -0.809   1.622  -1.200  0.00  0.00    +0.002 C 
ATOM     19  C   UNL     1      -2.243   1.875  -0.703  0.00  0.00    +0.002 C 
ATOM     20  C   UNL     1      -2.268   1.485   0.789  0.00  0.00    +0.027 C 
ENDBRANCH   7  16
TORSDOF 2
