REMARK  Name = ZINC20762698
REMARK  12 active torsions:
REMARK  status: ('A' for Active; 'I' for Inactive)
REMARK    1  A    between atoms: C_1  and  C_2
REMARK    2  A    between atoms: C_2  and  C_3
REMARK    3  A    between atoms: C_2  and  C_4
REMARK    4  A    between atoms: C_4  and  C_6
REMARK    5  A    between atoms: C_4  and  N_10
REMARK    6  A    between atoms: C_6  and  O_8
REMARK    7  A    between atoms: O_8  and  C_9
REMARK    8  A    between atoms: C_22  and  C_24
REMARK    9  A    between atoms: C_26  and  O_32
REMARK   10  A    between atoms: C_28  and  O_30
REMARK   11  A    between atoms: O_30  and  C_31
REMARK   12  A    between atoms: O_32  and  C_33
REMARK                            x       y       z     vdW  Elec       q    Type
REMARK                         _______ _______ _______ _____ _____    ______ ____
ROOT
ATOM      1  N   UNL     1      -1.148  -2.387  -2.464  0.00  0.00    -0.286 N 
ATOM      2  C   UNL     1      -1.794  -1.211  -2.338  0.00  0.00    +0.304 C 
ATOM      3  O   UNL     1      -1.872  -0.674  -1.250  0.00  0.00    -0.253 OA
ATOM      4  N   UNL     1      -2.354  -0.630  -3.417  0.00  0.00    -0.273 N 
ATOM      5  C   UNL     1      -2.959   0.708  -3.326  0.00  0.00    +0.116 C 
ATOM      6  C   UNL     1      -4.464   0.600  -3.599  0.00  0.00    +0.076 C 
ATOM      7  C   UNL     1      -4.678  -0.279  -4.806  0.00  0.00    +0.066 A 
ATOM      8  C   UNL     1      -3.756  -1.132  -5.301  0.00  0.00    +0.064 A 
ATOM      9  N   UNL     1      -4.312  -1.746  -6.380  0.00  0.00    -0.346 N 
ATOM     10  H   UNL     1      -3.893  -2.414  -6.944  0.00  0.00    +0.167 HD
ATOM     11  C   UNL     1      -5.562  -1.246  -6.517  0.00  0.00    +0.197 A 
ATOM     12  N   UNL     1      -5.771  -0.369  -5.571  0.00  0.00    -0.240 NA
ATOM     13  C   UNL     1      -2.371  -1.316  -4.722  0.00  0.00    +0.156 C 
ATOM     14  H   UNL     1      -1.148  -2.850  -3.316  0.00  0.00    +0.151 HD
ENDROOT
BRANCH  13  15
ATOM     15  C   UNL     1      -1.342  -0.704  -5.637  0.00  0.00    -0.014 A 
ATOM     16  C   UNL     1      -1.466   0.615  -6.030  0.00  0.00    +0.051 A 
ATOM     17  C   UNL     1      -0.519   1.181  -6.872  0.00  0.00    +0.124 A 
ATOM     18  C   UNL     1       0.551   0.421  -7.320  0.00  0.00    +0.091 A 
ATOM     19  C   UNL     1       0.673  -0.902  -6.924  0.00  0.00    +0.124 A 
ATOM     20  C   UNL     1      -0.273  -1.461  -6.077  0.00  0.00    +0.051 A 
BRANCH  19  21
ATOM     21  O   UNL     1       1.720  -1.649  -7.362  0.00  0.00    -0.495 OA
ATOM     22  C   UNL     1       2.659  -1.006  -8.227  0.00  0.00    +0.277 C 
ENDBRANCH  19  21
BRANCH  17  23
ATOM     23  O   UNL     1      -0.641   2.478  -7.259  0.00  0.00    -0.495 OA
ATOM     24  C   UNL     1       0.369   2.994  -8.127  0.00  0.00    +0.277 C 
ENDBRANCH  17  23
ENDBRANCH  13  15
BRANCH   1  25
ATOM     25  C   UNL     1      -0.447  -2.965  -1.315  0.00  0.00    +0.186 C 
BRANCH  25  27
ATOM     26  C   UNL     1      -1.947  -4.963  -1.271  0.00  0.00    +0.009 C 
ATOM     27  C   UNL     1      -1.435  -3.766  -0.465  0.00  0.00    +0.014 C 
ATOM     28  C   UNL     1      -0.732  -4.266   0.799  0.00  0.00    +0.009 C 
ENDBRANCH  25  27
BRANCH  25  29
ATOM     29  C   UNL     1       0.651  -3.875  -1.802  0.00  0.00    +0.328 C 
ATOM     30  O   UNL     1       0.829  -4.025  -2.988  0.00  0.00    -0.249 OA
BRANCH  29  31
ATOM     31  O   UNL     1       1.430  -4.519  -0.919  0.00  0.00    -0.467 OA
ATOM     32  C   UNL     1       2.451  -5.365  -1.452  0.00  0.00    +0.280 C 
ENDBRANCH  29  31
ENDBRANCH  25  29
ENDBRANCH   1  25
TORSDOF 7
