REMARK  Name = ZINC06926434
REMARK  3 active torsions:
REMARK  status: ('A' for Active; 'I' for Inactive)
REMARK    1  A    between atoms: C_6  and  N_7
REMARK    2  A    between atoms: N_7  and  N_8
REMARK    3  A    between atoms: N_8  and  C_9
REMARK                            x       y       z     vdW  Elec       q    Type
REMARK                         _______ _______ _______ _____ _____    ______ ____
ROOT
ATOM      1  N   UNL     1       4.823   0.069  -0.043  0.00  0.00    -0.273 N 
ATOM      2  H   UNL     1       4.809   1.039  -0.038  0.00  0.00    +0.169 HD
ENDROOT
BRANCH   1   3
ATOM      3  C   UNL     1       6.018  -0.598  -0.058  0.00  0.00    +0.108 C 
ATOM      4  C   UNL     1       7.182   0.097  -0.066  0.00  0.00    +0.091 C 
ATOM      5  C   UNL     1       7.396   1.506  -0.060  0.00  0.00    +0.257 C 
ATOM      6  O   UNL     1       6.458   2.283  -0.048  0.00  0.00    -0.269 OA
ATOM      7  N   UNL     1       8.643   1.946  -0.069  0.00  0.00    -0.270 N 
ATOM      8  C   UNL     1       9.684   1.084  -0.083  0.00  0.00    +0.118 C 
ATOM      9  S   UNL     1      11.361   1.427  -0.095  0.00  0.00    -0.027 S 
ATOM     10  S   UNL     1       8.865  -0.504  -0.077  0.00  0.00    -0.060 S 
ATOM     11  H   UNL     1       8.813   2.901  -0.065  0.00  0.00    +0.156 HD
ENDBRANCH   1   3
BRANCH   1  12
ATOM     12  N   UNL     1       3.620  -0.649  -0.036  0.00  0.00    -0.267 N 
ATOM     13  H   UNL     1       3.634  -1.619  -0.041  0.00  0.00    +0.170 HD
BRANCH  12  19
ATOM     14  C   UNL     1       1.206  -0.680  -0.013  0.00  0.00    +0.025 A 
ATOM     15  C   UNL     1       0.002  -0.004   0.002  0.00  0.00    +0.017 A 
ATOM     16  C   UNL     1      -0.017   1.379   0.010  0.00  0.00    +0.018 A 
ATOM     17  C   UNL     1       1.170   2.090   0.002  0.00  0.00    +0.017 A 
ATOM     18  C   UNL     1       2.378   1.420  -0.013  0.00  0.00    +0.025 A 
ATOM     19  C   UNL     1       2.400   0.031  -0.020  0.00  0.00    +0.044 A 
ATOM     20 BR   UNL     1      -1.668   2.301   0.022  0.00  0.00    -0.050 Br
ENDBRANCH  12  19
ENDBRANCH   1  12
TORSDOF 3
