REMARK  Name = ZINC50321228
REMARK  9 active torsions:
REMARK  status: ('A' for Active; 'I' for Inactive)
REMARK    1  A    between atoms: C_1  and  C_2
REMARK    2  A    between atoms: C_2  and  C_3
REMARK    3  A    between atoms: C_2  and  C_4
REMARK    4  A    between atoms: C_5  and  N_21
REMARK    5  A    between atoms: C_6  and  C_10
REMARK    6  A    between atoms: N_12  and  C_13
REMARK    7  A    between atoms: N_12  and  C_14
REMARK    8  A    between atoms: C_14  and  C_15
REMARK    9  A    between atoms: N_18  and  C_20
REMARK                            x       y       z     vdW  Elec       q    Type
REMARK                         _______ _______ _______ _____ _____    ______ ____
ROOT
ATOM      1  C   UNL     1      -1.837   0.235  -0.476  0.00  0.00    +0.060 A 
ATOM      2  C   UNL     1      -2.319  -0.723  -1.312  0.00  0.00    +0.078 A 
ATOM      3  C   UNL     1      -3.545  -1.145  -0.735  0.00  0.00    +0.168 A 
ATOM      4  N   UNL     1      -3.716  -0.441   0.368  0.00  0.00    -0.167 NA
ATOM      5  N   UNL     1      -2.730   0.364   0.540  0.00  0.00    -0.279 N 
ATOM      6  H   UNL     1      -2.638   0.978   1.286  0.00  0.00    +0.189 HD
ENDROOT
BRANCH   3   7
ATOM      7  C   UNL     1      -4.456  -2.174  -1.268  0.00  0.00    +0.269 C 
ATOM      8  O   UNL     1      -4.228  -2.688  -2.347  0.00  0.00    -0.268 OA
ATOM      9  N   UNL     1      -5.541  -2.546  -0.560  0.00  0.00    -0.295 N 
ATOM     10  C   UNL     1      -5.848  -1.885   0.711  0.00  0.00    +0.132 C 
BRANCH   9  11
ATOM     11  C   UNL     1      -6.413  -3.611  -1.062  0.00  0.00    +0.146 C 
BRANCH  11  12
ATOM     12  C   UNL     1      -5.931  -4.941  -0.544  0.00  0.00    +0.007 A 
ATOM     13  C   UNL     1      -5.001  -5.779  -1.167  0.00  0.00    +0.139 A 
ATOM     14  N   UNL     1      -4.838  -6.839  -0.417  0.00  0.00    -0.180 NA
ATOM     15  N   UNL     1      -5.662  -6.708   0.709  0.00  0.00    -0.274 N 
ATOM     16  C   UNL     1      -6.317  -5.533   0.610  0.00  0.00    +0.113 A 
ATOM     17  C   UNL     1      -5.784  -7.674   1.803  0.00  0.00    +0.172 C 
ENDBRANCH  11  12
ENDBRANCH   9  11
ENDBRANCH   3   7
BRANCH   1  19
ATOM     18  C   UNL     1      -0.860   2.499  -0.733  0.00  0.00    +0.014 C 
ATOM     19  C   UNL     1      -0.551   1.004  -0.641  0.00  0.00    +0.033 C 
ATOM     20  C   UNL     1       0.357   0.743   0.562  0.00  0.00    +0.014 C 
ENDBRANCH   1  19
BRANCH   2  21
ATOM     21  N   UNL     1      -1.729  -1.194  -2.493  0.00  0.00    -0.355 N 
ATOM     22  H   UNL     1      -0.882  -0.829  -2.792  0.00  0.00    +0.142 HD
ATOM     23  H   UNL     1      -2.169  -1.886  -3.012  0.00  0.00    +0.142 HD
ENDBRANCH   2  21
TORSDOF 5
