REMARK  Name = ZINC35511899
REMARK  6 active torsions:
REMARK  status: ('A' for Active; 'I' for Inactive)
REMARK    1  A    between atoms: C_1  and  C_2
REMARK    2  A    between atoms: C_2  and  C_3
REMARK    3  A    between atoms: C_9  and  C_25
REMARK    4  A    between atoms: C_29  and  O_31
REMARK    5  A    between atoms: O_31  and  C_32
REMARK    6  A    between atoms: C_32  and  C_33
REMARK                            x       y       z     vdW  Elec       q    Type
REMARK                         _______ _______ _______ _____ _____    ______ ____
ROOT
ATOM      1  C   UNL     1      -1.412  -0.526   0.013  0.00  0.00    +0.103 A 
ATOM      2  N   UNL     1      -2.214  -0.819  -0.992  0.00  0.00    -0.145 NA
ATOM      3  N   UNL     1      -3.385  -1.252  -0.811  0.00  0.00    -0.125 NA
ATOM      4  C   UNL     1      -3.882  -1.438   0.404  0.00  0.00    +0.191 A 
ATOM      5  S   UNL     1      -2.478  -0.931   1.393  0.00  0.00    -0.035 S 
ATOM      6  N   UNL     1      -5.132  -1.900   0.797  0.00  0.00    -0.230 N 
ATOM      7  C   UNL     1      -6.225  -2.308  -0.101  0.00  0.00    +0.152 C 
ATOM      8  C   UNL     1      -7.351  -2.720   0.790  0.00  0.00    +0.072 A 
ATOM      9  C   UNL     1      -8.698  -3.208   0.481  0.00  0.00    +0.199 A 
ATOM     10  O   UNL     1      -9.053  -3.522  -0.641  0.00  0.00    -0.287 OA
ATOM     11  C   UNL     1      -9.589  -3.285   1.667  0.00  0.00    +0.065 A 
ATOM     12  C   UNL     1     -10.951  -3.539   1.510  0.00  0.00    +0.030 A 
ATOM     13  C   UNL     1     -11.764  -3.602   2.621  0.00  0.00    +0.019 A 
ATOM     14  C   UNL     1     -11.227  -3.412   3.888  0.00  0.00    +0.019 A 
ATOM     15  C   UNL     1      -9.884  -3.163   4.054  0.00  0.00    +0.048 A 
ATOM     16  C   UNL     1      -9.040  -3.097   2.945  0.00  0.00    +0.140 A 
ATOM     17  O   UNL     1      -7.721  -2.861   3.138  0.00  0.00    -0.450 OA
ATOM     18  C   UNL     1      -6.936  -2.567   2.083  0.00  0.00    +0.199 A 
ATOM     19  C   UNL     1      -5.554  -2.059   2.068  0.00  0.00    +0.289 C 
ATOM     20  O   UNL     1      -4.891  -1.817   3.057  0.00  0.00    -0.266 OA
ATOM     21 BR   UNL     1     -13.613  -3.945   2.421  0.00  0.00    -0.050 Br
ENDROOT
BRANCH   7  22
ATOM     22  C   UNL     1      -6.644  -1.150  -0.969  0.00  0.00    -0.019 A 
ATOM     23  C   UNL     1      -6.684   0.129  -0.443  0.00  0.00    +0.006 A 
ATOM     24  C   UNL     1      -7.068   1.193  -1.237  0.00  0.00    +0.004 A 
ATOM     25  C   UNL     1      -7.413   0.982  -2.558  0.00  0.00    +0.045 A 
ATOM     26  C   UNL     1      -7.373  -0.299  -3.088  0.00  0.00    +0.121 A 
ATOM     27  C   UNL     1      -6.981  -1.365  -2.291  0.00  0.00    +0.051 A 
BRANCH  26  28
ATOM     28  O   UNL     1      -7.711  -0.509  -4.388  0.00  0.00    -0.492 OA
BRANCH  28  29
ATOM     29  C   UNL     1      -8.098   0.635  -5.151  0.00  0.00    +0.225 C 
ATOM     30  C   UNL     1      -8.440   0.205  -6.578  0.00  0.00    +0.048 C 
ENDBRANCH  28  29
ENDBRANCH  26  28
ENDBRANCH   7  22
BRANCH   1  32
ATOM     31  C   UNL     1      -0.019   1.526   0.010  0.00  0.00    +0.011 C 
ATOM     32  C   UNL     1       0.002  -0.004   0.002  0.00  0.00    +0.061 C 
ENDBRANCH   1  32
TORSDOF 4
