REMARK  Name = ZINC63374787
REMARK  9 active torsions:
REMARK  status: ('A' for Active; 'I' for Inactive)
REMARK    1  A    between atoms: C_1  and  C_2
REMARK    2  A    between atoms: C_2  and  C_3
REMARK    3  A    between atoms: C_2  and  C_4
REMARK    4  A    between atoms: C_4  and  N_5
REMARK    5  A    between atoms: C_6  and  C_8
REMARK    6  A    between atoms: C_13  and  N_14
REMARK    7  A    between atoms: C_30  and  C_35
REMARK    8  A    between atoms: C_39  and  O_41
REMARK    9  A    between atoms: O_41  and  C_42
REMARK                            x       y       z     vdW  Elec       q    Type
REMARK                         _______ _______ _______ _____ _____    ______ ____
ROOT
ATOM      1  N   UNL     1      -5.165  -3.770  -0.638  0.00  0.00    -0.192 N 
ATOM      2  C   UNL     1      -5.958  -3.135  -1.526  0.00  0.00    +0.248 C 
ATOM      3  O   UNL     1      -5.751  -2.975  -2.709  0.00  0.00    -0.273 OA
ATOM      4  C   UNL     1      -7.161  -2.666  -0.737  0.00  0.00    +0.169 C 
ATOM      5  C   UNL     1      -7.292  -1.136  -0.839  0.00  0.00    +0.065 C 
ATOM      6  C   UNL     1      -8.073  -0.694   0.376  0.00  0.00    -0.034 C 
ATOM      7  C   UNL     1      -9.181   0.033   0.475  0.00  0.00    -0.001 A 
ATOM      8  C   UNL     1      -9.980   0.742  -0.537  0.00  0.00    +0.010 A 
ATOM      9  C   UNL     1     -11.089   1.384  -0.084  0.00  0.00    +0.001 A 
ATOM     10  C   UNL     1     -11.477   1.393   1.260  0.00  0.00    +0.002 A 
ATOM     11  C   UNL     1     -10.798   0.776   2.259  0.00  0.00    +0.026 A 
ATOM     12  C   UNL     1      -9.609   0.072   1.907  0.00  0.00    +0.043 A 
ATOM     13  N   UNL     1      -8.768  -0.582   2.650  0.00  0.00    -0.375 N 
ATOM     14  C   UNL     1      -7.679  -1.067   1.799  0.00  0.00    +0.131 C 
ATOM     15  C   UNL     1      -7.566  -2.598   1.845  0.00  0.00    +0.135 C 
ATOM     16  N   UNL     1      -6.815  -3.026   0.653  0.00  0.00    -0.264 N 
ATOM     17  C   UNL     1      -5.679  -3.733   0.599  0.00  0.00    +0.317 C 
ATOM     18  O   UNL     1      -5.171  -4.275   1.561  0.00  0.00    -0.252 OA
ATOM     19  H   UNL     1      -8.847  -0.725   3.607  0.00  0.00    +0.160 HD
ENDROOT
BRANCH   1  25
ATOM     20  C   UNL     1      -2.758  -3.675  -0.920  0.00  0.00    +0.059 A 
ATOM     21  C   UNL     1      -1.559  -4.312  -1.248  0.00  0.00    +0.015 A 
ATOM     22  C   UNL     1      -1.566  -5.639  -1.622  0.00  0.00    +0.001 A 
ATOM     23  C   UNL     1      -2.756  -6.345  -1.674  0.00  0.00    +0.002 A 
ATOM     24  C   UNL     1      -3.949  -5.728  -1.353  0.00  0.00    +0.025 A 
ATOM     25  C   UNL     1      -3.961  -4.394  -0.969  0.00  0.00    +0.058 A 
BRANCH  20  27
ATOM     26  N   UNL     1      -1.600  -1.567  -0.474  0.00  0.00    -0.311 N 
ATOM     27  C   UNL     1      -2.759  -2.255  -0.519  0.00  0.00    +0.246 C 
ATOM     28  O   UNL     1      -3.804  -1.705  -0.230  0.00  0.00    -0.270 OA
ATOM     29  H   UNL     1      -0.767  -2.006  -0.705  0.00  0.00    +0.149 HD
BRANCH  26  30
ATOM     30  C   UNL     1      -1.601  -0.158  -0.075  0.00  0.00    +0.107 C 
BRANCH  30  32
ATOM     31  C   UNL     1      -0.183   1.883   0.187  0.00  0.00    +0.009 C 
ATOM     32  C   UNL     1      -0.169   0.382  -0.107  0.00  0.00    -0.000 C 
ATOM     33  C   UNL     1       0.670  -0.338   0.951  0.00  0.00    +0.009 C 
ENDBRANCH  30  32
ENDBRANCH  26  30
ENDBRANCH  20  27
ENDBRANCH   1  25
BRANCH  15  34
ATOM     34  C   UNL     1      -8.940  -3.216   1.816  0.00  0.00    -0.021 A 
ATOM     35  C   UNL     1      -9.725  -3.104   0.683  0.00  0.00    +0.006 A 
ATOM     36  C   UNL     1     -10.986  -3.670   0.653  0.00  0.00    +0.004 A 
ATOM     37  C   UNL     1     -11.465  -4.350   1.756  0.00  0.00    +0.045 A 
ATOM     38  C   UNL     1     -10.680  -4.464   2.894  0.00  0.00    +0.120 A 
ATOM     39  C   UNL     1      -9.413  -3.900   2.920  0.00  0.00    +0.051 A 
BRANCH  38  40
ATOM     40  O   UNL     1     -11.150  -5.132   3.981  0.00  0.00    -0.495 OA
ATOM     41  C   UNL     1     -12.461  -5.692   3.882  0.00  0.00    +0.277 C 
ENDBRANCH  38  40
ENDBRANCH  15  34
TORSDOF 6
