REMARK  Name = ZINC25695219
REMARK  7 active torsions:
REMARK  status: ('A' for Active; 'I' for Inactive)
REMARK    1  A    between atoms: C_1  and  C_2
REMARK    2  A    between atoms: C_3  and  C_24
REMARK    3  A    between atoms: C_4  and  C_16
REMARK    4  A    between atoms: C_10  and  C_14
REMARK    5  A    between atoms: C_10  and  C_15
REMARK    6  A    between atoms: C_24  and  O_26
REMARK    7  A    between atoms: O_26  and  C_27
REMARK                            x       y       z     vdW  Elec       q    Type
REMARK                         _______ _______ _______ _____ _____    ______ ____
ROOT
ATOM      1  C   UNL     1      -1.192   5.104  -2.421  0.00  0.00    +0.061 C 
ATOM      2  C   UNL     1      -1.153   4.292  -1.152  0.00  0.00    +0.016 C 
ATOM      3  C   UNL     1      -1.618   3.031  -1.151  0.00  0.00    +0.065 C 
ATOM      4  C   UNL     1      -1.587   2.191   0.091  0.00  0.00    +0.095 C 
ATOM      5  C   UNL     1      -1.406   3.046   1.320  0.00  0.00    +0.024 C 
ATOM      6  C   UNL     1      -0.951   4.313   1.216  0.00  0.00    +0.016 C 
ATOM      7  N   UNL     1      -0.645   4.843  -0.008  0.00  0.00    -0.321 N 
ATOM      8  C   UNL     1      -0.772   5.177   2.440  0.00  0.00    +0.058 C 
ATOM      9  C   UNL     1      -0.425   4.298   3.644  0.00  0.00    -0.023 C 
ATOM     10  C   UNL     1      -1.550   3.277   3.841  0.00  0.00    +0.086 C 
ATOM     11  C   UNL     1      -1.723   2.489   2.571  0.00  0.00    +0.162 C 
ATOM     12  O   UNL     1      -2.143   1.351   2.628  0.00  0.00    -0.292 OA
ATOM     13  C   UNL     1       0.894   3.567   3.383  0.00  0.00    +0.011 C 
ATOM     14  C   UNL     1      -0.290   5.169   4.894  0.00  0.00    +0.011 C 
ATOM     15  H   UNL     1       0.015   5.721  -0.067  0.00  0.00    +0.152 HD
ENDROOT
BRANCH   4  16
ATOM     16  C   UNL     1      -0.446   1.211  -0.002  0.00  0.00    +0.002 A 
ATOM     17  C   UNL     1       0.857   1.663  -0.138  0.00  0.00    +0.010 A 
ATOM     18  C   UNL     1       1.875   0.727  -0.226  0.00  0.00    +0.040 A 
ATOM     19  C   UNL     1       1.560  -0.620  -0.176  0.00  0.00    +0.131 A 
ATOM     20  N   UNL     1       0.307  -1.015  -0.046  0.00  0.00    -0.224 NA
ATOM     21  C   UNL     1      -0.687  -0.151   0.040  0.00  0.00    +0.135 A 
ATOM     22 CL   UNL     1      -2.315  -0.729   0.211  0.00  0.00    -0.062 Cl
ATOM     23 CL   UNL     1       2.826  -1.803  -0.286  0.00  0.00    -0.062 Cl
ENDBRANCH   4  16
BRANCH   3  24
ATOM     24  C   UNL     1      -2.147   2.486  -2.345  0.00  0.00    +0.337 C 
ATOM     25  O   UNL     1      -2.291   3.193  -3.325  0.00  0.00    -0.245 OA
BRANCH  24  26
ATOM     26  O   UNL     1      -2.492   1.183  -2.396  0.00  0.00    -0.465 OA
ATOM     27  C   UNL     1      -3.019   0.700  -3.634  0.00  0.00    +0.280 C 
ENDBRANCH  24  26
ENDBRANCH   3  24
TORSDOF 3
