REMARK  Name = ZINC15087357
REMARK  10 active torsions:
REMARK  status: ('A' for Active; 'I' for Inactive)
REMARK    1  A    between atoms: C_1  and  C_2
REMARK    2  A    between atoms: C_2  and  O_3
REMARK    3  A    between atoms: O_3  and  C_4
REMARK    4  A    between atoms: C_4  and  C_6
REMARK    5  A    between atoms: C_6  and  N_7
REMARK    6  A    between atoms: C_13  and  C_31
REMARK    7  A    between atoms: N_22  and  C_25
REMARK    8  A    between atoms: C_34  and  N_37
REMARK    9  A    between atoms: N_37  and  C_38
REMARK   10  A    between atoms: N_37  and  C_39
REMARK                            x       y       z     vdW  Elec       q    Type
REMARK                         _______ _______ _______ _____ _____    ______ ____
ROOT
ATOM      1  N   UNL     1       1.451  -3.796  -2.475  0.00  0.00    -0.286 N 
ATOM      2  C   UNL     1       2.472  -4.490  -1.873  0.00  0.00    +0.091 A 
ATOM      3  C   UNL     1       2.334  -5.834  -1.885  0.00  0.00    +0.033 A 
ATOM      4  S   UNL     1       0.788  -6.075  -2.720  0.00  0.00    -0.030 S 
ATOM      5  C   UNL     1       0.410  -4.462  -3.010  0.00  0.00    +0.292 A 
ATOM      6  O   UNL     1      -0.570  -4.005  -3.572  0.00  0.00    -0.259 OA
ATOM      7  C   UNL     1       3.253  -6.893  -1.344  0.00  0.00    +0.072 C 
ATOM      8  C   UNL     1       4.632  -6.300  -1.196  0.00  0.00    +0.110 C 
ATOM      9  C   UNL     1       4.559  -5.119  -0.181  0.00  0.00    +0.152 C 
ATOM     10  S   UNL     1       3.888  -3.714  -1.108  0.00  0.00    -0.093 S 
ATOM     11  C   UNL     1       6.015  -4.999   0.176  0.00  0.00    +0.240 C 
ATOM     12  O   UNL     1       6.603  -3.991   0.504  0.00  0.00    -0.274 OA
ATOM     13  N   UNL     1       6.538  -6.247   0.059  0.00  0.00    -0.209 N 
ATOM     14  C   UNL     1       5.713  -7.114  -0.559  0.00  0.00    +0.232 C 
ATOM     15  O   UNL     1       5.836  -8.320  -0.598  0.00  0.00    -0.274 OA
ENDROOT
BRANCH  13  16
ATOM     16  C   UNL     1       7.804  -6.597   0.549  0.00  0.00    +0.044 A 
ATOM     17  C   UNL     1       8.278  -7.892   0.388  0.00  0.00    +0.024 A 
ATOM     18  C   UNL     1       9.526  -8.235   0.872  0.00  0.00    +0.002 A 
ATOM     19  C   UNL     1      10.302  -7.290   1.518  0.00  0.00    +0.000 A 
ATOM     20  C   UNL     1       9.832  -5.999   1.680  0.00  0.00    +0.002 A 
ATOM     21  C   UNL     1       8.588  -5.649   1.193  0.00  0.00    +0.024 A 
ENDBRANCH  13  16
BRANCH   7  22
ATOM     22  C   UNL     1       2.752  -7.362  -0.003  0.00  0.00    -0.038 A 
ATOM     23  C   UNL     1       2.132  -6.469   0.852  0.00  0.00    +0.006 A 
ATOM     24  C   UNL     1       1.671  -6.895   2.082  0.00  0.00    +0.023 A 
ATOM     25  C   UNL     1       1.831  -8.222   2.461  0.00  0.00    +0.029 A 
ATOM     26  C   UNL     1       2.454  -9.116   1.599  0.00  0.00    +0.023 A 
ATOM     27  C   UNL     1       2.907  -8.685   0.368  0.00  0.00    +0.006 A 
BRANCH  25  28
ATOM     28  N   UNL     1       1.366  -8.656   3.704  0.00  0.00    -0.336 N 
ATOM     29  C   UNL     1       0.605  -7.744   4.561  0.00  0.00    +0.129 C 
ATOM     30  C   UNL     1       1.641 -10.024   4.152  0.00  0.00    +0.129 C 
ENDBRANCH  25  28
ENDBRANCH   7  22
BRANCH   1  31
ATOM     31  C   UNL     1       1.492  -2.333  -2.529  0.00  0.00    +0.246 C 
BRANCH  31  32
ATOM     32  C   UNL     1       0.823  -1.766  -1.303  0.00  0.00    +0.327 C 
ATOM     33  O   UNL     1       0.361  -2.509  -0.469  0.00  0.00    -0.249 OA
BRANCH  32  34
ATOM     34  O   UNL     1       0.742  -0.437  -1.136  0.00  0.00    -0.464 OA
BRANCH  34  36
ATOM     35  C   UNL     1       0.099   1.560   0.063  0.00  0.00    +0.048 C 
ATOM     36  C   UNL     1       0.095   0.030   0.049  0.00  0.00    +0.229 C 
ENDBRANCH  34  36
ENDBRANCH  32  34
ENDBRANCH  31  32
ENDBRANCH   1  31
TORSDOF 7
