REMARK  Name = ZINC09475099
REMARK  6 active torsions:
REMARK  status: ('A' for Active; 'I' for Inactive)
REMARK    1  A    between atoms: C_1  and  C_2
REMARK    2  A    between atoms: C_6  and  N_8
REMARK    3  A    between atoms: C_9  and  C_11
REMARK    4  A    between atoms: C_11  and  N_12
REMARK    5  A    between atoms: C_22  and  C_24
REMARK    6  A    between atoms: N_27  and  C_30
REMARK                            x       y       z     vdW  Elec       q    Type
REMARK                         _______ _______ _______ _____ _____    ______ ____
ROOT
ATOM      1  N   UNL     1       2.711   7.419  -0.181  0.00  0.00    -0.278 N 
ATOM      2  C   UNL     1       3.267   7.251   1.059  0.00  0.00    +0.098 A 
ATOM      3  C   UNL     1       4.648   7.307   1.248  0.00  0.00    +0.074 A 
ATOM      4  C   UNL     1       5.113   7.101   2.621  0.00  0.00    -0.020 A 
ATOM      5  C   UNL     1       4.149   6.882   3.539  0.00  0.00    +0.013 A 
ATOM      6  S   UNL     1       2.632   6.934   2.629  0.00  0.00    -0.073 S 
ATOM      7  C   UNL     1       4.342   6.647   5.007  0.00  0.00    +0.150 C 
ATOM      8  N   UNL     1       5.790   6.464   5.232  0.00  0.00    -0.297 N 
ATOM      9  C   UNL     1       6.707   7.362   4.514  0.00  0.00    +0.113 C 
ATOM     10  C   UNL     1       6.586   7.122   3.008  0.00  0.00    +0.056 C 
ATOM     11  C   UNL     1       6.253   5.510   6.063  0.00  0.00    +0.213 C 
ATOM     12  O   UNL     1       7.447   5.319   6.161  0.00  0.00    -0.276 OA
ATOM     13  C   UNL     1       5.288   4.681   6.871  0.00  0.00    +0.109 C 
ATOM     14  C   UNL     1       5.452   7.572   0.035  0.00  0.00    +0.270 A 
ATOM     15  O   UNL     1       6.665   7.644   0.103  0.00  0.00    -0.266 OA
ATOM     16  N   UNL     1       4.826   7.732  -1.145  0.00  0.00    -0.228 N 
ATOM     17  C   UNL     1       3.489   7.657  -1.254  0.00  0.00    +0.338 A 
ATOM     18  O   UNL     1       2.971   7.809  -2.344  0.00  0.00    -0.246 OA
ENDROOT
BRANCH  16  19
ATOM     19  C   UNL     1       5.590   7.984  -2.292  0.00  0.00    +0.056 A 
ATOM     20  C   UNL     1       6.046   9.268  -2.557  0.00  0.00    +0.026 A 
ATOM     21  C   UNL     1       6.803   9.513  -3.686  0.00  0.00    +0.003 A 
ATOM     22  C   UNL     1       7.098   8.482  -4.559  0.00  0.00    +0.020 A 
ATOM     23  C   UNL     1       6.641   7.202  -4.301  0.00  0.00    +0.043 A 
ATOM     24  C   UNL     1       5.887   6.950  -3.170  0.00  0.00    +0.046 A 
ATOM     25 CL   UNL     1       7.014   5.910  -5.400  0.00  0.00    -0.083 Cl
ENDBRANCH  16  19
BRANCH   1  26
ATOM     26  C   UNL     1       1.256   7.344  -0.340  0.00  0.00    +0.223 C 
BRANCH  26  28
ATOM     27  N   UNL     1      -0.442   5.611  -0.820  0.00  0.00    -0.284 N 
ATOM     28  C   UNL     1       0.856   5.921  -0.634  0.00  0.00    +0.237 C 
ATOM     29  O   UNL     1       1.702   5.055  -0.704  0.00  0.00    -0.274 OA
ATOM     30  H   UNL     1      -1.111   6.313  -0.836  0.00  0.00    +0.155 HD
BRANCH  27  36
ATOM     31  C   UNL     1      -3.476   2.302  -2.826  0.00  0.00    +0.044 C 
ATOM     32  C   UNL     1      -2.292   2.644  -1.958  0.00  0.00    -0.049 A 
ATOM     33  C   UNL     1      -1.582   1.637  -1.330  0.00  0.00    +0.003 A 
ATOM     34  C   UNL     1      -0.492   1.945  -0.537  0.00  0.00    +0.002 A 
ATOM     35  C   UNL     1      -0.112   3.262  -0.366  0.00  0.00    +0.023 A 
ATOM     36  C   UNL     1      -0.826   4.276  -0.991  0.00  0.00    +0.034 A 
ATOM     37  C   UNL     1      -1.920   3.963  -1.787  0.00  0.00    +0.026 A 
ENDBRANCH  27  36
ENDBRANCH  26  28
ENDBRANCH   1  26
TORSDOF 4
