REMARK  Name = ZINC65398240
REMARK  4 active torsions:
REMARK  status: ('A' for Active; 'I' for Inactive)
REMARK    1  A    between atoms: C_1  and  C_2
REMARK    2  A    between atoms: C_2  and  N_3
REMARK    3  A    between atoms: C_4  and  C_8
REMARK    4  A    between atoms: C_16  and  C_20
REMARK                            x       y       z     vdW  Elec       q    Type
REMARK                         _______ _______ _______ _____ _____    ______ ____
ROOT
ATOM      1  C   UNL     1      -1.375  -0.460  -2.627  0.00  0.00    +0.101 C 
ATOM      2  C   UNL     1      -1.970  -1.841  -2.921  0.00  0.00    +0.112 C 
ATOM      3  C   UNL     1      -1.723  -2.247  -4.347  0.00  0.00    +0.219 C 
ATOM      4  O   UNL     1      -1.460  -3.405  -4.590  0.00  0.00    -0.275 OA
ATOM      5  N   UNL     1      -1.784  -1.362  -5.364  0.00  0.00    -0.270 N 
ATOM      6  C   UNL     1      -1.891  -0.006  -5.051  0.00  0.00    +0.125 A 
ATOM      7  C   UNL     1      -1.710   0.456  -3.776  0.00  0.00    +0.031 A 
ATOM      8  C   UNL     1      -1.890   1.842  -3.789  0.00  0.00    +0.105 A 
ATOM      9  N   UNL     1      -2.152   2.206  -5.033  0.00  0.00    -0.171 NA
ATOM     10  N   UNL     1      -2.147   1.055  -5.841  0.00  0.00    -0.263 N 
ATOM     11  H   UNL     1      -2.300   1.030  -6.799  0.00  0.00    +0.190 HD
ATOM     12  H   UNL     1      -1.755  -1.660  -6.287  0.00  0.00    +0.156 HD
ENDROOT
BRANCH   1  14
ATOM     13  N   UNL     1       0.823  -0.401  -1.352  0.00  0.00    -0.249 N 
ATOM     14  C   UNL     1       0.121  -0.572  -2.486  0.00  0.00    +0.136 A 
ATOM     15  N   UNL     1       0.965  -0.852  -3.446  0.00  0.00    -0.219 NA
ATOM     16  C   UNL     1       2.207  -0.870  -2.966  0.00  0.00    +0.245 A 
ATOM     17  N   UNL     1       2.172  -0.594  -1.689  0.00  0.00    -0.158 NA
BRANCH  13  19
ATOM     18  C   UNL     1       0.395   1.435   0.206  0.00  0.00    +0.029 C 
ATOM     19  C   UNL     1       0.286  -0.073  -0.029  0.00  0.00    +0.142 C 
ENDBRANCH  13  19
ENDBRANCH   1  14
BRANCH   8  20
ATOM     20  C   UNL     1      -1.803   2.743  -2.619  0.00  0.00    +0.040 A 
ATOM     21  C   UNL     1      -1.189   3.961  -2.512  0.00  0.00    +0.018 A 
ATOM     22  C   UNL     1      -1.241   4.625  -1.306  0.00  0.00    +0.008 A 
ATOM     23  C   UNL     1      -1.896   4.054  -0.264  0.00  0.00    +0.046 A 
ATOM     24  S   UNL     1      -2.478   2.526  -0.981  0.00  0.00    -0.095 S 
ENDBRANCH   8  20
TORSDOF 3
