REMARK  Name = ZINC09575993
REMARK  6 active torsions:
REMARK  status: ('A' for Active; 'I' for Inactive)
REMARK    1  A    between atoms: N_9  and  C_12
REMARK    2  A    between atoms: C_12  and  O_13
REMARK    3  A    between atoms: O_13  and  C_14
REMARK    4  A    between atoms: C_14  and  C_16
REMARK    5  A    between atoms: N_19  and  S_22
REMARK    6  A    between atoms: S_22  and  C_25
REMARK                            x       y       z     vdW  Elec       q    Type
REMARK                         _______ _______ _______ _____ _____    ______ ____
ROOT
ATOM      1  C   UNL     1      -4.133   3.072   3.030  0.00  0.00    +0.100 C 
ATOM      2  C   UNL     1      -5.341   2.152   3.216  0.00  0.00    +0.032 C 
ATOM      3  C   UNL     1      -5.935   2.370   4.611  0.00  0.00    +0.110 C 
ATOM      4  N   UNL     1      -6.233   3.799   4.780  0.00  0.00    -0.176 NA
ATOM      5  C   UNL     1      -5.164   4.777   4.537  0.00  0.00    +0.110 C 
ATOM      6  C   UNL     1      -4.579   4.532   3.143  0.00  0.00    +0.032 C 
ENDROOT
BRANCH   4   7
ATOM      7  S   UNL     1      -7.745   4.297   5.236  0.00  0.00    +0.064 S 
ATOM      8  O   UNL     1      -8.347   3.202   5.913  0.00  0.00    -0.153 OA
ATOM      9  O   UNL     1      -7.587   5.573   5.841  0.00  0.00    -0.153 OA
BRANCH   7  10
ATOM     10  C   UNL     1      -8.677   4.550   3.762  0.00  0.00    +0.142 A 
ATOM     11  C   UNL     1      -8.682   5.792   3.151  0.00  0.00    +0.069 A 
ATOM     12  C   UNL     1      -9.410   5.989   1.992  0.00  0.00    +0.022 A 
ATOM     13  C   UNL     1     -10.140   4.949   1.448  0.00  0.00    +0.003 A 
ATOM     14  C   UNL     1     -10.139   3.710   2.060  0.00  0.00    +0.022 A 
ATOM     15  C   UNL     1      -9.408   3.510   3.218  0.00  0.00    +0.069 A 
ATOM     16 CL   UNL     1      -9.408   1.953   3.987  0.00  0.00    -0.081 Cl
ATOM     17 CL   UNL     1      -7.770   7.100   3.838  0.00  0.00    -0.081 Cl
ENDBRANCH   7  10
ENDBRANCH   4   7
BRANCH   1  18
ATOM     18  C   UNL     1      -3.525   2.836   1.672  0.00  0.00    +0.312 C 
ATOM     19  O   UNL     1      -3.456   3.742   0.875  0.00  0.00    -0.250 OA
BRANCH  18  20
ATOM     20  O   UNL     1      -3.060   1.619   1.347  0.00  0.00    -0.444 OA
BRANCH  20  21
ATOM     21  C   UNL     1      -2.489   1.465   0.021  0.00  0.00    +0.352 C 
BRANCH  21  30
ATOM     22  C   UNL     1       3.413   2.946  -0.015  0.00  0.00    +0.001 A 
ATOM     23  C   UNL     1       2.926   4.239  -0.003  0.00  0.00    +0.001 A 
ATOM     24  C   UNL     1       1.561   4.477   0.010  0.00  0.00    +0.014 A 
ATOM     25  C   UNL     1       0.678   3.409   0.013  0.00  0.00    +0.049 A 
ATOM     26  C   UNL     1       1.174   2.089   0.002  0.00  0.00    +0.049 A 
ATOM     27  C   UNL     1       2.542   1.867  -0.012  0.00  0.00    +0.014 A 
ATOM     28  C   UNL     1      -0.014   1.210   0.009  0.00  0.00    +0.256 C 
ATOM     29  O   UNL     1       0.002  -0.004   0.002  0.00  0.00    -0.269 OA
ATOM     30  N   UNL     1      -1.117   1.980   0.018  0.00  0.00    -0.199 N 
ATOM     31  C   UNL     1      -0.795   3.287   0.026  0.00  0.00    +0.256 C 
ATOM     32  O   UNL     1      -1.583   4.211   0.038  0.00  0.00    -0.269 OA
ENDBRANCH  21  30
ENDBRANCH  20  21
ENDBRANCH  18  20
ENDBRANCH   1  18
TORSDOF 6
