REMARK  Name = ZINC44167709
REMARK  11 active torsions:
REMARK  status: ('A' for Active; 'I' for Inactive)
REMARK    1  A    between atoms: C_1  and  C_2
REMARK    2  A    between atoms: C_5  and  S_8
REMARK    3  A    between atoms: S_8  and  O_11
REMARK    4  A    between atoms: O_11  and  C_12
REMARK    5  A    between atoms: C_20  and  C_28
REMARK    6  A    between atoms: C_25  and  O_27
REMARK    7  A    between atoms: C_34  and  O_36
REMARK    8  A    between atoms: O_36  and  C_37
REMARK    9  A    between atoms: C_37  and  C_38
REMARK   10  A    between atoms: C_37  and  C_39
REMARK   11  A    between atoms: C_37  and  C_40
REMARK                            x       y       z     vdW  Elec       q    Type
REMARK                         _______ _______ _______ _____ _____    ______ ____
ROOT
ATOM      1  C   UNL     1       2.100  -5.358   1.339  0.00  0.00    +0.198 C 
ATOM      2  C   UNL     1       2.191  -6.719   2.033  0.00  0.00    +0.148 C 
ATOM      3  N   UNL     1       3.096  -7.597   1.273  0.00  0.00    -0.257 N 
ATOM      4  C   UNL     1       4.438  -7.092   0.971  0.00  0.00    +0.136 C 
ATOM      5  C   UNL     1       5.214  -8.059   0.076  0.00  0.00    +0.188 C 
ATOM      6  O   UNL     1       6.463  -7.443  -0.265  0.00  0.00    -0.345 OA
ATOM      7  C   UNL     1       6.346  -6.173  -0.905  0.00  0.00    +0.282 C 
ATOM      8  O   UNL     1       5.592  -5.270  -0.086  0.00  0.00    -0.339 OA
ATOM      9  C   UNL     1       4.289  -5.757   0.229  0.00  0.00    +0.175 C 
ATOM     10  C   UNL     1       3.506  -4.792   1.110  0.00  0.00    +0.178 C 
ATOM     11  C   UNL     1       2.705  -8.822   0.871  0.00  0.00    +0.404 C 
ATOM     12  O   UNL     1       3.469  -9.529   0.245  0.00  0.00    -0.226 OA
ENDROOT
BRANCH   7  13
ATOM     13  C   UNL     1       5.646  -6.344  -2.228  0.00  0.00    +0.008 A 
ATOM     14  C   UNL     1       4.908  -5.303  -2.760  0.00  0.00    +0.008 A 
ATOM     15  C   UNL     1       4.266  -5.460  -3.973  0.00  0.00    +0.000 A 
ATOM     16  C   UNL     1       4.361  -6.658  -4.656  0.00  0.00    +0.000 A 
ATOM     17  C   UNL     1       5.100  -7.699  -4.125  0.00  0.00    +0.000 A 
ATOM     18  C   UNL     1       5.746  -7.540  -2.913  0.00  0.00    +0.008 A 
ENDBRANCH   7  13
BRANCH  10  19
ATOM     19  O   UNL     1       4.172  -4.641   2.365  0.00  0.00    -0.386 OA
ATOM     20  H   UNL     1       3.723  -4.044   2.979  0.00  0.00    +0.210 HD
ENDBRANCH  10  19
BRANCH   1  21
ATOM     21  O   UNL     1       1.439  -5.510   0.082  0.00  0.00    -0.227 OA
BRANCH  21  22
ATOM     22  S   UNL     1      -0.057  -5.231   0.131  0.00  0.00    +0.112 S 
ATOM     23  O   UNL     1      -0.530  -5.770   1.358  0.00  0.00    -0.142 OA
ATOM     24  O   UNL     1      -0.585  -5.625  -1.128  0.00  0.00    -0.142 OA
BRANCH  22  29
ATOM     25  C   UNL     1      -0.750   0.751   0.495  0.00  0.00    +0.044 C 
ATOM     26  C   UNL     1      -0.577  -0.743   0.404  0.00  0.00    -0.050 A 
ATOM     27  C   UNL     1      -0.523  -1.358  -0.833  0.00  0.00    +0.005 A 
ATOM     28  C   UNL     1      -0.364  -2.729  -0.916  0.00  0.00    +0.030 A 
ATOM     29  C   UNL     1      -0.258  -3.484   0.237  0.00  0.00    +0.117 A 
ATOM     30  C   UNL     1      -0.311  -2.868   1.474  0.00  0.00    +0.030 A 
ATOM     31  C   UNL     1      -0.466  -1.497   1.557  0.00  0.00    +0.005 A 
ENDBRANCH  22  29
ENDBRANCH  21  22
ENDBRANCH   1  21
BRANCH  11  32
ATOM     32  O   UNL     1       1.466  -9.262   1.162  0.00  0.00    -0.445 OA
BRANCH  32  33
ATOM     33  C   UNL     1       1.119 -10.571   0.705  0.00  0.00    +0.107 C 
ATOM     34  C   UNL     1       2.074 -11.596   1.317  0.00  0.00    +0.055 C 
ATOM     35  C   UNL     1      -0.316 -10.894   1.127  0.00  0.00    +0.055 C 
ATOM     36  C   UNL     1       1.225 -10.623  -0.821  0.00  0.00    +0.055 C 
ENDBRANCH  32  33
ENDBRANCH  11  32
TORSDOF 7
