REMARK  Name = ZINC43666527
REMARK  3 active torsions:
REMARK  status: ('A' for Active; 'I' for Inactive)
REMARK    1  A    between atoms: C_4  and  C_8
REMARK    2  A    between atoms: C_8  and  N_9
REMARK    3  A    between atoms: C_10  and  N_15
REMARK                            x       y       z     vdW  Elec       q    Type
REMARK                         _______ _______ _______ _____ _____    ______ ____
ROOT
ATOM      1  C   UNL     1       3.711  -0.711  -0.037  0.00  0.00    +0.183 C 
ENDROOT
BRANCH   1   5
ATOM      2  C   UNL     1      -0.017   1.379   0.010  0.00  0.00    +0.018 A 
ATOM      3  C   UNL     1       1.171   2.086   0.002  0.00  0.00    +0.040 A 
ATOM      4  C   UNL     1       2.379   1.411  -0.013  0.00  0.00    +0.128 A 
ATOM      5  C   UNL     1       2.397   0.026  -0.021  0.00  0.00    +0.010 A 
ATOM      6  C   UNL     1       1.209  -0.680  -0.013  0.00  0.00    +0.023 A 
ATOM      7  C   UNL     1       0.002  -0.004   0.002  0.00  0.00    +0.018 A 
ATOM      8 BR   UNL     1      -1.623  -0.971   0.013  0.00  0.00    -0.050 Br
ATOM      9  F   UNL     1       3.539   2.102  -0.021  0.00  0.00    -0.205 F 
ENDBRANCH   1   5
BRANCH   1  10
ATOM     10  N   UNL     1       4.210  -0.852   1.333  0.00  0.00    -0.246 N 
ATOM     11  C   UNL     1       5.011   0.029   1.987  0.00  0.00    +0.128 A 
ATOM     12  C   UNL     1       5.240  -0.475   3.232  0.00  0.00    +0.072 A 
ATOM     13  C   UNL     1       4.560  -1.691   3.334  0.00  0.00    +0.150 A 
ATOM     14  N   UNL     1       3.940  -1.915   2.204  0.00  0.00    -0.177 NA
ATOM     15  I   UNL     1       6.406   0.416   4.727  0.00  0.00    -0.039 I 
BRANCH  11  16
ATOM     16  N   UNL     1       5.507   1.226   1.478  0.00  0.00    -0.343 N 
ATOM     17  H   UNL     1       5.285   1.498   0.574  0.00  0.00    +0.144 HD
ATOM     18  H   UNL     1       6.075   1.788   2.028  0.00  0.00    +0.144 HD
ENDBRANCH  11  16
ENDBRANCH   1  10
TORSDOF 3
