REMARK  Name = ZINC13052125
REMARK  14 active torsions:
REMARK  status: ('A' for Active; 'I' for Inactive)
REMARK    1  A    between atoms: C_1  and  C_2
REMARK    2  A    between atoms: C_4  and  C_11
REMARK    3  A    between atoms: C_5  and  C_10
REMARK    4  A    between atoms: N_6  and  C_7
REMARK    5  A    between atoms: C_7  and  C_8
REMARK    6  A    between atoms: C_7  and  C_9
REMARK    7  A    between atoms: C_11  and  C_13
REMARK    8  A    between atoms: C_13  and  S_14
REMARK    9  A    between atoms: S_14  and  C_15
REMARK   10  A    between atoms: C_19  and  C_31
REMARK   11  A    between atoms: N_25  and  C_26
REMARK   12  A    between atoms: C_26  and  C_27
REMARK   13  A    between atoms: C_27  and  C_29
REMARK   14  A    between atoms: C_27  and  O_30
REMARK                            x       y       z     vdW  Elec       q    Type
REMARK                         _______ _______ _______ _____ _____    ______ ____
ROOT
ATOM      1  C   UNL     1       6.816  -1.779   0.302  0.00  0.00    +0.173 A 
ATOM      2  N   UNL     1       6.008  -2.765  -0.001  0.00  0.00    -0.223 NA
ATOM      3  C   UNL     1       6.466  -4.024  -0.191  0.00  0.00    +0.080 A 
ATOM      4  C   UNL     1       5.602  -5.074  -0.515  0.00  0.00    +0.043 A 
ATOM      5  C   UNL     1       6.119  -6.350  -0.701  0.00  0.00    +0.065 A 
ATOM      6  C   UNL     1       7.493  -6.587  -0.568  0.00  0.00    +0.016 A 
ATOM      7  C   UNL     1       8.346  -5.570  -0.252  0.00  0.00    +0.016 A 
ATOM      8  C   UNL     1       7.850  -4.281  -0.060  0.00  0.00    +0.065 A 
ATOM      9  C   UNL     1       8.734  -3.155   0.281  0.00  0.00    +0.262 A 
ATOM     10  O   UNL     1       9.934  -3.312   0.408  0.00  0.00    -0.267 OA
ATOM     11  N   UNL     1       8.165  -1.938   0.443  0.00  0.00    -0.285 N 
ENDROOT
BRANCH   5  12
ATOM     12  C   UNL     1       5.210  -7.467  -1.045  0.00  0.00    +0.387 C 
ATOM     13  O   UNL     1       4.019  -7.266  -1.162  0.00  0.00    -0.241 OA
ATOM     14  O   UNL     1       5.706  -8.706  -1.227  0.00  0.00    -0.241 OA
ENDBRANCH   5  12
BRANCH   1  15
ATOM     15  S   UNL     1       6.131  -0.172   0.532  0.00  0.00    -0.080 S 
BRANCH  15  16
ATOM     16  C   UNL     1       4.383  -0.529   0.230  0.00  0.00    +0.157 C 
BRANCH  16  17
ATOM     17  C   UNL     1       3.579   0.737   0.375  0.00  0.00    +0.175 C 
ATOM     18  O   UNL     1       4.134   1.779   0.656  0.00  0.00    -0.291 OA
BRANCH  17  22
ATOM     19  C   UNL     1      -1.167  -0.860  -0.569  0.00  0.00    +0.063 C 
ATOM     20  C   UNL     1       0.036  -0.013  -0.241  0.00  0.00    +0.017 A 
ATOM     21  C   UNL     1       1.302  -0.456  -0.162  0.00  0.00    +0.034 A 
ATOM     22  C   UNL     1       2.128   0.711   0.178  0.00  0.00    +0.039 A 
ATOM     23  C   UNL     1       1.254   1.777   0.275  0.00  0.00    +0.027 A 
ATOM     24  N   UNL     1       0.013   1.326   0.022  0.00  0.00    -0.345 N 
ATOM     25  C   UNL     1       1.628   3.199   0.607  0.00  0.00    +0.064 C 
BRANCH  24  26
ATOM     26  C   UNL     1      -1.194   2.157   0.022  0.00  0.00    +0.081 C 
ATOM     27  C   UNL     1      -1.933   1.984  -1.307  0.00  0.00    +0.030 C 
ATOM     28  C   UNL     1      -2.108   1.728   1.173  0.00  0.00    +0.030 C 
ENDBRANCH  24  26
ENDBRANCH  17  22
ENDBRANCH  16  17
ENDBRANCH  15  16
ENDBRANCH   1  15
BRANCH  11  29
ATOM     29  C   UNL     1       9.002  -0.783   0.777  0.00  0.00    +0.158 C 
BRANCH  29  30
ATOM     30  C   UNL     1       9.114  -0.658   2.298  0.00  0.00    +0.131 C 
ATOM     31  C   UNL     1       9.988   0.548   2.647  0.00  0.00    +0.039 C 
BRANCH  30  32
ATOM     32  O   UNL     1       7.811  -0.481   2.859  0.00  0.00    -0.390 OA
ATOM     33  H   UNL     1       7.350   0.307   2.541  0.00  0.00    +0.210 HD
ENDBRANCH  30  32
ENDBRANCH  29  30
ENDBRANCH  11  29
TORSDOF 9
