REMARK  Name = ZINC04860022
REMARK  6 active torsions:
REMARK  status: ('A' for Active; 'I' for Inactive)
REMARK    1  A    between atoms: C_1  and  O_2
REMARK    2  A    between atoms: O_2  and  C_3
REMARK    3  A    between atoms: C_7  and  C_9
REMARK    4  A    between atoms: C_11  and  C_28
REMARK    5  A    between atoms: C_23  and  C_24
REMARK    6  A    between atoms: C_23  and  C_26
REMARK                            x       y       z     vdW  Elec       q    Type
REMARK                         _______ _______ _______ _____ _____    ______ ____
ROOT
ATOM      1  C   UNL     1      -1.293  -0.775   0.010  0.00  0.00    +0.184 C 
ATOM      2  C   UNL     1      -1.648  -1.173   1.454  0.00  0.00    +0.193 C 
ATOM      3  C   UNL     1      -0.607  -2.198   1.894  0.00  0.00    +0.211 C 
ATOM      4  N   UNL     1       0.106  -2.067   2.962  0.00  0.00    -0.269 NA
ATOM      5  O   UNL     1      -0.500  -3.271   1.050  0.00  0.00    -0.446 OA
ATOM      6  C   UNL     1      -1.414  -3.173  -0.055  0.00  0.00    +0.220 C 
ATOM      7  O   UNL     1      -1.149  -1.965  -0.771  0.00  0.00    -0.329 OA
ATOM      8  C   UNL     1      -1.246  -4.378  -0.976  0.00  0.00    +0.079 C 
ATOM      9  C   UNL     1      -2.234  -4.272  -2.141  0.00  0.00    +0.006 C 
ATOM     10  C   UNL     1      -3.663  -4.233  -1.597  0.00  0.00    +0.001 C 
ATOM     11  C   UNL     1      -3.828  -3.021  -0.677  0.00  0.00    +0.012 C 
ATOM     12  C   UNL     1      -2.845  -3.131   0.491  0.00  0.00    +0.097 C 
ATOM     13  C   UNL     1      -2.999  -1.911   1.405  0.00  0.00    +0.181 C 
ATOM     14  H   UNL     1      -0.024  -1.183   3.604  0.00  0.00    +0.190 HD
ENDROOT
BRANCH   1  19
ATOM     15  C   UNL     1       1.176   2.086   0.002  0.00  0.00    +0.120 A 
ATOM     16  C   UNL     1       2.385   1.405  -0.013  0.00  0.00    +0.045 A 
ATOM     17  C   UNL     1       2.398   0.024  -0.021  0.00  0.00    +0.004 A 
ATOM     18  C   UNL     1       1.208  -0.680  -0.014  0.00  0.00    +0.006 A 
ATOM     19  C   UNL     1       0.002  -0.004   0.002  0.00  0.00    -0.013 A 
ATOM     20  C   UNL     1      -0.017   1.377   0.010  0.00  0.00    +0.051 A 
BRANCH  15  22
ATOM     21  C   UNL     1       2.425   4.109   0.001  0.00  0.00    +0.277 C 
ATOM     22  O   UNL     1       1.160   3.445   0.009  0.00  0.00    -0.495 OA
ENDBRANCH  15  22
ENDBRANCH   1  19
BRANCH  13  23
ATOM     23  C   UNL     1      -4.035  -1.014   0.867  0.00  0.00    +0.087 C 
ATOM     24  N   UNL     1      -4.834  -0.322   0.451  0.00  0.00    -0.195 NA
ENDBRANCH  13  23
BRANCH  13  25
ATOM     25  C   UNL     1      -3.377  -2.348   2.759  0.00  0.00    +0.087 C 
ATOM     26  N   UNL     1      -3.668  -2.686   3.804  0.00  0.00    -0.195 NA
ENDBRANCH  13  25
BRANCH   2  27
ATOM     27  C   UNL     1      -1.694  -0.005   2.348  0.00  0.00    +0.084 C 
ATOM     28  N   UNL     1      -1.730   0.897   3.038  0.00  0.00    -0.195 NA
ENDBRANCH   2  27
TORSDOF 5
