REMARK  Name = ZINC58202382
REMARK  5 active torsions:
REMARK  status: ('A' for Active; 'I' for Inactive)
REMARK    1  A    between atoms: C_1  and  C_2
REMARK    2  A    between atoms: C_5  and  C_7
REMARK    3  A    between atoms: C_9  and  C_13
REMARK    4  A    between atoms: N_15  and  C_16
REMARK    5  A    between atoms: C_16  and  C_17
REMARK                            x       y       z     vdW  Elec       q    Type
REMARK                         _______ _______ _______ _____ _____    ______ ____
ROOT
ATOM      1  C   UNL     1       3.535  -6.693  -0.041  0.00  0.00    +0.264 C 
ATOM      2  O   UNL     1       4.651  -6.210  -0.038  0.00  0.00    -0.268 OA
ATOM      3  N   UNL     1       3.380  -8.032  -0.050  0.00  0.00    -0.306 N 
ATOM      4  H   UNL     1       2.490  -8.417  -0.052  0.00  0.00    +0.149 HD
ENDROOT
BRANCH   1   7
ATOM      5  C   UNL     1       1.038  -4.030  -0.024  0.00  0.00    +0.073 A 
ATOM      6  C   UNL     1       2.357  -4.401  -0.026  0.00  0.00    +0.063 A 
ATOM      7  C   UNL     1       2.349  -5.812  -0.035  0.00  0.00    +0.147 A 
ATOM      8  N   UNL     1       1.089  -6.199  -0.038  0.00  0.00    -0.169 NA
ATOM      9  N   UNL     1       0.306  -5.182  -0.025  0.00  0.00    -0.276 N 
ATOM     10  H   UNL     1      -0.663  -5.225  -0.021  0.00  0.00    +0.189 HD
BRANCH   5  15
ATOM     11  C   UNL     1      -0.018   1.503   0.010  0.00  0.00    +0.051 C 
ATOM     12  C   UNL     1       0.002  -0.004   0.002  0.00  0.00    -0.013 A 
ATOM     13  C   UNL     1      -1.042  -0.872   0.002  0.00  0.00    +0.011 A 
ATOM     14  C   UNL     1      -0.790  -2.226  -0.007  0.00  0.00    +0.018 A 
ATOM     15  C   UNL     1       0.512  -2.653  -0.015  0.00  0.00    +0.037 A 
ATOM     16  S   UNL     1       1.406  -1.107  -0.018  0.00  0.00    -0.092 S 
ENDBRANCH   5  15
ENDBRANCH   1   7
BRANCH   3  17
ATOM     17  C   UNL     1       4.556  -8.905  -0.056  0.00  0.00    +0.141 C 
BRANCH  17  18
ATOM     18  C   UNL     1       4.112 -10.345  -0.066  0.00  0.00    -0.012 A 
ATOM     19  C   UNL     1       3.900 -11.022   1.128  0.00  0.00    +0.010 A 
ATOM     20  C   UNL     1       3.493 -12.344   1.074  0.00  0.00    +0.048 A 
ATOM     21  C   UNL     1       3.311 -12.945  -0.166  0.00  0.00    +0.156 A 
ATOM     22  N   UNL     1       3.523 -12.267  -1.282  0.00  0.00    -0.236 NA
ATOM     23  C   UNL     1       3.906 -11.005  -1.262  0.00  0.00    +0.118 A 
ATOM     24  N   UNL     1       2.900 -14.280  -0.234  0.00  0.00    -0.202 N 
ATOM     25  C   UNL     1       2.686 -15.004  -1.351  0.00  0.00    +0.226 A 
ATOM     26  N   UNL     1       2.314 -16.204  -0.991  0.00  0.00    -0.222 NA
ATOM     27  C   UNL     1       2.278 -16.287   0.339  0.00  0.00    +0.245 A 
ATOM     28  N   UNL     1       2.634 -15.136   0.847  0.00  0.00    -0.152 NA
ENDBRANCH  17  18
ENDBRANCH   3  17
TORSDOF 4
