REMARK  Name = ZINC54500766
REMARK  7 active torsions:
REMARK  status: ('A' for Active; 'I' for Inactive)
REMARK    1  A    between atoms: C_1  and  C_2
REMARK    2  A    between atoms: C_4  and  C_26
REMARK    3  A    between atoms: C_6  and  N_8
REMARK    4  A    between atoms: C_9  and  N_14
REMARK    5  A    between atoms: C_11  and  C_13
REMARK    6  A    between atoms: N_14  and  C_15
REMARK    7  A    between atoms: C_15  and  C_25
REMARK                            x       y       z     vdW  Elec       q    Type
REMARK                         _______ _______ _______ _____ _____    ______ ____
ROOT
ATOM      1  N   UNL     1       1.422  -1.258   3.728  0.00  0.00    -0.302 N 
ATOM      2  H   UNL     1       1.491  -0.616   3.004  0.00  0.00    +0.153 HD
ENDROOT
BRANCH   1   3
ATOM      3  C   UNL     1       1.902  -0.950   4.950  0.00  0.00    +0.023 C 
ATOM      4  C   UNL     1       3.234  -0.611   5.105  0.00  0.00    +0.116 C 
ATOM      5  C   UNL     1       4.129  -0.459   3.943  0.00  0.00    +0.256 C 
ATOM      6  O   UNL     1       3.717  -0.629   2.811  0.00  0.00    -0.270 OA
ATOM      7  N   UNL     1       5.416  -0.126   4.169  0.00  0.00    -0.263 N 
ATOM      8  C   UNL     1       5.883   0.064   5.411  0.00  0.00    +0.143 C 
ATOM      9  S   UNL     1       7.532   0.483   5.602  0.00  0.00    -0.018 S 
ATOM     10  N   UNL     1       5.127  -0.057   6.512  0.00  0.00    -0.263 N 
ATOM     11  C   UNL     1       3.820  -0.380   6.437  0.00  0.00    +0.256 C 
ATOM     12  O   UNL     1       3.143  -0.482   7.443  0.00  0.00    -0.270 OA
ATOM     13  C   UNL     1       0.988  -0.976   6.148  0.00  0.00    +0.061 C 
ATOM     14  H   UNL     1       6.018  -0.022   3.416  0.00  0.00    +0.157 HD
ATOM     15  H   UNL     1       5.529   0.095   7.381  0.00  0.00    +0.157 HD
ENDBRANCH   1   3
BRANCH   1  17
ATOM     16  N   UNL     1       0.200  -2.897   2.365  0.00  0.00    -0.218 N 
ATOM     17  C   UNL     1       0.827  -2.497   3.505  0.00  0.00    +0.127 A 
ATOM     18  C   UNL     1       0.766  -3.532   4.389  0.00  0.00    +0.068 A 
ATOM     19  C   UNL     1       0.086  -4.584   3.770  0.00  0.00    +0.062 A 
ATOM     20  N   UNL     1      -0.258  -4.206   2.565  0.00  0.00    -0.170 NA
ATOM     21  C   UNL     1      -0.209  -5.927   4.389  0.00  0.00    +0.067 C 
BRANCH  16  27
ATOM     22  C   UNL     1      -0.532   1.476   0.237  0.00  0.00    +0.044 C 
ATOM     23  C   UNL     1      -0.320  -0.013   0.141  0.00  0.00    -0.048 A 
ATOM     24  C   UNL     1      -0.286  -0.628  -1.097  0.00  0.00    +0.006 A 
ATOM     25  C   UNL     1      -0.091  -1.994  -1.189  0.00  0.00    -0.048 A 
ATOM     26  C   UNL     1       0.070  -2.748  -0.044  0.00  0.00    +0.031 A 
ATOM     27  C   UNL     1       0.037  -2.134   1.201  0.00  0.00    +0.068 A 
ATOM     28  C   UNL     1      -0.153  -0.762   1.290  0.00  0.00    +0.031 A 
ATOM     29  C   UNL     1      -0.055  -2.660  -2.541  0.00  0.00    +0.044 C 
ENDBRANCH  16  27
ENDBRANCH   1  17
TORSDOF 3
