REMARK  Name = ZINC39715746
REMARK  8 active torsions:
REMARK  status: ('A' for Active; 'I' for Inactive)
REMARK    1  A    between atoms: C_1  and  C_2
REMARK    2  A    between atoms: N_4  and  C_5
REMARK    3  A    between atoms: C_7  and  O_31
REMARK    4  A    between atoms: C_15  and  C_17
REMARK    5  A    between atoms: C_15  and  C_18
REMARK    6  A    between atoms: C_20  and  O_22
REMARK    7  A    between atoms: O_22  and  C_23
REMARK    8  A    between atoms: C_26  and  C_29
REMARK                            x       y       z     vdW  Elec       q    Type
REMARK                         _______ _______ _______ _____ _____    ______ ____
ROOT
ATOM      1  C   UNL     1       0.020  -2.136  -1.177  0.00  0.00    +0.173 C 
ATOM      2  C   UNL     1       0.627  -2.631  -2.495  0.00  0.00    +0.172 C 
ATOM      3  C   UNL     1       0.555  -4.158  -2.518  0.00  0.00    +0.183 C 
ATOM      4  C   UNL     1      -0.913  -4.581  -2.373  0.00  0.00    +0.179 C 
ATOM      5  C   UNL     1      -0.985  -6.107  -2.439  0.00  0.00    +0.197 C 
ATOM      6  O   UNL     1      -0.373  -6.535  -3.662  0.00  0.00    -0.347 OA
ATOM      7  C   UNL     1       0.981  -6.108  -3.825  0.00  0.00    +0.165 C 
ATOM      8  O   UNL     1       1.059  -4.680  -3.748  0.00  0.00    -0.341 OA
ATOM      9  C   UNL     1       1.498  -6.571  -5.188  0.00  0.00    +0.074 C 
ATOM     10  C   UNL     1       1.843  -6.723  -2.722  0.00  0.00    +0.074 C 
ATOM     11  O   UNL     1      -1.412  -4.096  -1.129  0.00  0.00    -0.332 OA
ATOM     12  C   UNL     1      -1.409  -2.666  -1.038  0.00  0.00    +0.331 C 
ENDROOT
BRANCH   1  16
ATOM     13  C   UNL     1      -0.018   1.503   0.010  0.00  0.00    +0.109 C 
ATOM     14  C   UNL     1       0.002  -0.004   0.002  0.00  0.00    +0.210 C 
ATOM     15  O   UNL     1       0.020  -0.616   1.049  0.00  0.00    -0.276 OA
ATOM     16  N   UNL     1       0.000  -0.672  -1.169  0.00  0.00    -0.304 N 
ATOM     17  H   UNL     1      -0.015  -0.182  -2.006  0.00  0.00    +0.149 HD
ENDBRANCH   1  16
BRANCH   2  18
ATOM     18  O   UNL     1       1.990  -2.210  -2.585  0.00  0.00    -0.387 OA
ATOM     19  H   UNL     1       2.107  -1.250  -2.561  0.00  0.00    +0.210 HD
ENDBRANCH   2  18
BRANCH  12  20
ATOM     20  O   UNL     1      -1.940  -2.271   0.228  0.00  0.00    -0.462 OA
BRANCH  20  21
ATOM     21  C   UNL     1      -3.240  -2.571   0.471  0.00  0.00    +0.124 A 
ATOM     22  C   UNL     1      -3.989  -3.239  -0.492  0.00  0.00    +0.046 A 
ATOM     23  C   UNL     1      -5.304  -3.545  -0.251  0.00  0.00    +0.014 A 
ATOM     24  C   UNL     1      -5.893  -3.183   0.967  0.00  0.00    +0.014 A 
ATOM     25  C   UNL     1      -5.134  -2.511   1.933  0.00  0.00    +0.014 A 
ATOM     26  C   UNL     1      -3.819  -2.214   1.685  0.00  0.00    +0.046 A 
BRANCH  24  27
ATOM     27  C   UNL     1      -7.300  -3.508   1.230  0.00  0.00    +0.258 C 
ATOM     28  O   UNL     1      -7.808  -3.194   2.286  0.00  0.00    -0.296 OA
ENDBRANCH  24  27
ENDBRANCH  20  21
ENDBRANCH  12  20
TORSDOF 5
