REMARK  Name = ZINC48544744
REMARK  4 active torsions:
REMARK  status: ('A' for Active; 'I' for Inactive)
REMARK    1  A    between atoms: C_1  and  C_2
REMARK    2  A    between atoms: C_2  and  C_25
REMARK    3  A    between atoms: C_6  and  C_12
REMARK    4  A    between atoms: C_15  and  C_17
REMARK                            x       y       z     vdW  Elec       q    Type
REMARK                         _______ _______ _______ _____ _____    ______ ____
ROOT
ATOM      1  C   UNL     1      -0.019   1.526   0.010  0.00  0.00    +0.011 C 
ATOM      2  C   UNL     1       0.002  -0.004   0.002  0.00  0.00    -0.023 C 
ATOM      3  C   UNL     1      -1.432  -0.537   0.030  0.00  0.00    +0.058 C 
ATOM      4  C   UNL     1      -1.412  -2.045   0.071  0.00  0.00    +0.021 C 
ATOM      5  C   UNL     1      -0.392  -2.699   0.670  0.00  0.00    +0.037 C 
ATOM      6  C   UNL     1      -0.424  -4.213   0.687  0.00  0.00    +0.146 C 
ATOM      7  N   UNL     1      -1.577  -4.861   0.038  0.00  0.00    -0.288 N 
ATOM      8  C   UNL     1      -2.517  -4.076  -0.522  0.00  0.00    +0.304 C 
ATOM      9  O   UNL     1      -3.473  -4.599  -1.061  0.00  0.00    -0.252 OA
ATOM     10  N   UNL     1      -2.438  -2.741  -0.505  0.00  0.00    -0.273 N 
ATOM     11  C   UNL     1       0.679  -2.020   1.263  0.00  0.00    +0.163 C 
ATOM     12  O   UNL     1       1.567  -2.651   1.801  0.00  0.00    -0.292 OA
ATOM     13  C   UNL     1       0.743  -0.514   1.242  0.00  0.00    +0.086 C 
ATOM     14  C   UNL     1       0.712  -0.500  -1.259  0.00  0.00    +0.011 C 
ATOM     15  H   UNL     1      -1.656  -5.828   0.015  0.00  0.00    +0.151 HD
ATOM     16  H   UNL     1      -3.151  -2.236  -0.927  0.00  0.00    +0.156 HD
ENDROOT
BRANCH   6  17
ATOM     17  C   UNL     1       0.829  -4.712   0.014  0.00  0.00    +0.015 A 
ATOM     18  C   UNL     1       1.974  -5.174   0.578  0.00  0.00    +0.014 A 
ATOM     19  C   UNL     1       3.006  -5.584  -0.237  0.00  0.00    +0.017 A 
ATOM     20  C   UNL     1       2.840  -5.512  -1.597  0.00  0.00    +0.026 A 
ATOM     21  S   UNL     1       1.184  -4.856  -1.730  0.00  0.00    -0.090 S 
BRANCH  20  22
ATOM     22  C   UNL     1       3.779  -5.884  -2.668  0.00  0.00    +0.026 A 
ATOM     23  C   UNL     1       3.615  -5.807  -4.027  0.00  0.00    +0.016 A 
ATOM     24  C   UNL     1       4.647  -6.217  -4.843  0.00  0.00    +0.008 A 
ATOM     25  C   UNL     1       5.790  -6.684  -4.279  0.00  0.00    +0.046 A 
ATOM     26  S   UNL     1       5.432  -6.546  -2.535  0.00  0.00    -0.096 S 
ENDBRANCH  20  22
ENDBRANCH   6  17
TORSDOF 2
