REMARK  Name = ZINC04983833
REMARK  5 active torsions:
REMARK  status: ('A' for Active; 'I' for Inactive)
REMARK    1  A    between atoms: C_1  and  C_2
REMARK    2  A    between atoms: C_12  and  C_13
REMARK    3  A    between atoms: C_12  and  O_21
REMARK    4  A    between atoms: C_14  and  C_15
REMARK    5  A    between atoms: C_24  and  C_28
REMARK                            x       y       z     vdW  Elec       q    Type
REMARK                         _______ _______ _______ _____ _____    ______ ____
ROOT
ATOM      1  C   UNL     1      -3.542   8.964   2.908  0.00  0.00    +0.007 C 
ATOM      2  C   UNL     1      -3.985   9.241   1.470  0.00  0.00    -0.014 C 
ATOM      3  C   UNL     1      -3.921   7.946   0.659  0.00  0.00    +0.004 C 
ATOM      4  C   UNL     1      -2.487   7.411   0.666  0.00  0.00    +0.020 C 
ATOM      5  C   UNL     1      -1.552   8.455   0.064  0.00  0.00    +0.089 C 
ATOM      6  C   UNL     1      -1.621   9.759   0.851  0.00  0.00    +0.020 C 
ATOM      7  C   UNL     1      -3.058  10.285   0.845  0.00  0.00    +0.004 C 
ATOM      8  C   UNL     1      -1.890   8.693  -1.387  0.00  0.00    +0.224 C 
ATOM      9  O   UNL     1      -3.010   8.854  -1.824  0.00  0.00    -0.275 OA
ATOM     10  N   UNL     1      -0.764   8.700  -2.126  0.00  0.00    -0.302 N 
ATOM     11  C   UNL     1       0.420   8.490  -1.288  0.00  0.00    +0.094 C 
ATOM     12  C   UNL     1      -0.105   7.922   0.047  0.00  0.00    +0.165 C 
ATOM     13  C   UNL     1       1.129   9.819  -1.034  0.00  0.00    +0.034 C 
ATOM     14  C   UNL     1       1.857  10.235  -2.319  0.00  0.00    +0.010 C 
ATOM     15  C   UNL     1       2.986   9.236  -2.581  0.00  0.00    +0.008 C 
ATOM     16  C   UNL     1       2.467   7.831  -2.497  0.00  0.00    -0.026 C 
ATOM     17  C   UNL     1       1.350   7.505  -1.929  0.00  0.00    -0.002 C 
ATOM     18  C   UNL     1       3.564   9.480  -3.977  0.00  0.00    +0.012 C 
ATOM     19  H   UNL     1      -0.740   8.828  -3.087  0.00  0.00    +0.150 HD
ENDROOT
BRANCH  12  20
ATOM     20  C   UNL     1      -0.086   6.450   0.038  0.00  0.00    -0.059 C 
ATOM     21  C   UNL     1      -0.070   5.277   0.032  0.00  0.00    -0.063 C 
BRANCH  21  22
ATOM     22  C   UNL     1      -0.050   3.845   0.023  0.00  0.00    +0.025 A 
ATOM     23  C   UNL     1       1.166   3.160   0.008  0.00  0.00    +0.017 A 
ATOM     24  C   UNL     1       1.178   1.781   0.000  0.00  0.00    +0.001 A 
ATOM     25  C   UNL     1      -0.013   1.076   0.008  0.00  0.00    +0.000 A 
ATOM     26  C   UNL     1      -1.222   1.748   0.017  0.00  0.00    +0.001 A 
ATOM     27  C   UNL     1      -1.247   3.128   0.031  0.00  0.00    +0.017 A 
ENDBRANCH  21  22
ENDBRANCH  12  20
BRANCH  12  28
ATOM     28  O   UNL     1       0.642   8.435   1.152  0.00  0.00    -0.373 OA
ATOM     29  H   UNL     1       1.571   8.166   1.157  0.00  0.00    +0.212 HD
ENDBRANCH  12  28
TORSDOF 3
