REMARK  Name = ZINC04212406
REMARK  9 active torsions:
REMARK  status: ('A' for Active; 'I' for Inactive)
REMARK    1  A    between atoms: C_1  and  C_2
REMARK    2  A    between atoms: C_5  and  C_31
REMARK    3  A    between atoms: C_9  and  C_14
REMARK    4  A    between atoms: C_14  and  C_16
REMARK    5  A    between atoms: C_14  and  N_62
REMARK    6  A    between atoms: N_20  and  C_21
REMARK    7  A    between atoms: C_21  and  C_22
REMARK    8  A    between atoms: C_21  and  C_23
REMARK    9  A    between atoms: C_21  and  C_24
REMARK                            x       y       z     vdW  Elec       q    Type
REMARK                         _______ _______ _______ _____ _____    ______ ____
ROOT
ATOM      1  C   UNL     1       3.678   1.645   3.728  0.00  0.00    +0.039 C 
ENDROOT
BRANCH   1  10
ATOM      2  C   UNL     1      -0.356   1.535   0.436  0.00  0.00    +0.044 C 
ATOM      3  C   UNL     1      -0.848   2.137   1.727  0.00  0.00    -0.041 A 
ATOM      4  C   UNL     1      -2.149   2.536   1.846  0.00  0.00    +0.004 A 
ATOM      5  C   UNL     1      -2.613   3.087   3.032  0.00  0.00    +0.005 A 
ATOM      6  C   UNL     1      -1.769   3.251   4.109  0.00  0.00    -0.026 A 
ATOM      7  C   UNL     1      -0.439   2.857   4.010  0.00  0.00    +0.052 A 
ATOM      8  C   UNL     1       0.027   2.294   2.807  0.00  0.00    +0.002 A 
ATOM      9  C   UNL     1       1.429   1.882   2.712  0.00  0.00    +0.018 A 
ATOM     10  C   UNL     1       2.230   2.058   3.792  0.00  0.00    +0.011 A 
ATOM     11  C   UNL     1       1.712   2.627   4.976  0.00  0.00    +0.251 A 
ATOM     12  O   UNL     1       2.450   2.776   5.934  0.00  0.00    -0.268 OA
ATOM     13  N   UNL     1       0.427   3.008   5.072  0.00  0.00    -0.322 N 
ATOM     14  H   UNL     1       0.094   3.407   5.926  0.00  0.00    +0.169 HD
ATOM     15  C   UNL     1      -2.285   3.856   5.389  0.00  0.00    +0.046 C 
ENDBRANCH   1  10
BRANCH   1  22
ATOM     16  C   UNL     1       4.170   3.983   3.284  0.00  0.00    -0.077 C 
ATOM     17  C   UNL     1       5.179   5.093   3.409  0.00  0.00    -0.019 C 
ATOM     18  C   UNL     1       6.190   4.967   2.251  0.00  0.00    -0.002 C 
ATOM     19  C   UNL     1       7.184   3.928   2.497  0.00  0.00    -0.002 C 
ATOM     20  C   UNL     1       6.543   2.533   2.646  0.00  0.00    -0.019 C 
ATOM     21  C   UNL     1       5.961   2.420   4.029  0.00  0.00    -0.077 C 
ATOM     22  N   UNL     1       4.509   2.790   4.132  0.00  0.00    +0.389 N 
ATOM     23  H   UNL     1       4.302   3.020   5.112  0.00  0.00    -0.080 HD
ENDBRANCH   1  22
BRANCH   1  24
ATOM     24  C   UNL     1       3.922   0.518   4.698  0.00  0.00    +0.143 A 
ATOM     25  N   UNL     1       3.932   0.600   6.006  0.00  0.00    -0.115 NA
ATOM     26  N   UNL     1       4.175  -0.574   6.477  0.00  0.00    -0.023 NA
ATOM     27  N   UNL     1       4.321  -1.403   5.503  0.00  0.00    -0.043 NA
ATOM     28  N   UNL     1       4.166  -0.769   4.390  0.00  0.00    -0.225 N 
BRANCH  28  29
ATOM     29  C   UNL     1       4.246  -1.341   3.044  0.00  0.00    +0.059 C 
ATOM     30  C   UNL     1       5.414  -0.706   2.288  0.00  0.00    +0.036 C 
ATOM     31  C   UNL     1       4.465  -2.852   3.144  0.00  0.00    +0.036 C 
ATOM     32  C   UNL     1       2.941  -1.064   2.294  0.00  0.00    +0.036 C 
ENDBRANCH  28  29
ENDBRANCH   1  24
TORSDOF 4
