REMARK  Name = ZINC17195947
REMARK  8 active torsions:
REMARK  status: ('A' for Active; 'I' for Inactive)
REMARK    1  A    between atoms: C_1  and  C_2
REMARK    2  A    between atoms: C_3  and  N_15
REMARK    3  A    between atoms: N_6  and  C_9
REMARK    4  A    between atoms: N_7  and  C_8
REMARK    5  A    between atoms: C_16  and  C_17
REMARK    6  A    between atoms: N_22  and  C_25
REMARK    7  A    between atoms: C_25  and  C_26
REMARK    8  A    between atoms: C_26  and  C_27
REMARK                            x       y       z     vdW  Elec       q    Type
REMARK                         _______ _______ _______ _____ _____    ______ ____
ROOT
ATOM      1  C   UNL     1       0.090  -0.851  -4.781  0.00  0.00    +0.122 A 
ATOM      2  C   UNL     1      -0.237   0.463  -5.120  0.00  0.00    +0.264 A 
ATOM      3  O   UNL     1      -0.500   1.371  -4.160  0.00  0.00    -0.267 OA
ATOM      4  N   UNL     1      -0.285   0.815  -6.439  0.00  0.00    -0.302 N 
ATOM      5  C   UNL     1      -0.025  -0.076  -7.409  0.00  0.00    +0.163 A 
ATOM      6  N   UNL     1       0.294  -1.353  -7.143  0.00  0.00    -0.288 N 
ATOM      7  C   UNL     1       0.373  -1.793  -5.870  0.00  0.00    +0.267 A 
ATOM      8  O   UNL     1       0.668  -2.949  -5.629  0.00  0.00    -0.267 OA
ATOM      9  S   UNL     1      -0.104   0.433  -9.042  0.00  0.00    -0.013 S 
ATOM     10  H   UNL     1      -0.512   1.727  -6.679  0.00  0.00    +0.171 HD
ENDROOT
BRANCH   1  12
ATOM     11  N   UNL     1      -0.102  -0.421  -2.426  0.00  0.00    -0.247 NA
ATOM     12  C   UNL     1       0.154  -1.276  -3.380  0.00  0.00    +0.130 C 
BRANCH  11  15
ATOM     13  C   UNL     1      -0.662   1.416  -0.043  0.00  0.00    +0.067 C 
ATOM     14  C   UNL     1      -0.282  -0.042  -0.021  0.00  0.00    +0.064 A 
ATOM     15  C   UNL     1      -0.042  -0.818  -1.115  0.00  0.00    +0.150 A 
ATOM     16  C   UNL     1       0.292  -2.161  -0.623  0.00  0.00    +0.298 A 
ATOM     17  O   UNL     1       0.570  -3.134  -1.300  0.00  0.00    -0.264 OA
ATOM     18  N   UNL     1       0.233  -2.109   0.724  0.00  0.00    -0.215 N 
ATOM     19  N   UNL     1      -0.115  -0.807   1.098  0.00  0.00    -0.282 N 
ATOM     20  C   UNL     1      -0.278  -0.337   2.476  0.00  0.00    +0.171 C 
BRANCH  18  21
ATOM     21  C   UNL     1       0.481  -3.173   1.597  0.00  0.00    +0.067 A 
ATOM     22  C   UNL     1      -0.409  -3.452   2.625  0.00  0.00    +0.028 A 
ATOM     23  C   UNL     1      -0.161  -4.504   3.485  0.00  0.00    +0.002 A 
ATOM     24  C   UNL     1       0.973  -5.279   3.324  0.00  0.00    +0.000 A 
ATOM     25  C   UNL     1       1.862  -5.003   2.301  0.00  0.00    +0.002 A 
ATOM     26  C   UNL     1       1.616  -3.957   1.433  0.00  0.00    +0.028 A 
ENDBRANCH  18  21
ENDBRANCH  11  15
ENDBRANCH   1  12
BRANCH   6  27
ATOM     27  C   UNL     1       0.567  -2.277  -8.246  0.00  0.00    +0.131 C 
BRANCH  27  28
ATOM     28  C   UNL     1       2.058  -2.240  -8.586  0.00  0.00    +0.052 C 
BRANCH  28  29
ATOM     29  C   UNL     1       2.338  -3.191  -9.722  0.00  0.00    -0.072 C 
ATOM     30  C   UNL     1       2.361  -2.710 -10.924  0.00  0.00    -0.028 C 
ATOM     31  C   UNL     1       2.615  -3.533 -12.153  0.00  0.00    +0.027 C 
ATOM     32  C   UNL     1       3.248  -4.872 -11.769  0.00  0.00    +0.004 C 
ATOM     33  C   UNL     1       2.415  -5.497 -10.643  0.00  0.00    +0.005 C 
ATOM     34  C   UNL     1       2.578  -4.634  -9.388  0.00  0.00    +0.030 C 
ENDBRANCH  28  29
ENDBRANCH  27  28
ENDBRANCH   6  27
TORSDOF 6
