REMARK  Name = ZINC08846159
REMARK  10 active torsions:
REMARK  status: ('A' for Active; 'I' for Inactive)
REMARK    1  A    between atoms: C_1  and  C_2
REMARK    2  A    between atoms: C_2  and  C_3
REMARK    3  A    between atoms: C_2  and  C_4
REMARK    4  A    between atoms: C_4  and  C_5
REMARK    5  A    between atoms: C_5  and  O_6
REMARK    6  A    between atoms: O_6  and  C_7
REMARK    7  A    between atoms: C_11  and  C_13
REMARK    8  A    between atoms: C_18  and  N_27
REMARK    9  A    between atoms: C_22  and  N_26
REMARK   10  A    between atoms: C_23  and  C_24
REMARK                            x       y       z     vdW  Elec       q    Type
REMARK                         _______ _______ _______ _____ _____    ______ ____
ROOT
ATOM      1  C   UNL     1       7.006  -0.805  -4.938  0.00  0.00    +0.098 C 
ATOM      2  C   UNL     1       8.122  -1.720  -4.505  0.00  0.00    +0.008 A 
ATOM      3  C   UNL     1       7.833  -3.026  -4.153  0.00  0.00    +0.010 A 
ATOM      4  C   UNL     1       8.842  -3.879  -3.753  0.00  0.00    +0.023 A 
ATOM      5  C   UNL     1      10.155  -3.426  -3.703  0.00  0.00    +0.028 A 
ATOM      6  C   UNL     1      10.447  -2.117  -4.055  0.00  0.00    +0.069 A 
ATOM      7  C   UNL     1       9.430  -1.261  -4.457  0.00  0.00    +0.136 A 
ATOM      8  O   UNL     1       9.732   0.016  -4.798  0.00  0.00    -0.441 OA
ATOM      9  C   UNL     1       8.871   0.732  -5.541  0.00  0.00    +0.199 C 
ATOM     10  C   UNL     1       7.564   0.395  -5.648  0.00  0.00    +0.098 C 
ENDROOT
BRANCH   1  15
ATOM     11  C   UNL     1       4.178  -0.238  -2.497  0.00  0.00    +0.121 A 
ATOM     12  C   UNL     1       4.818   0.480  -1.497  0.00  0.00    +0.045 A 
ATOM     13  C   UNL     1       6.161   0.779  -1.615  0.00  0.00    +0.004 A 
ATOM     14  C   UNL     1       6.868   0.362  -2.728  0.00  0.00    +0.005 A 
ATOM     15  C   UNL     1       6.233  -0.353  -3.726  0.00  0.00    -0.031 A 
ATOM     16  C   UNL     1       4.891  -0.660  -3.610  0.00  0.00    +0.050 A 
BRANCH  11  17
ATOM     17  O   UNL     1       2.856  -0.534  -2.383  0.00  0.00    -0.492 OA
BRANCH  17  18
ATOM     18  C   UNL     1       2.187  -0.073  -1.207  0.00  0.00    +0.229 C 
BRANCH  18  19
ATOM     19  C   UNL     1       0.718  -0.497  -1.257  0.00  0.00    +0.044 C 
BRANCH  19  21
ATOM     20  C   UNL     1      -0.019   1.526   0.010  0.00  0.00    +0.007 C 
ATOM     21  C   UNL     1       0.002  -0.004   0.002  0.00  0.00    -0.014 C 
ATOM     22  C   UNL     1      -1.433  -0.534   0.013  0.00  0.00    +0.007 C 
ENDBRANCH  19  21
ENDBRANCH  18  19
ENDBRANCH  17  18
ENDBRANCH  11  17
ENDBRANCH   1  15
BRANCH   9  23
ATOM     23  N   UNL     1       9.331   1.839  -6.210  0.00  0.00    -0.328 N 
ATOM     24  H   UNL     1       8.722   2.367  -6.749  0.00  0.00    +0.145 HD
ATOM     25  H   UNL     1      10.265   2.094  -6.142  0.00  0.00    +0.145 HD
ENDBRANCH   9  23
BRANCH   5  26
ATOM     26  N   UNL     1      11.177  -4.287  -3.299  0.00  0.00    -0.358 N 
ATOM     27  H   UNL     1      12.093  -3.970  -3.265  0.00  0.00    +0.142 HD
ATOM     28  H   UNL     1      10.972  -5.203  -3.053  0.00  0.00    +0.142 HD
ENDBRANCH   5  26
BRANCH  10  29
ATOM     29  C   UNL     1       6.697   1.199  -6.456  0.00  0.00    +0.101 C 
ATOM     30  N   UNL     1       6.009   1.836  -7.097  0.00  0.00    -0.191 NA
ENDBRANCH  10  29
TORSDOF 8
