REMARK  Name = ZINC21654958
REMARK  9 active torsions:
REMARK  status: ('A' for Active; 'I' for Inactive)
REMARK    1  A    between atoms: C_1  and  C_2
REMARK    2  A    between atoms: C_2  and  C_3
REMARK    3  A    between atoms: C_3  and  C_5
REMARK    4  A    between atoms: C_3  and  N_6
REMARK    5  A    between atoms: C_7  and  C_9
REMARK    6  A    between atoms: C_9  and  N_10
REMARK    7  A    between atoms: C_12  and  C_22
REMARK    8  A    between atoms: C_18  and  C_21
REMARK    9  A    between atoms: C_24  and  C_27
REMARK                            x       y       z     vdW  Elec       q    Type
REMARK                         _______ _______ _______ _____ _____    ______ ____
ROOT
ATOM      1  N   UNL     1       0.991   3.551   0.012  0.00  0.00    -0.322 N 
ATOM      2  C   UNL     1       0.960   4.208  -1.159  0.00  0.00    +0.105 A 
ATOM      3  C   UNL     1       0.692   5.557  -1.239  0.00  0.00    +0.103 A 
ATOM      4  C   UNL     1       0.444   6.305   0.004  0.00  0.00    +0.203 A 
ATOM      5  O   UNL     1       0.206   7.500  -0.011  0.00  0.00    -0.286 OA
ATOM      6  C   UNL     1       0.493   5.546   1.266  0.00  0.00    +0.065 A 
ATOM      7  C   UNL     1       0.771   4.169   1.220  0.00  0.00    +0.145 A 
ATOM      8  N   UNL     1       0.819   3.471   2.349  0.00  0.00    -0.234 NA
ATOM      9  C   UNL     1       0.612   4.035   3.520  0.00  0.00    +0.041 A 
ATOM     10  C   UNL     1       0.334   5.388   3.637  0.00  0.00    +0.024 A 
ATOM     11  C   UNL     1       0.271   6.168   2.496  0.00  0.00    +0.017 A 
ATOM     12  C   UNL     1       0.681   3.189   4.765  0.00  0.00    +0.065 C 
ENDROOT
BRANCH   3  13
ATOM     13  C   UNL     1       0.662   6.239  -2.545  0.00  0.00    +0.264 A 
ATOM     14  N   UNL     1       0.418   7.521  -2.758  0.00  0.00    -0.187 NA
ATOM     15  C   UNL     1       0.498   7.685  -4.095  0.00  0.00    +0.202 A 
ATOM     16  N   UNL     1       0.772   6.516  -4.617  0.00  0.00    -0.056 NA
ATOM     17  O   UNL     1       0.870   5.678  -3.746  0.00  0.00    -0.332 OA
BRANCH  15  18
ATOM     18  C   UNL     1       0.305   8.955  -4.838  0.00  0.00    +0.023 A 
ATOM     19  C   UNL     1       0.009  10.130  -4.148  0.00  0.00    +0.013 A 
ATOM     20  C   UNL     1      -0.164  11.309  -4.843  0.00  0.00    +0.021 A 
ATOM     21  C   UNL     1      -0.056  11.325  -6.223  0.00  0.00    +0.041 A 
ATOM     22  C   UNL     1       0.232  10.160  -6.912  0.00  0.00    +0.021 A 
ATOM     23  C   UNL     1       0.412   8.976  -6.226  0.00  0.00    +0.013 A 
ATOM     24 CL   UNL     1      -0.283  12.811  -7.091  0.00  0.00    -0.084 Cl
ENDBRANCH  15  18
ENDBRANCH   3  13
BRANCH   1  25
ATOM     25  C   UNL     1       1.278   2.115   0.001  0.00  0.00    +0.218 C 
BRANCH  25  27
ATOM     26  N   UNL     1       0.002  -0.004   0.002  0.00  0.00    -0.311 N 
ATOM     27  C   UNL     1      -0.016   1.344   0.009  0.00  0.00    +0.233 C 
ATOM     28  O   UNL     1      -1.075   1.936   0.018  0.00  0.00    -0.274 OA
ATOM     29  H   UNL     1       0.962  -0.541  -0.010  0.00  0.00    +0.149 HD
BRANCH  26  30
ATOM     30  C   UNL     1      -1.256  -0.754   0.010  0.00  0.00    +0.070 C 
ATOM     31  C   UNL     1      -1.773  -0.899  -1.423  0.00  0.00    +0.028 C 
BRANCH  30  33
ATOM     32  C   UNL     1      -0.624  -2.000   2.081  0.00  0.00    +0.005 C 
ATOM     33  C   UNL     1      -1.020  -2.141   0.610  0.00  0.00    +0.018 C 
ENDBRANCH  30  33
ENDBRANCH  26  30
ENDBRANCH  25  27
ENDBRANCH   1  25
TORSDOF 6
