REMARK  Name = ZINC14664180
REMARK  10 active torsions:
REMARK  status: ('A' for Active; 'I' for Inactive)
REMARK    1  A    between atoms: C_1  and  C_2
REMARK    2  A    between atoms: C_2  and  C_3
REMARK    3  A    between atoms: C_7  and  C_28
REMARK    4  A    between atoms: C_8  and  N_9
REMARK    5  A    between atoms: C_10  and  C_12
REMARK    6  A    between atoms: C_15  and  S_21
REMARK    7  A    between atoms: C_16  and  N_18
REMARK    8  A    between atoms: S_21  and  C_22
REMARK    9  A    between atoms: N_26  and  C_27
REMARK   10  A    between atoms: C_28  and  C_29
REMARK                            x       y       z     vdW  Elec       q    Type
REMARK                         _______ _______ _______ _____ _____    ______ ____
ROOT
ATOM      1  C   UNL     1      -1.344  -1.712   5.957  0.00  0.00    +0.039 A 
ATOM      2  C   UNL     1      -0.267  -0.929   6.385  0.00  0.00    +0.014 A 
ATOM      3  C   UNL     1       0.275  -1.130   7.623  0.00  0.00    +0.018 A 
ATOM      4  C   UNL     1      -0.234  -2.123   8.457  0.00  0.00    +0.046 A 
ATOM      5  C   UNL     1      -1.302  -2.911   8.036  0.00  0.00    +0.141 A 
ATOM      6  C   UNL     1      -1.856  -2.710   6.793  0.00  0.00    +0.047 A 
ENDROOT
BRANCH   1   8
ATOM      7  N   UNL     1      -1.438  -0.530   3.819  0.00  0.00    -0.281 N 
ATOM      8  C   UNL     1      -1.933  -1.491   4.623  0.00  0.00    +0.248 C 
ATOM      9  O   UNL     1      -2.866  -2.176   4.250  0.00  0.00    -0.270 OA
ATOM     10  H   UNL     1      -0.667  -0.013   4.098  0.00  0.00    +0.155 HD
BRANCH   7  16
ATOM     11  C   UNL     1      -1.250  -0.110   1.448  0.00  0.00    -0.026 A 
ATOM     12  C   UNL     1      -1.844   0.133   0.225  0.00  0.00    +0.007 A 
ATOM     13  C   UNL     1      -3.220   0.214   0.127  0.00  0.00    +0.020 A 
ATOM     14  C   UNL     1      -4.008   0.052   1.254  0.00  0.00    +0.046 A 
ATOM     15  C   UNL     1      -3.420  -0.191   2.480  0.00  0.00    -0.008 A 
ATOM     16  C   UNL     1      -2.037  -0.278   2.580  0.00  0.00    +0.041 A 
ATOM     17 CL   UNL     1      -5.736   0.154   1.126  0.00  0.00    -0.083 Cl
BRANCH  11  19
ATOM     18  C   UNL     1       0.683  -1.664   1.464  0.00  0.00    +0.009 C 
ATOM     19  C   UNL     1       0.251  -0.199   1.553  0.00  0.00    +0.033 C 
ENDBRANCH  11  19
BRANCH  15  20
ATOM     20  C   UNL     1      -4.277  -0.367   3.707  0.00  0.00    +0.035 C 
ATOM     21  C   UNL     1      -5.234  -1.542   3.496  0.00  0.00    +0.009 C 
ENDBRANCH  15  20
ENDBRANCH   7  16
ENDBRANCH   1   8
BRANCH   5  22
ATOM     22  N   UNL     1      -1.840  -3.966   8.925  0.00  0.00    +0.058 N 
ATOM     23  O   UNL     1      -2.773  -4.655   8.556  0.00  0.00    -0.126 OA
ATOM     24  O   UNL     1      -1.349  -4.144  10.025  0.00  0.00    -0.126 OA
ENDBRANCH   5  22
BRANCH   4  25
ATOM     25  S   UNL     1       0.476  -2.381  10.049  0.00  0.00    -0.048 S 
BRANCH  25  26
ATOM     26  C   UNL     1      -0.733  -1.589  11.056  0.00  0.00    +0.196 A 
ATOM     27  N   UNL     1      -1.866  -1.066  10.649  0.00  0.00    -0.122 NA
ATOM     28  N   UNL     1      -2.505  -0.575  11.651  0.00  0.00    -0.137 NA
ATOM     29  C   UNL     1      -1.818  -0.744  12.745  0.00  0.00    +0.225 A 
ATOM     30  N   UNL     1      -0.665  -1.396  12.406  0.00  0.00    -0.311 N 
ATOM     31  C   UNL     1       0.418  -1.803  13.304  0.00  0.00    +0.152 C 
ENDBRANCH  25  26
ENDBRANCH   4  25
TORSDOF 7
