REMARK  Name = ZINC65337695
REMARK  2 active torsions:
REMARK  status: ('A' for Active; 'I' for Inactive)
REMARK    1  A    between atoms: C_3  and  C_9
REMARK    2  A    between atoms: C_6  and  C_7
REMARK                            x       y       z     vdW  Elec       q    Type
REMARK                         _______ _______ _______ _____ _____    ______ ____
ROOT
ATOM      1  C   UNL     1      -0.017   1.395   0.010  0.00  0.00    +0.011 A 
ATOM      2  C   UNL     1       1.166   2.099   0.002  0.00  0.00    +0.009 A 
ATOM      3  C   UNL     1       2.384   1.417  -0.013  0.00  0.00    -0.018 A 
ATOM      4  C   UNL     1       2.405   0.022  -0.021  0.00  0.00    +0.009 A 
ATOM      5  C   UNL     1       1.224  -0.685  -0.014  0.00  0.00    +0.011 A 
ATOM      6  C   UNL     1       0.002  -0.004   0.002  0.00  0.00    +0.014 A 
ENDROOT
BRANCH   3   7
ATOM      7  C   UNL     1       3.657   2.177  -0.022  0.00  0.00    -0.011 A 
ATOM      8  C   UNL     1       4.527   2.109  -1.133  0.00  0.00    +0.026 A 
ATOM      9  C   UNL     1       5.682   2.807  -1.125  0.00  0.00    +0.086 A 
ATOM     10  N   UNL     1       6.026   3.578  -0.060  0.00  0.00    -0.329 N 
ATOM     11  C   UNL     1       5.226   3.671   1.018  0.00  0.00    +0.249 A 
ATOM     12  C   UNL     1       4.011   2.970   1.058  0.00  0.00    +0.078 A 
ATOM     13  O   UNL     1       5.557   4.370   1.963  0.00  0.00    -0.268 OA
ATOM     14  H   UNL     1       6.861   4.070  -0.078  0.00  0.00    +0.168 HD
ENDBRANCH   3   7
BRANCH   6  15
ATOM     15  C   UNL     1      -1.262  -0.758   0.011  0.00  0.00    +0.258 C 
ATOM     16  O   UNL     1      -1.244  -1.970   0.004  0.00  0.00    -0.296 OA
ENDBRANCH   6  15
TORSDOF 2
