REMARK  Name = ZINC32095332
REMARK  8 active torsions:
REMARK  status: ('A' for Active; 'I' for Inactive)
REMARK    1  A    between atoms: C_4  and  C_7
REMARK    2  A    between atoms: C_7  and  C_8
REMARK    3  A    between atoms: C_8  and  C_10
REMARK    4  A    between atoms: C_8  and  N_20
REMARK    5  A    between atoms: N_12  and  C_13
REMARK    6  A    between atoms: C_18  and  O_19
REMARK    7  A    between atoms: C_21  and  C_23
REMARK    8  A    between atoms: N_28  and  C_30
REMARK                            x       y       z     vdW  Elec       q    Type
REMARK                         _______ _______ _______ _____ _____    ______ ____
ROOT
ATOM      1  C   UNL     1      -4.028   4.702  -3.856  0.00  0.00    +0.163 C 
ENDROOT
BRANCH   1   2
ATOM      2  C   UNL     1      -5.307   5.430  -4.181  0.00  0.00    +0.238 C 
ATOM      3  O   UNL     1      -6.104   5.679  -3.302  0.00  0.00    -0.273 OA
ATOM      4  N   UNL     1      -5.565   5.804  -5.450  0.00  0.00    -0.281 N 
ATOM      5  H   UNL     1      -4.889   5.498  -6.262  0.00  0.00    +0.155 HD
BRANCH   4   6
ATOM      6  C   UNL     1      -6.694   6.583  -5.735  0.00  0.00    +0.075 A 
ATOM      7  C   UNL     1      -7.137   7.527  -4.819  0.00  0.00    +0.027 A 
ATOM      8  C   UNL     1      -8.251   8.294  -5.102  0.00  0.00    +0.002 A 
ATOM      9  C   UNL     1      -8.927   8.124  -6.297  0.00  0.00    +0.004 A 
ATOM     10  C   UNL     1      -8.492   7.186  -7.214  0.00  0.00    +0.047 A 
ATOM     11  C   UNL     1      -7.372   6.416  -6.940  0.00  0.00    +0.138 A 
BRANCH  11  12
ATOM     12  O   UNL     1      -6.939   5.497  -7.844  0.00  0.00    -0.505 OA
ATOM     13  H   UNL     1      -7.476   5.366  -8.795  0.00  0.00    +0.292 HD
ENDBRANCH  11  12
ENDBRANCH   4   6
ENDBRANCH   1   2
BRANCH   1  14
ATOM     14  N   UNL     1      -3.984   4.409  -2.421  0.00  0.00    -0.303 N 
ATOM     15  C   UNL     1      -2.799   4.239  -1.804  0.00  0.00    +0.219 C 
ATOM     16  O   UNL     1      -1.767   4.329  -2.436  0.00  0.00    -0.275 OA
ATOM     17  H   UNL     1      -4.920   4.327  -1.848  0.00  0.00    +0.149 HD
BRANCH  15  18
ATOM     18  C   UNL     1      -2.754   3.937  -0.328  0.00  0.00    +0.101 C 
ATOM     19  C   UNL     1      -3.473   2.605  -0.014  0.00  0.00    +0.110 C 
ATOM     20  C   UNL     1      -2.369   1.571  -0.041  0.00  0.00    +0.221 C 
ATOM     21  O   UNL     1      -2.540   0.373  -0.121  0.00  0.00    -0.275 OA
ATOM     22  N   UNL     1      -1.170   2.174   0.036  0.00  0.00    -0.271 N 
ATOM     23  C   UNL     1      -1.311   3.631   0.138  0.00  0.00    +0.127 C 
BRANCH  22  24
ATOM     24  C   UNL     1       0.055   1.498   0.027  0.00  0.00    +0.036 A 
ATOM     25  C   UNL     1       0.085   0.110   0.059  0.00  0.00    +0.023 A 
ATOM     26  C   UNL     1       1.296  -0.553   0.054  0.00  0.00    +0.002 A 
ATOM     27  C   UNL     1       2.478   0.163   0.019  0.00  0.00    +0.000 A 
ATOM     28  C   UNL     1       2.453   1.545  -0.012  0.00  0.00    +0.002 A 
ATOM     29  C   UNL     1       1.245   2.215  -0.009  0.00  0.00    +0.023 A 
ENDBRANCH  22  24
ENDBRANCH  15  18
ENDBRANCH   1  14
BRANCH   1  30
ATOM     30  C   UNL     1      -3.970   3.394  -4.646  0.00  0.00    +0.067 C 
BRANCH  30  34
ATOM     31  C   UNL     1      -0.196   1.501  -3.994  0.00  0.00    +0.000 A 
ATOM     32  C   UNL     1      -1.263   1.221  -3.160  0.00  0.00    +0.000 A 
ATOM     33  C   UNL     1      -2.485   1.833  -3.372  0.00  0.00    +0.004 A 
ATOM     34  C   UNL     1      -2.639   2.726  -4.416  0.00  0.00    -0.045 A 
ATOM     35  C   UNL     1      -1.573   3.002  -5.252  0.00  0.00    +0.004 A 
ATOM     36  C   UNL     1      -0.351   2.393  -5.038  0.00  0.00    +0.000 A 
ENDBRANCH  30  34
ENDBRANCH   1  30
TORSDOF 8
