REMARK  Name = ZINC63075039
REMARK  7 active torsions:
REMARK  status: ('A' for Active; 'I' for Inactive)
REMARK    1  A    between atoms: C_1  and  O_2
REMARK    2  A    between atoms: O_2  and  C_3
REMARK    3  A    between atoms: C_15  and  N_16
REMARK    4  A    between atoms: C_17  and  C_19
REMARK    5  A    between atoms: C_19  and  S_20
REMARK    6  A    between atoms: S_20  and  C_21
REMARK    7  A    between atoms: C_27  and  N_31
REMARK                            x       y       z     vdW  Elec       q    Type
REMARK                         _______ _______ _______ _____ _____    ______ ____
ROOT
ATOM      1  N   UNL     1       0.093  -2.773  -0.108  0.00  0.00    -0.282 N 
ATOM      2  C   UNL     1       0.054  -4.115  -0.221  0.00  0.00    +0.227 C 
ATOM      3  O   UNL     1       0.591  -4.661  -1.162  0.00  0.00    -0.275 OA
ATOM      4  H   UNL     1      -0.279  -2.341   0.677  0.00  0.00    +0.155 HD
ENDROOT
BRANCH   1  17
ATOM      5  C   UNL     1       0.136  -0.750  -1.433  0.00  0.00    +0.142 A 
ATOM      6  C   UNL     1       0.706   0.017  -2.431  0.00  0.00    +0.059 A 
ATOM      7  C   UNL     1       1.810  -0.466  -3.128  0.00  0.00    +0.031 A 
ATOM      8  C   UNL     1       2.645   0.071  -4.220  0.00  0.00    +0.028 A 
ATOM      9  C   UNL     1       2.634   1.254  -4.951  0.00  0.00    +0.012 A 
ATOM     10  C   UNL     1       3.580   1.459  -5.934  0.00  0.00    +0.001 A 
ATOM     11  C   UNL     1       4.536   0.489  -6.192  0.00  0.00    +0.004 A 
ATOM     12  C   UNL     1       4.555  -0.687  -5.472  0.00  0.00    +0.047 A 
ATOM     13  C   UNL     1       3.611  -0.911  -4.478  0.00  0.00    +0.136 A 
ATOM     14  O   UNL     1       3.403  -1.949  -3.638  0.00  0.00    -0.455 OA
ATOM     15  C   UNL     1       2.347  -1.725  -2.824  0.00  0.00    +0.138 A 
ATOM     16  C   UNL     1       1.765  -2.487  -1.819  0.00  0.00    +0.074 A 
ATOM     17  C   UNL     1       0.670  -2.001  -1.124  0.00  0.00    +0.079 A 
BRANCH   5  19
ATOM     18  C   UNL     1      -1.438   1.006  -1.118  0.00  0.00    +0.277 C 
ATOM     19  O   UNL     1      -0.943  -0.282  -0.749  0.00  0.00    -0.493 OA
ENDBRANCH   5  19
ENDBRANCH   1  17
BRANCH   2  20
ATOM     20  C   UNL     1      -0.657  -4.939   0.822  0.00  0.00    +0.169 C 
BRANCH  20  21
ATOM     21  S   UNL     1      -0.533  -6.697   0.392  0.00  0.00    -0.106 S 
BRANCH  21  22
ATOM     22  C   UNL     1      -1.427  -7.539   1.727  0.00  0.00    +0.236 C 
ATOM     23  N   UNL     1      -2.807  -7.044   1.801  0.00  0.00    -0.355 N 
ATOM     24  C   UNL     1      -2.970  -6.517   2.980  0.00  0.00    +0.061 A 
ATOM     25  C   UNL     1      -4.115  -5.869   3.635  0.00  0.00    +0.029 A 
ATOM     26  C   UNL     1      -3.987  -5.407   4.895  0.00  0.00    +0.035 A 
ATOM     27  C   UNL     1      -2.790  -5.519   5.625  0.00  0.00    +0.128 A 
ATOM     28  C   UNL     1      -1.682  -6.095   5.120  0.00  0.00    +0.060 A 
ATOM     29  C   UNL     1      -1.704  -6.635   3.753  0.00  0.00    +0.063 A 
ATOM     30  N   UNL     1      -0.805  -7.231   3.022  0.00  0.00    -0.355 N 
ATOM     31  H   UNL     1       0.106  -7.435   3.284  0.00  0.00    +0.162 HD
ATOM     32  H   UNL     1      -3.475  -7.099   1.100  0.00  0.00    +0.162 HD
BRANCH  27  33
ATOM     33  N   UNL     1      -2.747  -4.981   7.003  0.00  0.00    +0.056 N 
ATOM     34  O   UNL     1      -3.727  -4.460   7.480  0.00  0.00    -0.126 OA
ATOM     35  O   UNL     1      -1.730  -5.064   7.652  0.00  0.00    -0.126 OA
ENDBRANCH  27  33
ENDBRANCH  21  22
ENDBRANCH  20  21
ENDBRANCH   2  20
TORSDOF 6
