REMARK  Name = ZINC66980528
REMARK  8 active torsions:
REMARK  status: ('A' for Active; 'I' for Inactive)
REMARK    1  A    between atoms: C_1  and  C_2
REMARK    2  A    between atoms: C_3  and  C_8
REMARK    3  A    between atoms: N_6  and  C_7
REMARK    4  A    between atoms: C_8  and  C_10
REMARK    5  A    between atoms: C_8  and  N_11
REMARK    6  A    between atoms: N_14  and  C_15
REMARK    7  A    between atoms: C_17  and  N_23
REMARK    8  A    between atoms: C_24  and  C_26
REMARK                            x       y       z     vdW  Elec       q    Type
REMARK                         _______ _______ _______ _____ _____    ______ ____
ROOT
ATOM      1  N   UNL     1      -0.562  -1.334  -3.375  0.00  0.00    -0.292 N 
ATOM      2  C   UNL     1      -1.134  -1.014  -4.553  0.00  0.00    +0.304 C 
ATOM      3  O   UNL     1      -1.183   0.147  -4.909  0.00  0.00    -0.252 OA
ATOM      4  N   UNL     1      -1.651  -1.982  -5.336  0.00  0.00    -0.267 N 
ATOM      5  H   UNL     1      -0.523  -2.261  -3.091  0.00  0.00    +0.151 HD
ATOM      6  H   UNL     1      -1.541  -2.914  -5.091  0.00  0.00    +0.156 HD
ENDROOT
BRANCH   4   7
ATOM      7  C   UNL     1      -2.348  -1.641  -6.503  0.00  0.00    +0.072 A 
ATOM      8  C   UNL     1      -2.954  -0.398  -6.612  0.00  0.00    +0.052 A 
ATOM      9  C   UNL     1      -3.643  -0.062  -7.768  0.00  0.00    +0.071 A 
ATOM     10  C   UNL     1      -3.725  -0.973  -8.816  0.00  0.00    +0.147 A 
ATOM     11  C   UNL     1      -3.121  -2.213  -8.705  0.00  0.00    +0.080 A 
ATOM     12  C   UNL     1      -2.429  -2.547  -7.555  0.00  0.00    +0.147 A 
ATOM     13  F   UNL     1      -1.835  -3.756  -7.451  0.00  0.00    -0.203 F 
ATOM     14  F   UNL     1      -4.396  -0.647  -9.942  0.00  0.00    -0.203 F 
BRANCH   9  15
ATOM     15  N   UNL     1      -4.255   1.193  -7.881  0.00  0.00    -0.283 N 
ATOM     16  C   UNL     1      -4.621   1.866  -6.772  0.00  0.00    +0.214 C 
ATOM     17  O   UNL     1      -4.513   1.344  -5.682  0.00  0.00    -0.276 OA
ATOM     18  C   UNL     1      -5.164   3.267  -6.885  0.00  0.00    +0.109 C 
ATOM     19  H   UNL     1      -4.416   1.577  -8.756  0.00  0.00    +0.155 HD
ENDBRANCH   9  15
ENDBRANCH   4   7
BRANCH   1  20
ATOM     20  C   UNL     1       0.000  -0.282  -2.524  0.00  0.00    +0.105 C 
ATOM     21  C   UNL     1       1.432   0.023  -2.969  0.00  0.00    +0.033 C 
BRANCH  20  24
ATOM     22  C   UNL     1      -0.038   1.556   0.007  0.00  0.00    +0.065 C 
ATOM     23  C   UNL     1      -0.009   0.049   0.004  0.00  0.00    +0.041 A 
ATOM     24  C   UNL     1       0.007  -0.747  -1.090  0.00  0.00    +0.013 A 
ATOM     25  C   UNL     1       0.033  -2.076  -0.656  0.00  0.00    +0.140 A 
ATOM     26  N   UNL     1       0.031  -2.078   0.652  0.00  0.00    -0.179 NA
ATOM     27  N   UNL     1       0.010  -0.749   1.093  0.00  0.00    -0.271 N 
ATOM     28  C   UNL     1       0.006  -0.303   2.488  0.00  0.00    +0.172 C 
ENDBRANCH  20  24
ENDBRANCH   1  20
TORSDOF 4
