REMARK  Name = ZINC19853973
REMARK  8 active torsions:
REMARK  status: ('A' for Active; 'I' for Inactive)
REMARK    1  A    between atoms: C_1  and  C_2
REMARK    2  A    between atoms: C_2  and  O_3
REMARK    3  A    between atoms: O_3  and  C_4
REMARK    4  A    between atoms: C_6  and  C_18
REMARK    5  A    between atoms: C_9  and  O_10
REMARK    6  A    between atoms: O_10  and  C_11
REMARK    7  A    between atoms: C_11  and  C_12
REMARK    8  A    between atoms: C_28  and  C_30
REMARK                            x       y       z     vdW  Elec       q    Type
REMARK                         _______ _______ _______ _____ _____    ______ ____
ROOT
ATOM      1  C   UNL     1       0.608  -4.949  -0.019  0.00  0.00    +0.024 C 
ATOM      2  C   UNL     1       0.572  -6.146   0.659  0.00  0.00    +0.079 C 
ATOM      3  C   UNL     1       1.774  -7.020   0.773  0.00  0.00    +0.132 C 
ATOM      4  N   UNL     1       2.994  -6.557   0.841  0.00  0.00    -0.385 N 
ATOM      5  N   UNL     1       1.465  -8.397   0.799  0.00  0.00    -0.153 N 
ATOM      6  C   UNL     1       0.199  -8.758   1.211  0.00  0.00    +0.181 C 
ATOM      7  N   UNL     1      -0.803  -7.965   1.497  0.00  0.00    -0.152 NA
ATOM      8  C   UNL     1      -0.663  -6.633   1.322  0.00  0.00    +0.273 C 
ATOM      9  O   UNL     1      -1.526  -5.854   1.693  0.00  0.00    -0.268 OA
ATOM     10  S   UNL     1       0.298 -10.528   1.223  0.00  0.00    -0.033 S 
ATOM     11  C   UNL     1       1.964 -10.675   0.590  0.00  0.00    +0.131 C 
ATOM     12  N   UNL     1       2.323  -9.421   0.458  0.00  0.00    -0.164 NA
ATOM     13  H   UNL     1       3.151  -5.601   0.819  0.00  0.00    +0.157 HD
ATOM     14  H   UNL     1       3.742  -7.171   0.914  0.00  0.00    +0.157 HD
ENDROOT
BRANCH  11  15
ATOM     15  C   UNL     1       2.739 -11.900   0.291  0.00  0.00    +0.027 A 
ATOM     16  C   UNL     1       2.170 -13.157   0.497  0.00  0.00    +0.012 A 
ATOM     17  C   UNL     1       2.897 -14.295   0.216  0.00  0.00    +0.001 A 
ATOM     18  C   UNL     1       4.190 -14.192  -0.268  0.00  0.00    +0.001 A 
ATOM     19  C   UNL     1       4.761 -12.949  -0.474  0.00  0.00    +0.020 A 
ATOM     20  C   UNL     1       4.041 -11.802  -0.203  0.00  0.00    +0.051 A 
ATOM     21 CL   UNL     1       4.756 -10.243  -0.469  0.00  0.00    -0.083 Cl
ENDBRANCH  11  15
BRANCH   1  24
ATOM     22  C   UNL     1      -1.809  -2.116  -0.446  0.00  0.00    +0.162 A 
ATOM     23  C   UNL     1      -0.637  -2.807  -0.214  0.00  0.00    +0.057 A 
ATOM     24  C   UNL     1      -0.633  -4.209  -0.264  0.00  0.00    -0.021 A 
ATOM     25  C   UNL     1      -1.819  -4.899  -0.549  0.00  0.00    +0.012 A 
ATOM     26  C   UNL     1      -2.983  -4.200  -0.778  0.00  0.00    +0.050 A 
ATOM     27  C   UNL     1      -2.986  -2.812  -0.723  0.00  0.00    +0.162 A 
BRANCH  22  28
ATOM     28  O   UNL     1      -1.817  -0.757  -0.398  0.00  0.00    -0.489 OA
BRANCH  28  30
ATOM     29  C   UNL     1      -0.782   1.405  -0.098  0.00  0.00    +0.048 C 
ATOM     30  C   UNL     1      -0.576  -0.111  -0.109  0.00  0.00    +0.226 C 
ENDBRANCH  28  30
ENDBRANCH  22  28
BRANCH  27  31
ATOM     31  O   UNL     1      -4.139  -2.129  -0.945  0.00  0.00    -0.484 OA
BRANCH  31  32
ATOM     32  C   UNL     1      -5.308  -2.903  -1.223  0.00  0.00    +0.264 C 
BRANCH  32  33
ATOM     33  C   UNL     1      -6.480  -1.981  -1.441  0.00  0.00    -0.010 A 
ATOM     34  C   UNL     1      -7.265  -1.596  -0.370  0.00  0.00    +0.007 A 
ATOM     35  C   UNL     1      -8.340  -0.750  -0.570  0.00  0.00    +0.000 A 
ATOM     36  C   UNL     1      -8.630  -0.289  -1.840  0.00  0.00    +0.000 A 
ATOM     37  C   UNL     1      -7.845  -0.674  -2.911  0.00  0.00    +0.000 A 
ATOM     38  C   UNL     1      -6.767  -1.516  -2.711  0.00  0.00    +0.007 A 
ENDBRANCH  32  33
ENDBRANCH  31  32
ENDBRANCH  27  31
ENDBRANCH   1  24
TORSDOF 7
