REMARK  Name = ZINC39843354
REMARK  11 active torsions:
REMARK  status: ('A' for Active; 'I' for Inactive)
REMARK    1  A    between atoms: C_1  and  O_2
REMARK    2  A    between atoms: O_2  and  C_3
REMARK    3  A    between atoms: C_6  and  N_9
REMARK    4  A    between atoms: C_10  and  C_12
REMARK    5  A    between atoms: C_12  and  C_13
REMARK    6  A    between atoms: N_19  and  N_20
REMARK    7  A    between atoms: C_21  and  C_22
REMARK    8  A    between atoms: C_25  and  O_30
REMARK    9  A    between atoms: C_26  and  O_28
REMARK   10  A    between atoms: O_28  and  C_29
REMARK   11  A    between atoms: O_30  and  C_31
REMARK                            x       y       z     vdW  Elec       q    Type
REMARK                         _______ _______ _______ _____ _____    ______ ____
ROOT
ATOM      1  C   UNL     1      -6.061  -6.128  -0.276  0.00  0.00    +0.149 C 
ATOM      2  C   UNL     1      -7.383  -6.867  -0.413  0.00  0.00    +0.233 C 
ATOM      3  O   UNL     1      -8.124  -6.694  -1.357  0.00  0.00    -0.274 OA
ATOM      4  N   UNL     1      -7.674  -7.711   0.563  0.00  0.00    -0.263 N 
ATOM      5  C   UNL     1      -6.836  -7.915   1.639  0.00  0.00    +0.183 C 
ATOM      6  N   UNL     1      -7.012  -8.722   2.665  0.00  0.00    -0.127 NA
ATOM      7  S   UNL     1      -5.455  -6.827   1.315  0.00  0.00    -0.075 S 
ATOM      8  H   UNL     1      -8.507  -8.206   0.519  0.00  0.00    +0.157 HD
ENDROOT
BRANCH   6   9
ATOM      9  N   UNL     1      -8.079  -9.444   2.742  0.00  0.00    -0.155 NA
ATOM     10  C   UNL     1      -8.253 -10.244   3.759  0.00  0.00    +0.143 C 
BRANCH  10  11
ATOM     11  C   UNL     1      -9.469 -11.067   3.846  0.00  0.00    -0.002 A 
ATOM     12  C   UNL     1     -10.437 -10.999   2.839  0.00  0.00    +0.013 A 
ATOM     13  C   UNL     1     -11.575 -11.772   2.923  0.00  0.00    +0.050 A 
ATOM     14  C   UNL     1     -11.764 -12.619   4.006  0.00  0.00    +0.162 A 
ATOM     15  C   UNL     1     -10.805 -12.692   5.014  0.00  0.00    +0.162 A 
ATOM     16  C   UNL     1      -9.658 -11.925   4.935  0.00  0.00    +0.059 A 
BRANCH  15  17
ATOM     17  O   UNL     1     -10.995 -13.524   6.074  0.00  0.00    -0.491 OA
ATOM     18  C   UNL     1      -9.970 -13.549   7.070  0.00  0.00    +0.277 C 
ENDBRANCH  15  17
BRANCH  14  19
ATOM     19  O   UNL     1     -12.889 -13.379   4.084  0.00  0.00    -0.491 OA
ATOM     20  C   UNL     1     -13.831 -13.254   3.017  0.00  0.00    +0.277 C 
ENDBRANCH  14  19
ENDBRANCH  10  11
ENDBRANCH   6   9
BRANCH   1  21
ATOM     21  C   UNL     1      -6.279  -4.617  -0.172  0.00  0.00    +0.120 C 
BRANCH  21  23
ATOM     22  N   UNL     1      -4.890  -2.581   0.035  0.00  0.00    -0.285 N 
ATOM     23  C   UNL     1      -4.945  -3.924  -0.068  0.00  0.00    +0.219 C 
ATOM     24  O   UNL     1      -3.921  -4.574  -0.076  0.00  0.00    -0.275 OA
ATOM     25  H   UNL     1      -5.708  -2.067   0.119  0.00  0.00    +0.155 HD
BRANCH  22  29
ATOM     26  C   UNL     1      -1.202  -0.636  -0.009  0.00  0.00    +0.120 A 
ATOM     27  C   UNL     1      -1.385  -1.793  -0.752  0.00  0.00    +0.047 A 
ATOM     28  C   UNL     1      -2.606  -2.437  -0.738  0.00  0.00    +0.027 A 
ATOM     29  C   UNL     1      -3.651  -1.928   0.021  0.00  0.00    +0.034 A 
ATOM     30  C   UNL     1      -3.467  -0.770   0.765  0.00  0.00    +0.027 A 
ATOM     31  C   UNL     1      -2.244  -0.129   0.754  0.00  0.00    +0.047 A 
BRANCH  26  33
ATOM     32  C   UNL     1       1.029  -0.579  -0.831  0.00  0.00    +0.277 C 
ATOM     33  O   UNL     1       0.001  -0.002  -0.023  0.00  0.00    -0.495 OA
ENDBRANCH  26  33
ENDBRANCH  22  29
ENDBRANCH  21  23
ENDBRANCH   1  21
TORSDOF 8
