REMARK  Name = ZINC14944528
REMARK  6 active torsions:
REMARK  status: ('A' for Active; 'I' for Inactive)
REMARK    1  A    between atoms: C_1  and  C_2
REMARK    2  A    between atoms: C_2  and  C_3
REMARK    3  A    between atoms: C_3  and  C_29
REMARK    4  A    between atoms: C_6  and  C_16
REMARK    5  A    between atoms: C_16  and  C_18
REMARK    6  A    between atoms: C_29  and  C_31
REMARK                            x       y       z     vdW  Elec       q    Type
REMARK                         _______ _______ _______ _____ _____    ______ ____
ROOT
ATOM      1  C   UNL     1      -1.354   6.955  -0.616  0.00  0.00    +0.065 C 
ATOM      2  C   UNL     1       0.093   6.756  -1.066  0.00  0.00    +0.063 C 
ATOM      3  C   UNL     1      -0.460   5.876   0.077  0.00  0.00    +0.151 C 
ATOM      4  C   UNL     1      -0.689   4.429  -0.340  0.00  0.00    +0.328 C 
ATOM      5  O   UNL     1      -0.521   3.506   0.422  0.00  0.00    -0.249 OA
ATOM      6  O   UNL     1      -1.092   4.244  -1.620  0.00  0.00    -0.425 OA
ATOM      7  C   UNL     1      -0.285   4.787  -2.575  0.00  0.00    +0.135 A 
ATOM      8  C   UNL     1       0.325   6.017  -2.365  0.00  0.00    +0.001 A 
ATOM      9  C   UNL     1       1.139   6.562  -3.336  0.00  0.00    +0.007 A 
ATOM     10  C   UNL     1       1.349   5.882  -4.522  0.00  0.00    +0.001 A 
ATOM     11  C   UNL     1       0.745   4.657  -4.735  0.00  0.00    +0.004 A 
ATOM     12  C   UNL     1      -0.076   4.111  -3.768  0.00  0.00    +0.046 A 
ENDROOT
BRANCH   1  14
ATOM     13  C   UNL     1      -2.253   7.101  -2.942  0.00  0.00    +0.005 C 
ATOM     14  C   UNL     1      -2.459   6.477  -1.560  0.00  0.00    +0.013 C 
ENDBRANCH   1  14
BRANCH   3  15
ATOM     15  C   UNL     1       0.013   6.117   1.487  0.00  0.00    +0.188 C 
ATOM     16  O   UNL     1      -0.788   6.388   2.358  0.00  0.00    -0.291 OA
BRANCH  15  17
ATOM     17  C   UNL     1       1.439   6.025   1.807  0.00  0.00    +0.103 A 
ATOM     18  C   UNL     1       2.352   5.594   0.853  0.00  0.00    +0.030 A 
ATOM     19  C   UNL     1       3.722   5.527   1.205  0.00  0.00    +0.018 A 
ATOM     20  C   UNL     1       4.672   5.101   0.264  0.00  0.00    +0.011 A 
ATOM     21  C   UNL     1       5.990   5.032   0.612  0.00  0.00    +0.001 A 
ATOM     22  C   UNL     1       6.399   5.380   1.892  0.00  0.00    +0.004 A 
ATOM     23  C   UNL     1       5.484   5.800   2.833  0.00  0.00    +0.047 A 
ATOM     24  C   UNL     1       4.135   5.879   2.503  0.00  0.00    +0.139 A 
ATOM     25  O   UNL     1       3.241   6.292   3.427  0.00  0.00    -0.422 OA
ATOM     26  C   UNL     1       1.931   6.381   3.145  0.00  0.00    +0.348 A 
ATOM     27  O   UNL     1       1.150   6.756   3.999  0.00  0.00    -0.244 OA
ENDBRANCH  15  17
ENDBRANCH   3  15
BRANCH   1  28
ATOM     28  C   UNL     1      -1.670   8.199   0.175  0.00  0.00    +0.171 C 
ATOM     29  O   UNL     1      -2.284   8.114   1.218  0.00  0.00    -0.291 OA
BRANCH  28  30
ATOM     30  C   UNL     1      -1.235   9.514  -0.318  0.00  0.00    +0.018 A 
ATOM     31  C   UNL     1      -0.414   9.605  -1.447  0.00  0.00    +0.013 A 
ATOM     32  C   UNL     1      -0.015  10.842  -1.906  0.00  0.00    +0.020 A 
ATOM     33  C   UNL     1      -0.414  11.992  -1.246  0.00  0.00    +0.041 A 
ATOM     34  C   UNL     1      -1.222  11.910  -0.123  0.00  0.00    +0.020 A 
ATOM     35  C   UNL     1      -1.634  10.680   0.344  0.00  0.00    +0.013 A 
ATOM     36 CL   UNL     1       0.100  13.545  -1.827  0.00  0.00    -0.084 Cl
ENDBRANCH  28  30
ENDBRANCH   1  28
TORSDOF 5
