REMARK  Name = ZINC33263087
REMARK  6 active torsions:
REMARK  status: ('A' for Active; 'I' for Inactive)
REMARK    1  A    between atoms: C_1  and  C_2
REMARK    2  A    between atoms: C_2  and  C_3
REMARK    3  A    between atoms: C_3  and  N_4
REMARK    4  A    between atoms: C_8  and  S_13
REMARK    5  A    between atoms: S_13  and  N_16
REMARK    6  A    between atoms: C_21  and  C_23
REMARK                            x       y       z     vdW  Elec       q    Type
REMARK                         _______ _______ _______ _____ _____    ______ ____
ROOT
ATOM      1  N   UNL     1      -1.234  -2.986   7.178  0.00  0.00    -0.165 NA
ATOM      2  C   UNL     1      -0.719  -2.205   8.310  0.00  0.00    +0.110 C 
ATOM      3  C   UNL     1      -1.765  -1.145   8.688  0.00  0.00    +0.017 C 
ATOM      4  C   UNL     1      -3.105  -1.834   8.958  0.00  0.00    +0.003 C 
ATOM      5  C   UNL     1      -3.579  -2.546   7.689  0.00  0.00    +0.030 C 
ATOM      6  C   UNL     1      -2.555  -3.617   7.297  0.00  0.00    +0.166 C 
ENDROOT
BRANCH   6   7
ATOM      7  C   UNL     1      -2.945  -4.228   5.976  0.00  0.00    +0.235 C 
ATOM      8  O   UNL     1      -3.288  -3.516   5.056  0.00  0.00    -0.274 OA
ATOM      9  N   UNL     1      -2.911  -5.566   5.816  0.00  0.00    -0.297 N 
ATOM     10  C   UNL     1      -2.383  -6.439   6.875  0.00  0.00    +0.126 C 
ATOM     11  C   UNL     1      -3.421  -7.538   7.156  0.00  0.00    +0.125 C 
ATOM     12  N   UNL     1      -3.756  -8.220   5.899  0.00  0.00    -0.314 N 
ATOM     13  C   UNL     1      -4.388  -7.299   4.945  0.00  0.00    +0.125 C 
ATOM     14  C   UNL     1      -3.396  -6.191   4.576  0.00  0.00    +0.126 C 
ATOM     15  C   UNL     1      -4.564  -9.326   6.133  0.00  0.00    +0.099 A 
ATOM     16  C   UNL     1      -4.136 -10.321   7.007  0.00  0.00    +0.042 A 
ATOM     17  C   UNL     1      -4.953 -11.413   7.235  0.00  0.00    +0.005 A 
ATOM     18  C   UNL     1      -6.170 -11.481   6.569  0.00  0.00    +0.018 A 
ATOM     19  C   UNL     1      -6.529 -10.461   5.712  0.00  0.00    +0.084 A 
ATOM     20  N   UNL     1      -5.732  -9.428   5.518  0.00  0.00    -0.350 N 
ATOM     21  H   UNL     1      -6.059  -8.638   4.825  0.00  0.00    +0.166 HD
ENDBRANCH   6   7
BRANCH   1  22
ATOM     22  S   UNL     1      -0.338  -3.159   5.795  0.00  0.00    +0.062 S 
ATOM     23  O   UNL     1      -0.774  -4.362   5.177  0.00  0.00    -0.153 OA
ATOM     24  O   UNL     1       1.017  -2.937   6.159  0.00  0.00    -0.153 OA
BRANCH  22  29
ATOM     25  N   UNL     1      -1.679   1.392   2.336  0.00  0.00    -0.244 N 
ATOM     26  C   UNL     1      -1.527   0.199   3.002  0.00  0.00    +0.089 A 
ATOM     27  C   UNL     1      -2.051  -1.078   2.828  0.00  0.00    +0.031 A 
ATOM     28  C   UNL     1      -1.687  -2.084   3.679  0.00  0.00    +0.031 A 
ATOM     29  C   UNL     1      -0.791  -1.844   4.713  0.00  0.00    +0.108 A 
ATOM     30  C   UNL     1      -0.259  -0.602   4.902  0.00  0.00    +0.060 A 
ATOM     31  C   UNL     1      -0.617   0.446   4.043  0.00  0.00    +0.115 A 
ATOM     32  N   UNL     1      -0.266   1.746   3.980  0.00  0.00    -0.129 NA
ATOM     33  N   UNL     1      -0.866   2.323   2.999  0.00  0.00    -0.065 NA
BRANCH  25  34
ATOM     34  C   UNL     1      -2.528   1.643   1.169  0.00  0.00    +0.145 C 
BRANCH  34  36
ATOM     35  C   UNL     1      -2.611   1.653  -1.328  0.00  0.00    +0.005 C 
ATOM     36  C   UNL     1      -1.725   1.391  -0.109  0.00  0.00    +0.020 C 
ENDBRANCH  34  36
ENDBRANCH  25  34
ENDBRANCH  22  29
ENDBRANCH   1  22
TORSDOF 5
