REMARK  Name = ZINC13124024
REMARK  9 active torsions:
REMARK  status: ('A' for Active; 'I' for Inactive)
REMARK    1  A    between atoms: C_1  and  C_2
REMARK    2  A    between atoms: C_3  and  C_9
REMARK    3  A    between atoms: C_4  and  C_8
REMARK    4  A    between atoms: N_5  and  C_7
REMARK    5  A    between atoms: C_9  and  N_10
REMARK    6  A    between atoms: N_10  and  C_11
REMARK    7  A    between atoms: C_12  and  C_14
REMARK    8  A    between atoms: C_20  and  C_29
REMARK    9  A    between atoms: C_23  and  C_25
REMARK                            x       y       z     vdW  Elec       q    Type
REMARK                         _______ _______ _______ _____ _____    ______ ____
ROOT
ATOM      1  C   UNL     1       3.179   1.322  -3.455  0.00  0.00    +0.096 A 
ATOM      2  C   UNL     1       3.927   0.457  -4.294  0.00  0.00    +0.149 A 
ATOM      3  N   UNL     1       5.038   1.061  -4.617  0.00  0.00    -0.177 NA
ATOM      4  N   UNL     1       5.067   2.320  -4.019  0.00  0.00    -0.238 N 
ATOM      5  C   UNL     1       3.924   2.478  -3.311  0.00  0.00    +0.130 A 
ATOM      6  N   UNL     1       3.636   3.626  -2.595  0.00  0.00    -0.322 N 
ATOM      7  C   UNL     1       4.753   4.571  -2.400  0.00  0.00    +0.104 C 
ATOM      8  C   UNL     1       5.516   4.700  -3.723  0.00  0.00    +0.063 C 
ATOM      9  C   UNL     1       6.117   3.340  -4.107  0.00  0.00    +0.215 C 
ATOM     10  H   UNL     1       2.750   3.801  -2.241  0.00  0.00    +0.148 HD
ENDROOT
BRANCH   7  11
ATOM     11  C   UNL     1       4.214   5.916  -1.987  0.00  0.00    -0.027 A 
ATOM     12  C   UNL     1       3.062   6.408  -2.572  0.00  0.00    +0.005 A 
ATOM     13  C   UNL     1       2.567   7.642  -2.194  0.00  0.00    +0.000 A 
ATOM     14  C   UNL     1       3.224   8.384  -1.230  0.00  0.00    +0.000 A 
ATOM     15  C   UNL     1       4.375   7.891  -0.644  0.00  0.00    +0.000 A 
ATOM     16  C   UNL     1       4.868   6.655  -1.020  0.00  0.00    +0.005 A 
ENDBRANCH   7  11
BRANCH   1  19
ATOM     17  N   UNL     1       1.554  -0.204  -2.467  0.00  0.00    -0.296 N 
ATOM     18  C   UNL     1       2.565  -1.263  -2.522  0.00  0.00    +0.132 C 
ATOM     19  C   UNL     1       1.866   1.046  -2.860  0.00  0.00    +0.251 C 
ATOM     20  O   UNL     1       1.059   1.947  -2.723  0.00  0.00    -0.270 OA
BRANCH  17  21
ATOM     21  C   UNL     1       0.204  -0.505  -1.984  0.00  0.00    +0.146 C 
BRANCH  21  24
ATOM     22  C   UNL     1      -0.549   2.203  -0.519  0.00  0.00    +0.068 C 
ATOM     23  C   UNL     1      -0.189   0.903   0.154  0.00  0.00    +0.065 A 
ATOM     24  C   UNL     1       0.144  -0.291  -0.494  0.00  0.00    +0.013 A 
ATOM     25  C   UNL     1       0.402  -1.221   0.455  0.00  0.00    +0.041 A 
ATOM     26  N   UNL     1       0.238  -0.636   1.660  0.00  0.00    -0.271 N 
ATOM     27  N   UNL     1      -0.127   0.699   1.445  0.00  0.00    -0.176 NA
ATOM     28  C   UNL     1       0.416  -1.282   2.963  0.00  0.00    +0.172 C 
ATOM     29  C   UNL     1       0.800  -2.654   0.209  0.00  0.00    +0.065 C 
ENDBRANCH  21  24
ENDBRANCH  17  21
ENDBRANCH   1  19
BRANCH   9  30
ATOM     30  C   UNL     1       6.642   3.412  -5.542  0.00  0.00    +0.412 C 
ATOM     31  F   UNL     1       5.595   3.746  -6.407  0.00  0.00    -0.168 F 
ATOM     32  F   UNL     1       7.643   4.386  -5.624  0.00  0.00    -0.168 F 
ATOM     33  F   UNL     1       7.170   2.169  -5.908  0.00  0.00    -0.168 F 
ENDBRANCH   9  30
TORSDOF 5
