REMARK  Name = ZINC39513892
REMARK  6 active torsions:
REMARK  status: ('A' for Active; 'I' for Inactive)
REMARK    1  A    between atoms: C_4  and  O_7
REMARK    2  A    between atoms: O_7  and  S_8
REMARK    3  A    between atoms: S_8  and  C_11
REMARK    4  A    between atoms: C_17  and  S_24
REMARK    5  A    between atoms: S_24  and  O_27
REMARK    6  A    between atoms: O_27  and  C_28
REMARK                            x       y       z     vdW  Elec       q    Type
REMARK                         _______ _______ _______ _____ _____    ______ ____
ROOT
ATOM      1  C   UNL     1       3.367  -2.158   2.331  0.00  0.00    +0.173 C 
ATOM      2  C   UNL     1       3.768  -3.386   1.477  0.00  0.00    +0.032 C 
ATOM      3  C   UNL     1       3.345  -4.578   2.372  0.00  0.00    +0.027 C 
ATOM      4  C   UNL     1       3.681  -4.114   3.801  0.00  0.00    +0.064 C 
ATOM      5  C   UNL     1       3.694  -2.576   3.780  0.00  0.00    +0.055 C 
ATOM      6  C   UNL     1       2.610  -4.611   4.769  0.00  0.00    +0.193 C 
ATOM      7  C   UNL     1       2.962  -4.161   6.190  0.00  0.00    +0.033 C 
ATOM      8  C   UNL     1       4.353  -4.686   6.553  0.00  0.00    +0.019 C 
ATOM      9  C   UNL     1       5.371  -4.166   5.535  0.00  0.00    +0.103 C 
ATOM     10  N   UNL     1       4.998  -4.624   4.191  0.00  0.00    -0.211 NA
ATOM     11 CL   UNL     1       6.188  -4.188   3.043  0.00  0.00    -0.020 Cl
ENDROOT
BRANCH   1  12
ATOM     12  S   UNL     1       4.344  -0.706   1.853  0.00  0.00    +0.124 S 
ATOM     13  O   UNL     1       5.724  -1.039   1.806  0.00  0.00    -0.136 OA
ATOM     14  O   UNL     1       3.899   0.440   2.567  0.00  0.00    -0.136 OA
BRANCH  12  15
ATOM     15  O   UNL     1       3.960  -0.435   0.406  0.00  0.00    -0.346 OA
BRANCH  15  19
ATOM     16  C   UNL     1       0.236   1.282  -0.051  0.00  0.00    +0.000 A 
ATOM     17  C   UNL     1       1.353   2.084   0.099  0.00  0.00    +0.004 A 
ATOM     18  C   UNL     1       2.600   1.512   0.252  0.00  0.00    +0.048 A 
ATOM     19  C   UNL     1       2.733   0.131   0.256  0.00  0.00    +0.156 A 
ATOM     20  C   UNL     1       1.612  -0.672   0.105  0.00  0.00    +0.048 A 
ATOM     21  C   UNL     1       0.366  -0.095  -0.048  0.00  0.00    +0.004 A 
ENDBRANCH  15  19
ENDBRANCH  12  15
ENDBRANCH   1  12
BRANCH   6  22
ATOM     22  S   UNL     1       1.000  -3.921   4.296  0.00  0.00    +0.125 S 
ATOM     23  O   UNL     1       1.024  -2.504   4.404  0.00  0.00    -0.136 OA
ATOM     24  O   UNL     1       0.526  -4.549   3.113  0.00  0.00    -0.136 OA
BRANCH  22  25
ATOM     25  O   UNL     1       0.043  -4.377   5.388  0.00  0.00    -0.346 OA
BRANCH  25  26
ATOM     26  C   UNL     1      -0.310  -5.686   5.302  0.00  0.00    +0.156 A 
ATOM     27  C   UNL     1      -1.413  -6.061   4.548  0.00  0.00    +0.048 A 
ATOM     28  C   UNL     1      -1.769  -7.393   4.462  0.00  0.00    +0.004 A 
ATOM     29  C   UNL     1      -1.028  -8.352   5.127  0.00  0.00    +0.000 A 
ATOM     30  C   UNL     1       0.072  -7.982   5.879  0.00  0.00    +0.004 A 
ATOM     31  C   UNL     1       0.436  -6.652   5.963  0.00  0.00    +0.048 A 
ENDBRANCH  25  26
ENDBRANCH  22  25
ENDBRANCH   6  22
TORSDOF 6
