REMARK  Name = ZINC63398572
REMARK  9 active torsions:
REMARK  status: ('A' for Active; 'I' for Inactive)
REMARK    1  A    between atoms: C_1  and  C_2
REMARK    2  A    between atoms: C_2  and  C_4
REMARK    3  A    between atoms: C_2  and  N_21
REMARK    4  A    between atoms: N_6  and  C_7
REMARK    5  A    between atoms: C_15  and  C_17
REMARK    6  A    between atoms: C_17  and  O_19
REMARK    7  A    between atoms: O_19  and  C_20
REMARK    8  A    between atoms: C_24  and  C_27
REMARK    9  A    between atoms: C_27  and  C_28
REMARK                            x       y       z     vdW  Elec       q    Type
REMARK                         _______ _______ _______ _____ _____    ______ ____
ROOT
ATOM      1  C   UNL     1       0.494   0.368  -1.931  0.00  0.00    +0.203 C 
ATOM      2  O   UNL     1       1.375  -0.322  -1.463  0.00  0.00    -0.277 OA
ATOM      3  N   UNL     1       0.348   0.460  -3.268  0.00  0.00    -0.288 N 
ATOM      4  H   UNL     1      -0.319   1.055  -3.643  0.00  0.00    +0.155 HD
ENDROOT
BRANCH   3   5
ATOM      5  C   UNL     1       1.139  -0.283  -4.092  0.00  0.00    +0.053 C 
ATOM      6  C   UNL     1       1.029  -0.407  -5.466  0.00  0.00    +0.018 A 
ATOM      7  C   UNL     1       0.130   0.150  -6.407  0.00  0.00    +0.011 A 
ATOM      8  C   UNL     1       0.261  -0.153  -7.722  0.00  0.00    +0.001 A 
ATOM      9  C   UNL     1       1.266  -1.008  -8.181  0.00  0.00    +0.002 A 
ATOM     10  C   UNL     1       2.161  -1.578  -7.338  0.00  0.00    +0.026 A 
ATOM     11  C   UNL     1       2.091  -1.309  -5.946  0.00  0.00    +0.045 A 
ATOM     12  N   UNL     1       2.827  -1.730  -4.938  0.00  0.00    -0.367 N 
ATOM     13  C   UNL     1       2.322  -1.137  -3.696  0.00  0.00    +0.234 C 
ATOM     14  H   UNL     1       3.585  -2.332  -5.008  0.00  0.00    +0.161 HD
BRANCH  13  15
ATOM     15  C   UNL     1       3.386  -0.285  -3.054  0.00  0.00    +0.335 C 
ATOM     16  O   UNL     1       4.066   0.447  -3.734  0.00  0.00    -0.248 OA
BRANCH  15  17
ATOM     17  O   UNL     1       3.579  -0.339  -1.726  0.00  0.00    -0.466 OA
ATOM     18  C   UNL     1       4.604   0.497  -1.185  0.00  0.00    +0.280 C 
ENDBRANCH  15  17
ENDBRANCH  13  15
ENDBRANCH   3   5
BRANCH   1  20
ATOM     19  C   UNL     1       0.110   2.531  -0.782  0.00  0.00    -0.004 C 
ATOM     20  C   UNL     1      -0.437   1.122  -1.018  0.00  0.00    +0.016 C 
BRANCH  20  21
ATOM     21  N   UNL     1      -0.543   0.416   0.266  0.00  0.00    +0.387 N 
ATOM     22  C   UNL     1      -1.446   1.155   1.157  0.00  0.00    -0.078 C 
ATOM     23  C   UNL     1      -1.496   0.468   2.523  0.00  0.00    -0.015 C 
ATOM     24  C   UNL     1      -2.008  -0.964   2.349  0.00  0.00    -0.010 C 
ATOM     25  C   UNL     1      -1.101  -1.704   1.361  0.00  0.00    -0.015 C 
ATOM     26  C   UNL     1      -1.066  -0.936   0.037  0.00  0.00    -0.078 C 
ATOM     27  H   UNL     1       0.370   0.355   0.691  0.00  0.00    -0.081 HD
BRANCH  24  28
ATOM     28  C   UNL     1      -1.985  -1.683   3.700  0.00  0.00    +0.038 C 
BRANCH  28  29
ATOM     29  C   UNL     1      -2.603  -3.050   3.552  0.00  0.00    -0.047 A 
ATOM     30  C   UNL     1      -3.962  -3.218   3.740  0.00  0.00    +0.003 A 
ATOM     31  C   UNL     1      -4.529  -4.471   3.604  0.00  0.00    +0.000 A 
ATOM     32  C   UNL     1      -3.736  -5.557   3.280  0.00  0.00    +0.000 A 
ATOM     33  C   UNL     1      -2.377  -5.388   3.091  0.00  0.00    +0.000 A 
ATOM     34  C   UNL     1      -1.811  -4.134   3.223  0.00  0.00    +0.003 A 
ENDBRANCH  28  29
ENDBRANCH  24  28
ENDBRANCH  20  21
ENDBRANCH   1  20
TORSDOF 7
