REMARK  Name = ZINC64640560
REMARK  5 active torsions:
REMARK  status: ('A' for Active; 'I' for Inactive)
REMARK    1  A    between atoms: C_6  and  C_10
REMARK    2  A    between atoms: N_13  and  C_16
REMARK    3  A    between atoms: N_20  and  C_34
REMARK    4  A    between atoms: C_22  and  C_25
REMARK    5  A    between atoms: N_27  and  C_28
REMARK                            x       y       z     vdW  Elec       q    Type
REMARK                         _______ _______ _______ _____ _____    ______ ____
ROOT
ATOM      1  C   UNL     1       5.743  -5.974   2.689  0.00  0.00    +0.248 C 
ATOM      2  O   UNL     1       7.088  -5.875   2.656  0.00  0.00    -0.270 OA
ATOM      3  C   UNL     1       5.147  -7.207   2.853  0.00  0.00    +0.077 C 
ATOM      4  C   UNL     1       6.005  -8.407   3.128  0.00  0.00    +0.160 C 
ATOM      5  N   UNL     1       5.234  -9.495   3.705  0.00  0.00    -0.371 N 
ATOM      6  C   UNL     1       3.980  -9.613   3.632  0.00  0.00    +0.074 C 
ATOM      7  C   UNL     1       3.082  -8.638   2.934  0.00  0.00    +0.184 C 
ATOM      8  C   UNL     1       3.768  -7.311   2.766  0.00  0.00    +0.183 C 
ATOM      9  O   UNL     1       3.103  -6.316   2.545  0.00  0.00    -0.291 OA
ENDROOT
BRANCH   1  13
ATOM     10  C   UNL     1       4.377  -2.100   2.318  0.00  0.00    +0.035 C 
ATOM     11  C   UNL     1       4.883  -2.670   3.645  0.00  0.00    +0.026 C 
ATOM     12  C   UNL     1       4.480  -4.144   3.750  0.00  0.00    +0.108 C 
ATOM     13  N   UNL     1       4.972  -4.854   2.561  0.00  0.00    -0.298 N 
ATOM     14  C   UNL     1       4.619  -4.337   1.232  0.00  0.00    +0.108 C 
ATOM     15  C   UNL     1       5.020  -2.860   1.156  0.00  0.00    +0.026 C 
BRANCH  10  21
ATOM     16  C   UNL     1       1.786   2.745   1.201  0.00  0.00    +0.002 A 
ATOM     17  C   UNL     1       1.745   2.843   2.603  0.00  0.00    +0.002 A 
ATOM     18  C   UNL     1       2.470   2.041   3.408  0.00  0.00    +0.027 A 
ATOM     19  C   UNL     1       3.342   1.017   2.817  0.00  0.00    +0.060 A 
ATOM     20  N   UNL     1       4.136   0.124   3.335  0.00  0.00    -0.363 N 
ATOM     21  C   UNL     1       4.747  -0.619   2.225  0.00  0.00    +0.177 C 
ATOM     22  N   UNL     1       4.203  -0.040   0.990  0.00  0.00    -0.363 N 
ATOM     23  C   UNL     1       3.385   0.913   1.333  0.00  0.00    +0.060 A 
ATOM     24  C   UNL     1       2.551   1.842   0.557  0.00  0.00    +0.027 A 
ATOM     25  H   UNL     1       4.295  -0.023   4.280  0.00  0.00    +0.162 HD
ATOM     26  H   UNL     1       4.415  -0.316   0.085  0.00  0.00    +0.162 HD
ENDBRANCH  10  21
ENDBRANCH   1  13
BRANCH   7  27
ATOM     27  C   UNL     1       2.711  -9.187   1.581  0.00  0.00    +0.229 C 
ATOM     28  O   UNL     1       3.138 -10.264   1.225  0.00  0.00    -0.275 OA
ATOM     29  N   UNL     1       1.904  -8.479   0.765  0.00  0.00    -0.312 N 
ATOM     30  H   UNL     1       1.562  -7.617   1.049  0.00  0.00    +0.149 HD
BRANCH  29  31
ATOM     31  C   UNL     1       1.543  -9.013  -0.551  0.00  0.00    +0.073 C 
ATOM     32  C   UNL     1       2.635  -8.656  -1.562  0.00  0.00    +0.022 C 
ATOM     33  C   UNL     1       2.258  -9.213  -2.937  0.00  0.00    +0.002 C 
ATOM     34  C   UNL     1       0.927  -8.606  -3.386  0.00  0.00    +0.000 C 
ATOM     35  C   UNL     1      -0.164  -8.963  -2.375  0.00  0.00    +0.002 C 
ATOM     36  C   UNL     1       0.213  -8.405  -1.000  0.00  0.00    +0.022 C 
ENDBRANCH  29  31
ENDBRANCH   7  27
BRANCH   5  37
ATOM     37  C   UNL     1       5.970 -10.537   4.428  0.00  0.00    +0.082 C 
ATOM     38  C   UNL     1       7.457 -10.296   4.691  0.00  0.00    +0.026 C 
ATOM     39  C   UNL     1       7.022 -11.328   3.648  0.00  0.00    +0.026 C 
ENDBRANCH   5  37
TORSDOF 5
