REMARK  Name = ZINC50297353
REMARK  4 active torsions:
REMARK  status: ('A' for Active; 'I' for Inactive)
REMARK    1  A    between atoms: C_5  and  N_7
REMARK    2  A    between atoms: C_10  and  C_12
REMARK    3  A    between atoms: C_17  and  C_20
REMARK    4  A    between atoms: C_20  and  C_21
REMARK                            x       y       z     vdW  Elec       q    Type
REMARK                         _______ _______ _______ _____ _____    ______ ____
ROOT
ATOM      1  C   UNL     1       2.925  -5.218  -0.047  0.00  0.00    +0.270 C 
ATOM      2  O   UNL     1       2.502  -6.358  -0.051  0.00  0.00    -0.268 OA
ATOM      3  N   UNL     1       4.254  -4.993  -0.053  0.00  0.00    -0.259 N 
ATOM      4  C   UNL     1       5.139  -6.063  -0.063  0.00  0.00    +0.165 A 
ATOM      5  N   UNL     1       6.455  -6.035  -0.064  0.00  0.00    -0.229 NA
ATOM      6  C   UNL     1       7.161  -7.151  -0.074  0.00  0.00    +0.059 A 
ATOM      7  C   UNL     1       6.470  -8.317  -0.084  0.00  0.00    +0.072 A 
ATOM      8  S   UNL     1       4.791  -7.709  -0.069  0.00  0.00    -0.060 S 
ATOM      9  H   UNL     1       4.591  -4.083  -0.050  0.00  0.00    +0.157 HD
ENDROOT
BRANCH   1  13
ATOM     10  N   UNL     1       1.237  -2.082  -0.021  0.00  0.00    -0.238 N 
ATOM     11  C   UNL     1       0.136  -2.878  -0.020  0.00  0.00    +0.115 A 
ATOM     12  C   UNL     1       0.570  -4.160  -0.029  0.00  0.00    +0.054 A 
ATOM     13  C   UNL     1       1.984  -4.081  -0.036  0.00  0.00    +0.148 A 
ATOM     14  N   UNL     1       2.301  -2.801  -0.036  0.00  0.00    -0.162 NA
BRANCH  10  19
ATOM     15  C   UNL     1      -0.017   1.377   0.010  0.00  0.00    +0.002 A 
ATOM     16  C   UNL     1       1.170   2.087   0.002  0.00  0.00    +0.002 A 
ATOM     17  C   UNL     1       2.380   1.417  -0.013  0.00  0.00    +0.022 A 
ATOM     18  C   UNL     1       2.406   0.035  -0.021  0.00  0.00    +0.066 A 
ATOM     19  C   UNL     1       1.214  -0.681  -0.013  0.00  0.00    +0.084 A 
ATOM     20  C   UNL     1       0.002  -0.004   0.002  0.00  0.00    +0.029 A 
ATOM     21 CL   UNL     1       3.924  -0.806  -0.041  0.00  0.00    -0.081 Cl
ENDBRANCH  10  19
ENDBRANCH   1  13
BRANCH   6  22
ATOM     22  C   UNL     1       8.668  -7.129  -0.077  0.00  0.00    +0.151 C 
BRANCH  22  23
ATOM     23  C   UNL     1       9.156  -6.296  -1.234  0.00  0.00    +0.216 C 
ATOM     24  O   UNL     1       8.359  -5.773  -1.984  0.00  0.00    -0.276 OA
ATOM     25  N   UNL     1      10.479  -6.134  -1.437  0.00  0.00    -0.329 N 
ATOM     26  H   UNL     1      11.116  -6.553  -0.837  0.00  0.00    +0.145 HD
ATOM     27  H   UNL     1      10.793  -5.598  -2.182  0.00  0.00    +0.145 HD
ENDBRANCH  22  23
ENDBRANCH   6  22
TORSDOF 4
