REMARK  Name = ZINC49543246
REMARK  10 active torsions:
REMARK  status: ('A' for Active; 'I' for Inactive)
REMARK    1  A    between atoms: C_1  and  O_2
REMARK    2  A    between atoms: O_2  and  C_3
REMARK    3  A    between atoms: C_7  and  N_9
REMARK    4  A    between atoms: C_11  and  C_30
REMARK    5  A    between atoms: C_14  and  C_20
REMARK    6  A    between atoms: C_17  and  O_19
REMARK    7  A    between atoms: C_23  and  O_28
REMARK    8  A    between atoms: C_25  and  O_26
REMARK    9  A    between atoms: O_26  and  C_27
REMARK   10  A    between atoms: O_28  and  C_29
REMARK                            x       y       z     vdW  Elec       q    Type
REMARK                         _______ _______ _______ _____ _____    ______ ____
ROOT
ATOM      1  N   UNL     1      -2.543  -4.066   0.016  0.00  0.00    -0.316 N 
ATOM      2  C   UNL     1      -1.864  -4.865  -0.836  0.00  0.00    +0.109 A 
ATOM      3  C   UNL     1      -2.169  -6.183  -0.542  0.00  0.00    +0.107 A 
ATOM      4  C   UNL     1      -3.106  -6.133   0.578  0.00  0.00    +0.103 A 
ATOM      5  C   UNL     1      -3.285  -4.810   0.875  0.00  0.00    +0.058 A 
ATOM      6  C   UNL     1      -4.189  -4.377   2.003  0.00  0.00    +0.081 C 
ATOM      7  C   UNL     1      -4.187  -5.488   3.058  0.00  0.00    +0.110 C 
ATOM      8  C   UNL     1      -4.263  -6.848   2.429  0.00  0.00    +0.189 C 
ATOM      9  N   UNL     1      -3.739  -7.129   1.271  0.00  0.00    -0.215 NA
ENDROOT
BRANCH   1  14
ATOM     10  C   UNL     1      -1.200  -0.637   0.010  0.00  0.00    +0.122 A 
ATOM     11  C   UNL     1      -2.375   0.102   0.020  0.00  0.00    +0.046 A 
ATOM     12  C   UNL     1      -3.598  -0.540   0.028  0.00  0.00    +0.006 A 
ATOM     13  C   UNL     1      -3.656  -1.921   0.027  0.00  0.00    +0.026 A 
ATOM     14  C   UNL     1      -2.484  -2.666   0.017  0.00  0.00    +0.050 A 
ATOM     15  C   UNL     1      -1.254  -2.022   0.003  0.00  0.00    +0.071 A 
BRANCH  10  17
ATOM     16  C   UNL     1      -0.017   1.425   0.010  0.00  0.00    +0.277 C 
ATOM     17  O   UNL     1       0.002  -0.004   0.002  0.00  0.00    -0.495 OA
ENDBRANCH  10  17
ENDBRANCH   1  14
BRANCH   6  18
ATOM     18  C   UNL     1      -5.588  -4.167   1.484  0.00  0.00    +0.004 A 
ATOM     19  C   UNL     1      -6.274  -5.217   0.903  0.00  0.00    +0.011 A 
ATOM     20  C   UNL     1      -7.556  -5.028   0.426  0.00  0.00    +0.046 A 
ATOM     21  C   UNL     1      -8.160  -3.783   0.530  0.00  0.00    +0.124 A 
ATOM     22  C   UNL     1      -7.474  -2.728   1.112  0.00  0.00    +0.091 A 
ATOM     23  C   UNL     1      -6.189  -2.922   1.595  0.00  0.00    +0.127 A 
BRANCH  23  24
ATOM     24  O   UNL     1      -5.517  -1.891   2.171  0.00  0.00    -0.495 OA
ATOM     25  C   UNL     1      -6.197  -0.637   2.251  0.00  0.00    +0.277 C 
ENDBRANCH  23  24
BRANCH  21  26
ATOM     26  O   UNL     1      -9.422  -3.597   0.060  0.00  0.00    -0.495 OA
ATOM     27  C   UNL     1     -10.068  -4.728  -0.528  0.00  0.00    +0.277 C 
ENDBRANCH  21  26
ENDBRANCH   6  18
BRANCH   3  28
ATOM     28  C   UNL     1      -1.658  -7.381  -1.216  0.00  0.00    +0.390 C 
ATOM     29  O   UNL     1      -0.872  -7.271  -2.148  0.00  0.00    -0.240 OA
ATOM     30  O   UNL     1      -2.018  -8.491  -0.846  0.00  0.00    -0.240 OA
ENDBRANCH   3  28
BRANCH   8  31
ATOM     31  O   UNL     1      -4.912  -7.828   3.094  0.00  0.00    -0.495 OA
ATOM     32  H   UNL     1      -4.922  -8.677   2.631  0.00  0.00    +0.293 HD
ENDBRANCH   8  31
TORSDOF 7
