REMARK  Name = ZINC66249374
REMARK  7 active torsions:
REMARK  status: ('A' for Active; 'I' for Inactive)
REMARK    1  A    between atoms: C_1  and  C_2
REMARK    2  A    between atoms: C_2  and  N_3
REMARK    3  A    between atoms: C_5  and  S_8
REMARK    4  A    between atoms: S_8  and  N_11
REMARK    5  A    between atoms: C_14  and  C_17
REMARK    6  A    between atoms: C_17  and  N_18
REMARK    7  A    between atoms: C_22  and  C_25
REMARK                            x       y       z     vdW  Elec       q    Type
REMARK                         _______ _______ _______ _____ _____    ______ ____
ROOT
ATOM      1  N   UNL     1       2.349  -4.167  -3.353  0.00  0.00    -0.103 NA
ATOM      2  C   UNL     1       3.198  -5.047  -3.822  0.00  0.00    +0.191 A 
ATOM      3  N   UNL     1       3.012  -6.387  -4.086  0.00  0.00    -0.338 N 
ATOM      4  C   UNL     1       4.062  -7.106  -4.578  0.00  0.00    +0.008 A 
ATOM      5  C   UNL     1       5.237  -6.514  -4.795  0.00  0.00    +0.068 A 
ATOM      6  S   UNL     1       4.906  -4.830  -4.300  0.00  0.00    -0.057 S 
ATOM      7  H   UNL     1       2.154  -6.809  -3.925  0.00  0.00    +0.167 HD
ENDROOT
BRANCH   1   8
ATOM      8  S   UNL     1       2.823  -2.596  -3.130  0.00  0.00    +0.104 S 
ATOM      9  O   UNL     1       3.084  -2.063  -4.421  0.00  0.00    -0.146 OA
ATOM     10  O   UNL     1       3.801  -2.610  -2.099  0.00  0.00    -0.146 OA
BRANCH   8  13
ATOM     11  N   UNL     1      -0.010  -0.829  -1.119  0.00  0.00    -0.270 N 
ATOM     12  C   UNL     1       1.122  -1.561  -1.187  0.00  0.00    +0.137 A 
ATOM     13  C   UNL     1       1.434  -1.718  -2.494  0.00  0.00    +0.150 A 
ATOM     14  C   UNL     1       0.460  -1.059  -3.251  0.00  0.00    +0.163 A 
ATOM     15  N   UNL     1      -0.410  -0.531  -2.428  0.00  0.00    -0.178 NA
BRANCH  11  17
ATOM     16  C   UNL     1      -0.880   1.096   0.113  0.00  0.00    +0.029 C 
ATOM     17  C   UNL     1      -0.702  -0.423   0.107  0.00  0.00    +0.140 C 
ENDBRANCH  11  17
ENDBRANCH   8  13
ENDBRANCH   1   8
BRANCH   4  18
ATOM     18  C   UNL     1       3.893  -8.573  -4.878  0.00  0.00    -0.024 C 
BRANCH  18  19
ATOM     19  N   UNL     1       3.641  -9.302  -3.628  0.00  0.00    +0.384 N 
ATOM     20  C   UNL     1       3.331 -10.704  -3.934  0.00  0.00    -0.078 C 
ATOM     21  C   UNL     1       2.989 -11.449  -2.643  0.00  0.00    -0.018 C 
ATOM     22  C   UNL     1       4.186 -11.385  -1.690  0.00  0.00    -0.001 C 
ATOM     23  C   UNL     1       4.547  -9.919  -1.436  0.00  0.00    -0.031 C 
ATOM     24  C   UNL     1       4.832  -9.230  -2.773  0.00  0.00    -0.075 C 
ATOM     25  C   UNL     1       5.790  -9.845  -0.547  0.00  0.00    +0.005 C 
ATOM     26  H   UNL     1       2.858  -8.884  -3.148  0.00  0.00    -0.081 HD
ENDBRANCH  18  19
ENDBRANCH   4  18
TORSDOF 5
