REMARK  Name = ZINC25462371
REMARK  10 active torsions:
REMARK  status: ('A' for Active; 'I' for Inactive)
REMARK    1  A    between atoms: C_1  and  C_2
REMARK    2  A    between atoms: C_3  and  C_13
REMARK    3  A    between atoms: C_7  and  S_9
REMARK    4  A    between atoms: S_9  and  C_10
REMARK    5  A    between atoms: C_13  and  C_14
REMARK    6  A    between atoms: C_14  and  C_15
REMARK    7  A    between atoms: N_17  and  C_18
REMARK    8  A    between atoms: C_19  and  C_31
REMARK    9  A    between atoms: N_20  and  C_30
REMARK   10  A    between atoms: N_21  and  C_24
REMARK                            x       y       z     vdW  Elec       q    Type
REMARK                         _______ _______ _______ _____ _____    ______ ____
ROOT
ATOM      1  C   UNL     1      -0.585   0.509   1.681  0.00  0.00    +0.218 C 
ATOM      2  O   UNL     1      -1.760   0.742   1.489  0.00  0.00    -0.275 OA
ATOM      3  N   UNL     1      -0.007   0.875   2.842  0.00  0.00    -0.280 N 
ATOM      4  H   UNL     1       1.034   0.589   3.052  0.00  0.00    +0.155 HD
ENDROOT
BRANCH   3   5
ATOM      5  C   UNL     1      -0.735   1.625   3.787  0.00  0.00    +0.121 A 
ATOM      6  C   UNL     1      -0.341   2.779   4.371  0.00  0.00    +0.059 A 
ATOM      7  N   UNL     1      -1.327   3.195   5.226  0.00  0.00    -0.282 N 
ATOM      8  N   UNL     1      -2.381   2.275   5.194  0.00  0.00    -0.216 N 
ATOM      9  C   UNL     1      -2.057   1.297   4.323  0.00  0.00    +0.293 A 
ATOM     10  O   UNL     1      -2.735   0.327   4.037  0.00  0.00    -0.264 OA
ATOM     11  C   UNL     1      -1.282   4.407   6.048  0.00  0.00    +0.171 C 
ATOM     12  C   UNL     1       0.964   3.490   4.122  0.00  0.00    +0.067 C 
BRANCH   8  13
ATOM     13  C   UNL     1      -3.564   2.355   5.935  0.00  0.00    +0.067 A 
ATOM     14  C   UNL     1      -3.514   2.596   7.302  0.00  0.00    +0.028 A 
ATOM     15  C   UNL     1      -4.684   2.680   8.030  0.00  0.00    +0.002 A 
ATOM     16  C   UNL     1      -5.905   2.513   7.402  0.00  0.00    +0.000 A 
ATOM     17  C   UNL     1      -5.958   2.268   6.042  0.00  0.00    +0.002 A 
ATOM     18  C   UNL     1      -4.792   2.189   5.307  0.00  0.00    +0.028 A 
ENDBRANCH   8  13
ENDBRANCH   3   5
BRANCH   1  19
ATOM     19  C   UNL     1       0.227  -0.189   0.622  0.00  0.00    +0.101 C 
BRANCH  19  20
ATOM     20  C   UNL     1      -0.662  -0.492  -0.586  0.00  0.00    +0.051 C 
BRANCH  20  23
ATOM     21  C   UNL     1      -0.646  -3.370  -0.750  0.00  0.00    +0.066 C 
ATOM     22  C   UNL     1       0.160  -2.554  -1.726  0.00  0.00    +0.049 A 
ATOM     23  C   UNL     1       0.151  -1.191  -1.645  0.00  0.00    +0.040 A 
ATOM     24  C   UNL     1       0.906  -0.450  -2.571  0.00  0.00    +0.277 A 
ATOM     25  O   UNL     1       0.916   0.770  -2.530  0.00  0.00    -0.265 OA
ATOM     26  N   UNL     1       1.626  -1.113  -3.501  0.00  0.00    -0.183 NA
ATOM     27  C   UNL     1       1.597  -2.474  -3.533  0.00  0.00    +0.197 A 
ATOM     28  N   UNL     1       0.881  -3.162  -2.665  0.00  0.00    -0.227 NA
BRANCH  27  29
ATOM     29  S   UNL     1       2.533  -3.332  -4.756  0.00  0.00    -0.016 S 
BRANCH  29  30
ATOM     30  C   UNL     1       2.123  -5.041  -4.324  0.00  0.00    +0.407 C 
ATOM     31  F   UNL     1       2.530  -5.301  -3.011  0.00  0.00    -0.196 F 
ATOM     32  F   UNL     1       0.741  -5.230  -4.430  0.00  0.00    -0.196 F 
ENDBRANCH  29  30
ENDBRANCH  27  29
ENDBRANCH  20  23
ENDBRANCH  19  20
ENDBRANCH   1  19
TORSDOF 7
