REMARK  Name = ZINC20716634
REMARK  9 active torsions:
REMARK  status: ('A' for Active; 'I' for Inactive)
REMARK    1  A    between atoms: C_1  and  C_2
REMARK    2  A    between atoms: C_2  and  C_3
REMARK    3  A    between atoms: C_2  and  C_4
REMARK    4  A    between atoms: C_4  and  C_5
REMARK    5  A    between atoms: C_5  and  C_7
REMARK    6  A    between atoms: C_5  and  N_11
REMARK    7  A    between atoms: C_7  and  O_9
REMARK    8  A    between atoms: O_9  and  C_10
REMARK    9  A    between atoms: C_23  and  C_25
REMARK                            x       y       z     vdW  Elec       q    Type
REMARK                         _______ _______ _______ _____ _____    ______ ____
ROOT
ATOM      1  N   UNL     1       0.161   1.671   2.402  0.00  0.00    -0.286 N 
ATOM      2  C   UNL     1      -0.875   2.154   1.688  0.00  0.00    +0.304 C 
ATOM      3  O   UNL     1      -1.694   1.391   1.212  0.00  0.00    -0.253 OA
ATOM      4  N   UNL     1      -1.003   3.483   1.500  0.00  0.00    -0.273 N 
ATOM      5  C   UNL     1       0.035   4.414   1.967  0.00  0.00    +0.116 C 
ATOM      6  C   UNL     1       0.665   5.114   0.757  0.00  0.00    +0.076 C 
ATOM      7  C   UNL     1      -0.434   5.563  -0.173  0.00  0.00    +0.066 A 
ATOM      8  C   UNL     1      -1.696   5.085  -0.148  0.00  0.00    +0.064 A 
ATOM      9  N   UNL     1      -2.388   5.722  -1.131  0.00  0.00    -0.346 N 
ATOM     10  H   UNL     1      -3.321   5.589  -1.360  0.00  0.00    +0.167 HD
ATOM     11  C   UNL     1      -1.527   6.578  -1.729  0.00  0.00    +0.197 A 
ATOM     12  N   UNL     1      -0.360   6.475  -1.148  0.00  0.00    -0.240 NA
ATOM     13  C   UNL     1      -2.185   4.040   0.816  0.00  0.00    +0.159 C 
ATOM     14  H   UNL     1       0.773   2.282   2.842  0.00  0.00    +0.151 HD
ENDROOT
BRANCH  13  15
ATOM     15  C   UNL     1      -3.111   4.670   1.824  0.00  0.00    +0.014 A 
ATOM     16  C   UNL     1      -3.180   6.046   1.933  0.00  0.00    +0.011 A 
ATOM     17  C   UNL     1      -4.029   6.626   2.857  0.00  0.00    +0.039 A 
ATOM     18  C   UNL     1      -4.812   5.828   3.674  0.00  0.00    +0.126 A 
ATOM     19  C   UNL     1      -4.745   4.450   3.566  0.00  0.00    +0.077 A 
ATOM     20  C   UNL     1      -3.898   3.870   2.636  0.00  0.00    +0.131 A 
ATOM     21  F   UNL     1      -3.834   2.526   2.525  0.00  0.00    -0.205 F 
ATOM     22  F   UNL     1      -5.642   6.394   4.577  0.00  0.00    -0.205 F 
ENDBRANCH  13  15
BRANCH   1  23
ATOM     23  C   UNL     1       0.363   0.225   2.513  0.00  0.00    +0.183 C 
BRANCH  23  24
ATOM     24  C   UNL     1       1.218  -0.072   3.719  0.00  0.00    +0.327 C 
ATOM     25  O   UNL     1       1.617   0.833   4.413  0.00  0.00    -0.249 OA
BRANCH  24  26
ATOM     26  O   UNL     1       1.535  -1.341   4.020  0.00  0.00    -0.467 OA
ATOM     27  C   UNL     1       2.349  -1.548   5.177  0.00  0.00    +0.280 C 
ENDBRANCH  24  26
ENDBRANCH  23  24
BRANCH  23  28
ATOM     28  C   UNL     1       1.060  -0.291   1.254  0.00  0.00    +0.036 C 
BRANCH  28  30
ATOM     29  C   UNL     1      -0.304  -2.384   1.234  0.00  0.00    +0.007 C 
ATOM     30  C   UNL     1       1.117  -1.820   1.292  0.00  0.00    -0.015 C 
ATOM     31  C   UNL     1       1.917  -2.331   0.092  0.00  0.00    +0.007 C 
ENDBRANCH  28  30
ENDBRANCH  23  28
ENDBRANCH   1  23
TORSDOF 6
