REMARK  Name = ZINC56904736
REMARK  7 active torsions:
REMARK  status: ('A' for Active; 'I' for Inactive)
REMARK    1  A    between atoms: C_2  and  C_3
REMARK    2  A    between atoms: C_3  and  N_4
REMARK    3  A    between atoms: C_7  and  O_8
REMARK    4  A    between atoms: N_9  and  C_27
REMARK    5  A    between atoms: C_12  and  C_14
REMARK    6  A    between atoms: N_16  and  C_17
REMARK    7  A    between atoms: C_21  and  N_23
REMARK                            x       y       z     vdW  Elec       q    Type
REMARK                         _______ _______ _______ _____ _____    ______ ____
ROOT
ATOM      1  N   UNL     1      -1.296  -1.692  -1.132  0.00  0.00    -0.348 N 
ATOM      2  C   UNL     1      -1.796  -1.256  -2.265  0.00  0.00    +0.101 A 
ATOM      3  C   UNL     1      -1.860  -2.087  -3.390  0.00  0.00    +0.080 A 
ATOM      4  C   UNL     1      -2.310  -1.959  -4.701  0.00  0.00    +0.225 A 
ATOM      5  N   UNL     1      -2.099  -3.135  -5.319  0.00  0.00    -0.199 N 
ATOM      6  N   UNL     1      -1.513  -4.044  -4.429  0.00  0.00    -0.162 NA
ATOM      7  C   UNL     1      -1.350  -3.466  -3.265  0.00  0.00    +0.112 A 
ATOM      8  C   UNL     1      -0.810  -3.860  -1.957  0.00  0.00    +0.081 A 
ATOM      9  C   UNL     1      -0.817  -2.910  -0.946  0.00  0.00    +0.101 A 
ENDROOT
BRANCH   5  10
ATOM     10  C   UNL     1      -2.420  -3.410  -6.654  0.00  0.00    +0.069 A 
ATOM     11  C   UNL     1      -3.547  -2.840  -7.231  0.00  0.00    +0.028 A 
ATOM     12  C   UNL     1      -3.860  -3.113  -8.548  0.00  0.00    +0.002 A 
ATOM     13  C   UNL     1      -3.052  -3.953  -9.293  0.00  0.00    +0.000 A 
ATOM     14  C   UNL     1      -1.928  -4.522  -8.721  0.00  0.00    +0.002 A 
ATOM     15  C   UNL     1      -1.607  -4.248  -7.406  0.00  0.00    +0.028 A 
ENDBRANCH   5  10
BRANCH   8  16
ATOM     16  C   UNL     1      -0.278  -5.212  -1.728  0.00  0.00    +0.252 C 
ATOM     17  O   UNL     1      -0.279  -6.027  -2.631  0.00  0.00    -0.270 OA
ATOM     18  N   UNL     1       0.211  -5.547  -0.518  0.00  0.00    -0.281 N 
ATOM     19  H   UNL     1       0.275  -4.879   0.182  0.00  0.00    +0.155 HD
BRANCH  18  20
ATOM     20  C   UNL     1       0.628  -6.860  -0.271  0.00  0.00    +0.036 A 
ATOM     21  C   UNL     1       0.436  -7.427   0.982  0.00  0.00    +0.025 A 
ATOM     22  C   UNL     1       0.848  -8.723   1.222  0.00  0.00    +0.024 A 
ATOM     23  C   UNL     1       1.452  -9.456   0.216  0.00  0.00    +0.071 A 
ATOM     24  C   UNL     1       1.645  -8.893  -1.033  0.00  0.00    +0.146 A 
ATOM     25  C   UNL     1       1.230  -7.600  -1.281  0.00  0.00    +0.057 A 
ATOM     26 CL   UNL     1       1.968 -11.085   0.522  0.00  0.00    -0.081 Cl
BRANCH  24  27
ATOM     27  N   UNL     1       2.292  -9.681  -2.107  0.00  0.00    +0.058 N 
ATOM     28  O   UNL     1       2.461  -9.190  -3.198  0.00  0.00    -0.126 OA
ATOM     29  O   UNL     1       2.651 -10.815  -1.892  0.00  0.00    -0.126 OA
ENDBRANCH  24  27
ENDBRANCH  18  20
ENDBRANCH   8  16
BRANCH   4  30
ATOM     30  O   UNL     1      -2.860  -0.852  -5.254  0.00  0.00    -0.492 OA
ATOM     31  H   UNL     1      -2.217  -0.256  -5.663  0.00  0.00    +0.294 HD
ENDBRANCH   4  30
BRANCH   1  32
ATOM     32  C   UNL     1      -1.262  -0.765   0.002  0.00  0.00    +0.148 C 
BRANCH  32  34
ATOM     33  C   UNL     1       0.028   1.308  -0.009  0.00  0.00    +0.005 C 
ATOM     34  C   UNL     1       0.037  -0.002  -0.013  0.00  0.00    -0.013 C 
ENDBRANCH  32  34
ENDBRANCH   1  32
TORSDOF 7
