REMARK  Name = ZINC63426640
REMARK  6 active torsions:
REMARK  status: ('A' for Active; 'I' for Inactive)
REMARK    1  A    between atoms: C_1  and  O_2
REMARK    2  A    between atoms: O_2  and  C_3
REMARK    3  A    between atoms: C_6  and  C_18
REMARK    4  A    between atoms: C_8  and  C_9
REMARK    5  A    between atoms: C_9  and  N_10
REMARK    6  A    between atoms: C_12  and  N_15
REMARK                            x       y       z     vdW  Elec       q    Type
REMARK                         _______ _______ _______ _____ _____    ______ ____
ROOT
ATOM      1  C   UNL     1      -1.200  -0.637   0.010  0.00  0.00    +0.125 A 
ATOM      2  C   UNL     1      -2.365   0.084   0.232  0.00  0.00    +0.046 A 
ATOM      3  C   UNL     1      -3.585  -0.562   0.239  0.00  0.00    +0.009 A 
ATOM      4  C   UNL     1      -3.648  -1.927   0.026  0.00  0.00    -0.028 A 
ATOM      5  C   UNL     1      -2.489  -2.648  -0.195  0.00  0.00    +0.013 A 
ATOM      6  C   UNL     1      -1.266  -2.006  -0.209  0.00  0.00    +0.010 A 
ENDROOT
BRANCH   4   7
ATOM      7  C   UNL     1      -4.981  -2.629   0.034  0.00  0.00    +0.111 C 
ATOM      8  C   UNL     1      -5.724  -2.311   1.334  0.00  0.00    +0.128 C 
ATOM      9  C   UNL     1      -6.042  -0.821   1.288  0.00  0.00    -0.035 C 
ATOM     10  C   UNL     1      -5.556  -0.299   2.406  0.00  0.00    -0.001 A 
ATOM     11  C   UNL     1      -5.627   1.060   2.966  0.00  0.00    +0.010 A 
ATOM     12  C   UNL     1      -4.991   1.254   4.152  0.00  0.00    +0.001 A 
ATOM     13  C   UNL     1      -4.300   0.243   4.829  0.00  0.00    +0.002 A 
ATOM     14  C   UNL     1      -4.189  -1.036   4.390  0.00  0.00    +0.026 A 
ATOM     15  C   UNL     1      -4.822  -1.364   3.156  0.00  0.00    +0.043 A 
ATOM     16  N   UNL     1      -4.895  -2.518   2.521  0.00  0.00    -0.376 N 
ATOM     17  C   UNL     1      -6.699  -0.188   0.086  0.00  0.00    +0.048 C 
ATOM     18  C   UNL     1      -5.925  -0.695  -1.144  0.00  0.00    +0.086 C 
ATOM     19  N   UNL     1      -5.798  -2.156  -1.095  0.00  0.00    -0.307 NA
ATOM     20  H   UNL     1      -5.452  -2.519  -1.970  0.00  0.00    +0.123 HD
ATOM     21  H   UNL     1      -4.476  -3.353   2.782  0.00  0.00    +0.160 HD
ENDBRANCH   4   7
BRANCH   1  23
ATOM     22  C   UNL     1      -0.006   1.406   0.235  0.00  0.00    +0.277 C 
ATOM     23  O   UNL     1       0.002  -0.004   0.002  0.00  0.00    -0.495 OA
ENDBRANCH   1  23
BRANCH   6  24
ATOM     24  C   UNL     1      -0.004  -2.791  -0.456  0.00  0.00    +0.144 C 
BRANCH  24  25
ATOM     25  N   UNL     1       0.477  -2.530  -1.819  0.00  0.00    -0.219 NA
ATOM     26  C   UNL     1       1.679  -3.333  -2.119  0.00  0.00    +0.167 C 
ATOM     27  C   UNL     1       2.742  -2.305  -2.445  0.00  0.00    +0.134 C 
ATOM     28  C   UNL     1       2.175  -1.122  -2.331  0.00  0.00    +0.114 C 
ATOM     29  N   UNL     1       0.847  -1.224  -1.966  0.00  0.00    -0.282 N 
ATOM     30  H   UNL     1       0.255  -0.467  -1.831  0.00  0.00    +0.166 HD
BRANCH  27  31
ATOM     31  N   UNL     1       4.148  -2.578  -2.818  0.00  0.00    +0.055 N 
ATOM     32  O   UNL     1       4.899  -1.661  -3.055  0.00  0.00    -0.126 OA
ATOM     33  O   UNL     1       4.545  -3.718  -2.886  0.00  0.00    -0.126 OA
ENDBRANCH  27  31
ENDBRANCH  24  25
ENDBRANCH   6  24
TORSDOF 5
