REMARK  Name = ZINC36646815
REMARK  3 active torsions:
REMARK  status: ('A' for Active; 'I' for Inactive)
REMARK    1  A    between atoms: C_8  and  C_12
REMARK    2  A    between atoms: C_18  and  C_20
REMARK    3  A    between atoms: C_20  and  N_21
REMARK                            x       y       z     vdW  Elec       q    Type
REMARK                         _______ _______ _______ _____ _____    ______ ____
ROOT
ATOM      1  C   UNL     1       2.641  -4.211   0.265  0.00  0.00    +0.087 A 
ATOM      2  C   UNL     1       3.858  -4.778   0.529  0.00  0.00    +0.077 A 
ATOM      3  S   UNL     1       3.444  -6.514   0.424  0.00  0.00    -0.060 S 
ATOM      4  C   UNL     1       1.710  -6.308   0.043  0.00  0.00    +0.165 A 
ATOM      5  N   UNL     1       1.597  -4.993   0.034  0.00  0.00    -0.224 NA
ATOM      6  N   UNL     1       0.738  -7.275  -0.179  0.00  0.00    -0.263 N 
ATOM      7  C   UNL     1       1.062  -8.582  -0.118  0.00  0.00    +0.239 C 
ATOM      8  O   UNL     1       2.201  -8.914   0.131  0.00  0.00    -0.273 OA
ATOM      9  H   UNL     1      -0.173  -7.010  -0.378  0.00  0.00    +0.157 HD
ENDROOT
BRANCH   1  17
ATOM     10  C   UNL     1      -0.017   1.362   0.009  0.00  0.00    +0.001 A 
ATOM     11  C   UNL     1       1.169   2.084   0.002  0.00  0.00    +0.004 A 
ATOM     12  C   UNL     1       2.387   1.436  -0.015  0.00  0.00    +0.047 A 
ATOM     13  C   UNL     1       2.430   0.049  -0.025  0.00  0.00    +0.139 A 
ATOM     14  C   UNL     1       1.227  -0.681  -0.013  0.00  0.00    +0.018 A 
ATOM     15  C   UNL     1       0.002  -0.004   0.002  0.00  0.00    +0.011 A 
ATOM     16  C   UNL     1       1.277  -2.146  -0.014  0.00  0.00    +0.028 A 
ATOM     17  C   UNL     1       2.491  -2.737   0.244  0.00  0.00    +0.086 A 
ATOM     18  C   UNL     1       3.636  -1.846   0.499  0.00  0.00    +0.347 A 
ATOM     19  O   UNL     1       4.576  -2.214   1.179  0.00  0.00    -0.244 OA
ATOM     20  O   UNL     1       3.614  -0.608  -0.045  0.00  0.00    -0.422 OA
ENDBRANCH   1  17
BRANCH   7  21
ATOM     21  C   UNL     1       0.007  -9.632  -0.359  0.00  0.00    +0.224 C 
BRANCH  21  22
ATOM     22  N   UNL     1       0.607 -10.963  -0.238  0.00  0.00    -0.265 N 
ATOM     23  C   UNL     1       1.191 -11.701  -1.266  0.00  0.00    +0.091 A 
ATOM     24  C   UNL     1       1.389 -11.461  -2.617  0.00  0.00    +0.030 A 
ATOM     25  C   UNL     1       2.016 -12.411  -3.399  0.00  0.00    +0.002 A 
ATOM     26  C   UNL     1       2.447 -13.600  -2.838  0.00  0.00    +0.004 A 
ATOM     27  C   UNL     1       2.254 -13.847  -1.493  0.00  0.00    +0.048 A 
ATOM     28  C   UNL     1       1.625 -12.899  -0.700  0.00  0.00    +0.157 A 
ATOM     29  O   UNL     1       1.304 -12.862   0.617  0.00  0.00    -0.407 OA
ATOM     30  C   UNL     1       0.699 -11.696   0.890  0.00  0.00    +0.422 A 
ATOM     31  O   UNL     1       0.293 -11.354   1.984  0.00  0.00    -0.223 OA
ENDBRANCH  21  22
ENDBRANCH   7  21
TORSDOF 3
