REMARK  Name = ZINC05147722
REMARK  9 active torsions:
REMARK  status: ('A' for Active; 'I' for Inactive)
REMARK    1  A    between atoms: C_1  and  C_2
REMARK    2  A    between atoms: C_3  and  C_4
REMARK    3  A    between atoms: C_4  and  N_5
REMARK    4  A    between atoms: N_10  and  N_11
REMARK    5  A    between atoms: C_12  and  C_13
REMARK    6  A    between atoms: C_12  and  C_14
REMARK    7  A    between atoms: C_17  and  O_20
REMARK    8  A    between atoms: N_21  and  C_28
REMARK    9  A    between atoms: N_24  and  C_27
REMARK                            x       y       z     vdW  Elec       q    Type
REMARK                         _______ _______ _______ _____ _____    ______ ____
ROOT
ATOM      1  N   UNL     1      -2.571   1.526   0.022  0.00  0.00    -0.301 N 
ATOM      2  C   UNL     1      -1.238   1.909   0.018  0.00  0.00    +0.153 A 
ATOM      3  C   UNL     1      -1.229   3.300   0.031  0.00  0.00    +0.170 A 
ATOM      4  N   UNL     1      -2.498   3.710   0.045  0.00  0.00    -0.195 NA
ATOM      5  C   UNL     1      -3.307   2.670   0.032  0.00  0.00    +0.218 A 
ATOM      6  N   UNL     1      -4.682   2.732   0.039  0.00  0.00    -0.206 N 
ATOM      7  N   UNL     1      -0.010   3.960   0.023  0.00  0.00    -0.280 N 
ATOM      8  C   UNL     1       1.137   3.256   0.009  0.00  0.00    +0.333 A 
ATOM      9  O   UNL     1       2.198   3.851   0.002  0.00  0.00    -0.246 OA
ATOM     10  N   UNL     1       1.140   1.912   0.001  0.00  0.00    -0.262 N 
ATOM     11  C   UNL     1      -0.015   1.214   0.009  0.00  0.00    +0.282 A 
ATOM     12  O   UNL     1       0.002  -0.004   0.002  0.00  0.00    -0.265 OA
ATOM     13  C   UNL     1       2.417   1.193  -0.015  0.00  0.00    +0.157 C 
ATOM     14  C   UNL     1       0.029   5.424   0.030  0.00  0.00    +0.155 C 
ATOM     15  H   UNL     1      -5.204   1.915   0.037  0.00  0.00    +0.177 HD
ENDROOT
BRANCH   6  16
ATOM     16  N   UNL     1      -5.327   3.975   0.049  0.00  0.00    -0.184 NA
ATOM     17  C   UNL     1      -6.624   4.034   0.055  0.00  0.00    +0.063 C 
ATOM     18  C   UNL     1      -7.435   2.764   0.052  0.00  0.00    +0.068 C 
BRANCH  17  19
ATOM     19  C   UNL     1      -7.303   5.342   0.065  0.00  0.00    -0.002 A 
ATOM     20  C   UNL     1      -8.699   5.408   0.067  0.00  0.00    +0.013 A 
ATOM     21  C   UNL     1      -9.329   6.633   0.081  0.00  0.00    +0.046 A 
ATOM     22  C   UNL     1      -8.579   7.802   0.084  0.00  0.00    +0.117 A 
ATOM     23  C   UNL     1      -7.191   7.742   0.077  0.00  0.00    +0.046 A 
ATOM     24  C   UNL     1      -6.552   6.521   0.068  0.00  0.00    +0.013 A 
BRANCH  22  25
ATOM     25  O   UNL     1      -9.205   9.008   0.093  0.00  0.00    -0.507 OA
ATOM     26  H   UNL     1      -9.390   9.362  -0.787  0.00  0.00    +0.292 HD
ENDBRANCH  22  25
ENDBRANCH  17  19
ENDBRANCH   6  16
BRANCH   1  27
ATOM     27  C   UNL     1      -3.087   0.155   0.017  0.00  0.00    +0.153 C 
BRANCH  27  30
ATOM     28  C   UNL     1      -5.585  -0.821   0.885  0.00  0.00    +0.057 C 
ATOM     29  C   UNL     1      -4.420  -0.778   1.840  0.00  0.00    +0.013 C 
ATOM     30  C   UNL     1      -3.258  -0.324   1.436  0.00  0.00    +0.010 C 
ATOM     31 CL   UNL     1      -4.616  -1.329   3.474  0.00  0.00    -0.089 Cl
ENDBRANCH  27  30
ENDBRANCH   1  27
TORSDOF 5
