REMARK  Name = ZINC16957165
REMARK  9 active torsions:
REMARK  status: ('A' for Active; 'I' for Inactive)
REMARK    1  A    between atoms: C_1  and  O_2
REMARK    2  A    between atoms: O_2  and  C_3
REMARK    3  A    between atoms: C_9  and  C_13
REMARK    4  A    between atoms: C_13  and  C_14
REMARK    5  A    between atoms: C_14  and  N_15
REMARK    6  A    between atoms: C_19  and  C_20
REMARK    7  A    between atoms: N_24  and  C_25
REMARK    8  A    between atoms: C_30  and  O_31
REMARK    9  A    between atoms: O_31  and  C_32
REMARK                            x       y       z     vdW  Elec       q    Type
REMARK                         _______ _______ _______ _____ _____    ______ ____
ROOT
ATOM      1  N   UNL     1      -1.726   1.761  -0.069  0.00  0.00    -0.246 N 
ATOM      2  C   UNL     1      -0.769   0.851  -0.011  0.00  0.00    +0.259 C 
ATOM      3  O   UNL     1      -1.011  -0.337  -0.097  0.00  0.00    -0.269 OA
ATOM      4  C   UNL     1       0.622   1.356   0.159  0.00  0.00    +0.084 C 
ATOM      5  C   UNL     1       1.788   0.661   0.245  0.00  0.00    +0.116 C 
ATOM      6  S   UNL     1       0.346   3.120   0.220  0.00  0.00    -0.049 S 
ATOM      7  C   UNL     1      -1.429   3.104   0.036  0.00  0.00    +0.169 C 
ATOM      8  N   UNL     1      -2.253   4.124   0.002  0.00  0.00    -0.222 NA
ENDROOT
BRANCH   8   9
ATOM      9  C   UNL     1      -1.761   5.401   0.002  0.00  0.00    +0.108 A 
ATOM     10  C   UNL     1      -0.710   5.747  -0.849  0.00  0.00    +0.031 A 
ATOM     11  C   UNL     1      -0.222   7.038  -0.849  0.00  0.00    +0.002 A 
ATOM     12  C   UNL     1      -0.763   7.988  -0.000  0.00  0.00    +0.004 A 
ATOM     13  C   UNL     1      -1.801   7.655   0.851  0.00  0.00    +0.048 A 
ATOM     14  C   UNL     1      -2.306   6.366   0.859  0.00  0.00    +0.145 A 
BRANCH  14  15
ATOM     15  O   UNL     1      -3.326   6.038   1.696  0.00  0.00    -0.493 OA
ATOM     16  C   UNL     1      -3.830   7.074   2.541  0.00  0.00    +0.277 C 
ENDBRANCH  14  15
ENDBRANCH   8   9
BRANCH   5  17
ATOM     17  C   UNL     1       1.764  -0.795   0.360  0.00  0.00    +0.381 C 
ATOM     18  O   UNL     1       0.705  -1.377   0.497  0.00  0.00    -0.241 OA
ATOM     19  O   UNL     1       2.917  -1.495   0.314  0.00  0.00    -0.241 OA
ENDBRANCH   5  17
BRANCH   1  20
ATOM     20  C   UNL     1      -3.118   1.339  -0.241  0.00  0.00    +0.120 C 
BRANCH  20  21
ATOM     21  C   UNL     1      -3.758   1.120   1.132  0.00  0.00    +0.056 C 
BRANCH  21  28
ATOM     22  C   UNL     1      -5.784  -3.058   0.404  0.00  0.00    +0.121 A 
ATOM     23  C   UNL     1      -7.170  -2.970   0.301  0.00  0.00    +0.047 A 
ATOM     24  C   UNL     1      -7.806  -1.754   0.411  0.00  0.00    +0.030 A 
ATOM     25  C   UNL     1      -7.064  -0.598   0.627  0.00  0.00    +0.047 A 
ATOM     26  C   UNL     1      -5.664  -0.683   0.732  0.00  0.00    +0.006 A 
ATOM     27  C   UNL     1      -5.029  -1.922   0.619  0.00  0.00    +0.056 A 
ATOM     28  C   UNL     1      -5.190   0.685   0.955  0.00  0.00    -0.021 A 
ATOM     29  C   UNL     1      -6.274   1.478   0.977  0.00  0.00    +0.087 A 
ATOM     30  N   UNL     1      -7.402   0.730   0.778  0.00  0.00    -0.360 N 
ATOM     31  H   UNL     1      -8.306   1.082   0.750  0.00  0.00    +0.165 HD
BRANCH  22  33
ATOM     32  C   UNL     1      -6.012  -5.401   0.071  0.00  0.00    +0.277 C 
ATOM     33  O   UNL     1      -5.172  -4.267   0.292  0.00  0.00    -0.495 OA
ENDBRANCH  22  33
ENDBRANCH  21  28
ENDBRANCH  20  21
ENDBRANCH   1  20
TORSDOF 7
