REMARK  Name = ZINC00408809
REMARK  5 active torsions:
REMARK  status: ('A' for Active; 'I' for Inactive)
REMARK    1  A    between atoms: C_1  and  C_2
REMARK    2  A    between atoms: C_7  and  N_8
REMARK    3  A    between atoms: C_9  and  C_11
REMARK    4  A    between atoms: C_15  and  S_17
REMARK    5  A    between atoms: S_17  and  C_20
REMARK                            x       y       z     vdW  Elec       q    Type
REMARK                         _______ _______ _______ _____ _____    ______ ____
ROOT
ATOM      1  N   UNL     1       0.025  -0.015   2.416  0.00  0.00    -0.280 N 
ATOM      2  C   UNL     1      -0.056  -0.695   3.577  0.00  0.00    +0.268 C 
ATOM      3  O   UNL     1      -0.040  -1.910   3.572  0.00  0.00    -0.268 OA
ATOM      4  H   UNL     1       0.078   0.953   2.424  0.00  0.00    +0.155 HD
ENDROOT
BRANCH   1  11
ATOM      5  C   UNL     1      -1.267   1.182   0.182  0.00  0.00    +0.045 C 
ATOM      6  C   UNL     1      -0.585  -0.158   0.085  0.00  0.00    -0.029 A 
ATOM      7  C   UNL     1      -0.570  -0.841  -1.116  0.00  0.00    +0.005 A 
ATOM      8  C   UNL     1       0.054  -2.071  -1.206  0.00  0.00    +0.000 A 
ATOM      9  C   UNL     1       0.667  -2.622  -0.095  0.00  0.00    +0.002 A 
ATOM     10  C   UNL     1       0.655  -1.945   1.108  0.00  0.00    +0.023 A 
ATOM     11  C   UNL     1       0.034  -0.706   1.201  0.00  0.00    +0.037 A 
ENDBRANCH   1  11
BRANCH   2  12
ATOM     12  C   UNL     1      -0.166   0.040   4.861  0.00  0.00    +0.149 A 
ATOM     13  C   UNL     1      -0.245  -0.653   6.072  0.00  0.00    +0.090 A 
ATOM     14  C   UNL     1      -0.346   0.084   7.245  0.00  0.00    +0.136 A 
ATOM     15  N   UNL     1      -0.363   1.404   7.176  0.00  0.00    -0.219 NA
ATOM     16  C   UNL     1      -0.287   2.026   6.016  0.00  0.00    +0.271 A 
ATOM     17  N   UNL     1      -0.185   1.371   4.880  0.00  0.00    -0.206 NA
ATOM     18 CL   UNL     1      -0.219  -2.388   6.109  0.00  0.00    -0.080 Cl
BRANCH  16  19
ATOM     19  S   UNL     1      -0.315   3.788   5.987  0.00  0.00    +0.029 S 
ATOM     20  O   UNL     1      -0.829   4.121   4.704  0.00  0.00    -0.167 OA
ATOM     21  O   UNL     1      -1.015   4.158   7.166  0.00  0.00    -0.167 OA
ATOM     22  C   UNL     1       1.425   4.284   6.111  0.00  0.00    +0.204 C 
ENDBRANCH  16  19
ENDBRANCH   2  12
TORSDOF 3
