REMARK  Name = ZINC05602903
REMARK  5 active torsions:
REMARK  status: ('A' for Active; 'I' for Inactive)
REMARK    1  A    between atoms: C_1  and  N_2
REMARK    2  A    between atoms: N_7  and  C_10
REMARK    3  A    between atoms: C_12  and  N_15
REMARK    4  A    between atoms: N_15  and  N_16
REMARK    5  A    between atoms: C_17  and  C_18
REMARK                            x       y       z     vdW  Elec       q    Type
REMARK                         _______ _______ _______ _____ _____    ______ ____
ROOT
ATOM      1  C   UNL     1      -9.598   5.132   0.076  0.00  0.00    +0.155 C 
ATOM      2  N   UNL     1      -9.567   3.667   0.068  0.00  0.00    -0.280 N 
ATOM      3  C   UNL     1      -8.349   3.009   0.058  0.00  0.00    +0.168 A 
ATOM      4  C   UNL     1      -8.339   1.605   0.049  0.00  0.00    +0.173 A 
ATOM      5  C   UNL     1      -9.637   0.899   0.052  0.00  0.00    +0.284 A 
ATOM      6  O   UNL     1      -9.686  -0.316   0.045  0.00  0.00    -0.265 OA
ATOM      7  N   UNL     1     -10.767   1.637   0.062  0.00  0.00    -0.262 N 
ATOM      8  C   UNL     1     -10.721   2.979   0.070  0.00  0.00    +0.333 A 
ATOM      9  O   UNL     1     -11.767   3.598   0.079  0.00  0.00    -0.246 OA
ATOM     10  C   UNL     1     -12.068   0.963   0.065  0.00  0.00    +0.157 C 
ATOM     11  N   UNL     1      -7.188   0.944   0.040  0.00  0.00    -0.220 NA
ATOM     12  C   UNL     1      -6.049   1.619   0.038  0.00  0.00    +0.157 A 
ATOM     13  C   UNL     1      -6.060   3.017   0.052  0.00  0.00    +0.158 A 
ATOM     14  N   UNL     1      -7.203   3.676   0.056  0.00  0.00    -0.232 NA
ENDROOT
BRANCH  12  15
ATOM     15  N   UNL     1      -4.838   0.936   0.029  0.00  0.00    -0.220 N 
ATOM     16  H   UNL     1      -4.828  -0.034   0.023  0.00  0.00    +0.176 HD
BRANCH  15  17
ATOM     17  N   UNL     1      -3.631   1.648   0.028  0.00  0.00    -0.189 NA
ATOM     18  C   UNL     1      -2.501   1.010   0.019  0.00  0.00    +0.138 C 
BRANCH  18  19
ATOM     19  C   UNL     1      -1.231   1.759   0.017  0.00  0.00    -0.005 A 
ATOM     20  C   UNL     1      -0.013   1.076   0.008  0.00  0.00    +0.010 A 
ATOM     21  C   UNL     1       1.171   1.783   0.001  0.00  0.00    +0.016 A 
ATOM     22  C   UNL     1       1.154   3.168   0.008  0.00  0.00    +0.018 A 
ATOM     23  C   UNL     1      -0.050   3.851   0.023  0.00  0.00    +0.016 A 
ATOM     24  C   UNL     1      -1.241   3.156   0.031  0.00  0.00    +0.010 A 
ATOM     25 BR   UNL     1       2.783   4.129  -0.002  0.00  0.00    -0.050 Br
ENDBRANCH  18  19
ENDBRANCH  15  17
ENDBRANCH  12  15
TORSDOF 3
