REMARK  Name = ZINC04040471
REMARK  4 active torsions:
REMARK  status: ('A' for Active; 'I' for Inactive)
REMARK    1  A    between atoms: C_1  and  C_2
REMARK    2  A    between atoms: C_5  and  C_25
REMARK    3  A    between atoms: C_6  and  C_8
REMARK    4  A    between atoms: CA_21  and  C_23
REMARK                            x       y       z     vdW  Elec       q    Type
REMARK                         _______ _______ _______ _____ _____    ______ ____
ROOT
ATOM      1  C   UNL     1      -0.013   1.086   0.008  0.00  0.00    +0.008 C 
ATOM      2  C   UNL     1      -0.728   1.577   1.245  0.00  0.00    +0.010 A 
ATOM      3  C   UNL     1      -1.995   2.049   1.224  0.00  0.00    -0.021 A 
ATOM      4  C   UNL     1      -2.334   2.422   2.580  0.00  0.00    +0.003 A 
ATOM      5  C   UNL     1      -3.487   2.962   3.157  0.00  0.00    +0.010 A 
ATOM      6  C   UNL     1      -3.454   3.193   4.510  0.00  0.00    +0.001 A 
ATOM      7  C   UNL     1      -2.337   2.910   5.279  0.00  0.00    +0.002 A 
ATOM      8  C   UNL     1      -1.182   2.376   4.734  0.00  0.00    +0.026 A 
ATOM      9  C   UNL     1      -1.186   2.131   3.362  0.00  0.00    +0.047 A 
ATOM     10  N   UNL     1      -0.238   1.622   2.521  0.00  0.00    -0.359 N 
ATOM     11  H   UNL     1       0.650   1.336   2.789  0.00  0.00    +0.166 HD
ATOM     12  C   UNL     1      -2.831   2.133  -0.028  0.00  0.00    +0.033 C 
ATOM     13  CA  UNL     1      -2.169   1.258  -1.100  0.00  0.00    +0.049 C 
ATOM     14  N   UNL     1      -0.727   1.583  -1.187  0.00  0.00    +0.396 N 
ATOM     15  H1  UNL     1      -0.331   1.142  -2.026  0.00  0.00    -0.083 HD
ATOM     16  H2  UNL     1      -0.613   2.602  -1.250  0.00  0.00    -0.083 HD
ENDROOT
BRANCH   1  22
ATOM     17  C   UNL     1       3.321   4.526  -1.442  0.00  0.00    +0.044 C 
ATOM     18  C   UNL     1       2.994   3.257  -0.696  0.00  0.00    -0.050 A 
ATOM     19  C   UNL     1       3.991   2.576  -0.022  0.00  0.00    +0.003 A 
ATOM     20  C   UNL     1       3.691   1.413   0.662  0.00  0.00    +0.004 A 
ATOM     21  C   UNL     1       2.395   0.933   0.675  0.00  0.00    -0.048 A 
ATOM     22  C   UNL     1       1.400   1.611  -0.003  0.00  0.00    -0.053 A 
ATOM     23  C   UNL     1       1.699   2.775  -0.686  0.00  0.00    +0.006 A 
ATOM     24  C   UNL     1       2.067  -0.333   1.425  0.00  0.00    +0.044 C 
ENDBRANCH   1  22
BRANCH  13  25
ATOM     25  C   UNL     1      -2.814   1.524  -2.436  0.00  0.00    +0.343 C 
ATOM     26  O   UNL     1      -2.275   2.255  -3.232  0.00  0.00    -0.248 OA
ATOM     27  OXT UNL     1      -3.989   0.950  -2.740  0.00  0.00    -0.248 OA
ENDBRANCH  13  25
TORSDOF 2
