REMARK  Name = ZINC01246048
REMARK  4 active torsions:
REMARK  status: ('A' for Active; 'I' for Inactive)
REMARK    1  A    between atoms: C_1  and  C_2
REMARK    2  A    between atoms: C_2  and  C_26
REMARK    3  A    between atoms: C_10  and  C_16
REMARK    4  A    between atoms: C_17  and  C_18
REMARK                            x       y       z     vdW  Elec       q    Type
REMARK                         _______ _______ _______ _____ _____    ______ ____
ROOT
ATOM      1  C   UNL     1      -0.019   1.526   0.010  0.00  0.00    +0.020 C 
ATOM      2  C   UNL     1       0.002  -0.004   0.002  0.00  0.00    +0.034 C 
ATOM      3  C   UNL     1      -1.403  -0.553   0.139  0.00  0.00    -0.014 A 
ATOM      4  C   UNL     1      -2.537  -0.338  -0.620  0.00  0.00    +0.044 A 
ATOM      5  C   UNL     1      -3.729  -0.951  -0.278  0.00  0.00    +0.124 A 
ATOM      6  C   UNL     1      -3.782  -1.783   0.829  0.00  0.00    +0.040 A 
ATOM      7  C   UNL     1      -2.651  -2.006   1.583  0.00  0.00    +0.026 A 
ATOM      8  C   UNL     1      -1.442  -1.399   1.240  0.00  0.00    +0.036 A 
ATOM      9  N   UNL     1      -0.187  -1.518   1.827  0.00  0.00    -0.304 N 
ATOM     10  C   UNL     1       0.739  -0.536   1.235  0.00  0.00    +0.130 C 
ATOM     11  N   UNL     1       1.967  -1.238   0.880  0.00  0.00    -0.290 N 
ATOM     12  C   UNL     1       2.283  -2.432   1.388  0.00  0.00    +0.216 C 
ATOM     13  O   UNL     1       3.393  -2.857   1.146  0.00  0.00    -0.276 OA
ATOM     14  C   UNL     1       1.393  -3.293   2.228  0.00  0.00    +0.115 C 
ATOM     15  C   UNL     1       0.254  -2.476   2.852  0.00  0.00    +0.117 C 
ATOM     16  F   UNL     1      -4.838  -0.739  -1.020  0.00  0.00    -0.205 F 
ATOM     17  C   UNL     1       0.659  -0.522  -1.279  0.00  0.00    +0.020 C 
ATOM     18  H   UNL     1       2.578  -0.821   0.252  0.00  0.00    +0.151 HD
ENDROOT
BRANCH  10  19
ATOM     19  C   UNL     1       1.014   0.582   2.207  0.00  0.00    +0.020 C 
ATOM     20  C   UNL     1       0.519   0.529   3.436  0.00  0.00    +0.007 C 
BRANCH  20  21
ATOM     21  C   UNL     1       0.789   1.625   4.389  0.00  0.00    -0.025 A 
ATOM     22  C   UNL     1       1.560   2.720   3.997  0.00  0.00    +0.011 A 
ATOM     23  C   UNL     1       1.809   3.741   4.890  0.00  0.00    +0.039 A 
ATOM     24  C   UNL     1       1.296   3.680   6.176  0.00  0.00    +0.123 A 
ATOM     25  C   UNL     1       0.530   2.595   6.571  0.00  0.00    +0.039 A 
ATOM     26  C   UNL     1       0.269   1.572   5.683  0.00  0.00    +0.011 A 
ATOM     27  F   UNL     1       1.544   4.682   7.048  0.00  0.00    -0.205 F 
ENDBRANCH  20  21
ENDBRANCH  10  19
TORSDOF 2
