REMARK  Name = ZINC35867865
REMARK  5 active torsions:
REMARK  status: ('A' for Active; 'I' for Inactive)
REMARK    1  A    between atoms: C_1  and  C_2
REMARK    2  A    between atoms: C_2  and  C_3
REMARK    3  A    between atoms: N_19  and  S_22
REMARK    4  A    between atoms: S_22  and  C_25
REMARK    5  A    between atoms: C_29  and  N_31
REMARK                            x       y       z     vdW  Elec       q    Type
REMARK                         _______ _______ _______ _____ _____    ______ ____
ROOT
ATOM      1  C   UNL     1      -1.980  -1.992  -0.525  0.00  0.00    +0.132 A 
ATOM      2  N   UNL     1      -2.557  -2.167   0.650  0.00  0.00    -0.217 NA
ATOM      3  C   UNL     1      -3.248  -1.208   1.246  0.00  0.00    +0.133 A 
ATOM      4  C   UNL     1      -3.375   0.054   0.604  0.00  0.00    +0.051 A 
ATOM      5  C   UNL     1      -4.083   1.250   1.064  0.00  0.00    -0.025 A 
ATOM      6  C   UNL     1      -4.050   2.329   0.257  0.00  0.00    -0.004 A 
ATOM      7  S   UNL     1      -3.088   1.829  -1.146  0.00  0.00    -0.073 S 
ATOM      8  C   UNL     1      -2.732   0.165  -0.645  0.00  0.00    +0.114 A 
ATOM      9  N   UNL     1      -2.058  -0.842  -1.166  0.00  0.00    -0.225 NA
ATOM     10  C   UNL     1      -4.691   3.663   0.497  0.00  0.00    +0.043 C 
ATOM     11  C   UNL     1      -5.712   3.512   1.634  0.00  0.00    +0.005 C 
ATOM     12  C   UNL     1      -5.051   2.754   2.789  0.00  0.00    +0.005 C 
ATOM     13  C   UNL     1      -4.832   1.294   2.394  0.00  0.00    +0.037 C 
ATOM     14  N   UNL     1      -3.838  -1.431   2.478  0.00  0.00    -0.312 N 
ATOM     15  C   UNL     1      -5.246  -1.841   2.569  0.00  0.00    +0.123 C 
ATOM     16  C   UNL     1      -5.327  -3.142   3.376  0.00  0.00    +0.128 C 
ATOM     17  N   UNL     1      -4.556  -2.974   4.616  0.00  0.00    -0.174 NA
ATOM     18  C   UNL     1      -3.148  -2.564   4.525  0.00  0.00    +0.128 C 
ATOM     19  C   UNL     1      -3.066  -1.268   3.717  0.00  0.00    +0.123 C 
ENDROOT
BRANCH  17  20
ATOM     20  S   UNL     1      -5.262  -3.240   6.090  0.00  0.00    +0.061 S 
ATOM     21  O   UNL     1      -4.515  -2.493   7.040  0.00  0.00    -0.153 OA
ATOM     22  O   UNL     1      -6.660  -3.061   5.909  0.00  0.00    -0.153 OA
BRANCH  20  23
ATOM     23  C   UNL     1      -5.019  -4.941   6.484  0.00  0.00    +0.108 A 
ATOM     24  C   UNL     1      -5.953  -5.881   6.090  0.00  0.00    +0.030 A 
ATOM     25  C   UNL     1      -5.763  -7.215   6.399  0.00  0.00    +0.024 A 
ATOM     26  C   UNL     1      -4.638  -7.609   7.102  0.00  0.00    +0.071 A 
ATOM     27  C   UNL     1      -3.705  -6.667   7.496  0.00  0.00    +0.146 A 
ATOM     28  C   UNL     1      -3.893  -5.334   7.183  0.00  0.00    +0.062 A 
ATOM     29 CL   UNL     1      -4.399  -9.284   7.490  0.00  0.00    -0.081 Cl
BRANCH  27  30
ATOM     30  N   UNL     1      -2.501  -7.087   8.249  0.00  0.00    +0.058 N 
ATOM     31  O   UNL     1      -1.686  -6.264   8.593  0.00  0.00    -0.126 OA
ATOM     32  O   UNL     1      -2.334  -8.254   8.519  0.00  0.00    -0.126 OA
ENDBRANCH  27  30
ENDBRANCH  20  23
ENDBRANCH  17  20
BRANCH   1  34
ATOM     33  C   UNL     1       0.250  -3.064  -0.691  0.00  0.00    +0.012 C 
ATOM     34  C   UNL     1      -1.210  -3.130  -1.144  0.00  0.00    +0.073 C 
ENDBRANCH   1  34
TORSDOF 4
