REMARK  Name = ZINC59176602
REMARK  12 active torsions:
REMARK  status: ('A' for Active; 'I' for Inactive)
REMARK    1  A    between atoms: C_1  and  C_2
REMARK    2  A    between atoms: C_6  and  O_9
REMARK    3  A    between atoms: C_7  and  C_8
REMARK    4  A    between atoms: O_9  and  C_10
REMARK    5  A    between atoms: C_10  and  C_11
REMARK    6  A    between atoms: C_14  and  S_19
REMARK    7  A    between atoms: N_15  and  C_16
REMARK    8  A    between atoms: C_16  and  C_17
REMARK    9  A    between atoms: S_19  and  C_20
REMARK   10  A    between atoms: C_20  and  C_21
REMARK   11  A    between atoms: N_23  and  C_24
REMARK   12  A    between atoms: C_27  and  C_30
REMARK                            x       y       z     vdW  Elec       q    Type
REMARK                         _______ _______ _______ _____ _____    ______ ____
ROOT
ATOM      1  C   UNL     1       0.084  -4.808   3.654  0.00  0.00    +0.172 A 
ATOM      2  N   UNL     1       1.141  -5.095   4.360  0.00  0.00    -0.130 NA
ATOM      3  N   UNL     1       0.792  -5.574   5.501  0.00  0.00    -0.122 NA
ATOM      4  C   UNL     1      -0.517  -5.620   5.584  0.00  0.00    +0.192 A 
ATOM      5  N   UNL     1      -1.010  -5.128   4.409  0.00  0.00    -0.299 N 
ENDROOT
BRANCH   1   6
ATOM      6  C   UNL     1       0.070  -4.227   2.263  0.00  0.00    +0.305 C 
BRANCH   6   7
ATOM      7  O   UNL     1       0.062  -2.800   2.344  0.00  0.00    -0.484 OA
BRANCH   7  13
ATOM      8  C   UNL     1       0.019   1.472  -0.016  0.00  0.00    +0.044 C 
ATOM      9  C   UNL     1       0.028  -0.035  -0.020  0.00  0.00    -0.044 A 
ATOM     10  C   UNL     1       0.023  -0.723  -1.220  0.00  0.00    +0.004 A 
ATOM     11  C   UNL     1       0.032  -2.105  -1.227  0.00  0.00    +0.004 A 
ATOM     12  C   UNL     1       0.045  -2.803  -0.035  0.00  0.00    +0.046 A 
ATOM     13  C   UNL     1       0.050  -2.116   1.170  0.00  0.00    +0.124 A 
ATOM     14  C   UNL     1       0.047  -0.728   1.175  0.00  0.00    -0.006 A 
ATOM     15  C   UNL     1       0.059   0.022   2.482  0.00  0.00    +0.048 C 
ENDBRANCH   7  13
ENDBRANCH   6   7
ENDBRANCH   1   6
BRANCH   5  16
ATOM     16  C   UNL     1      -2.418  -4.976   4.035  0.00  0.00    +0.152 C 
BRANCH  16  17
ATOM     17  C   UNL     1      -2.897  -6.235   3.359  0.00  0.00    -0.013 C 
ATOM     18  C   UNL     1      -3.951  -6.864   3.816  0.00  0.00    +0.005 C 
ENDBRANCH  16  17
ENDBRANCH   5  16
BRANCH   4  19
ATOM     19  S   UNL     1      -1.461  -6.201   6.954  0.00  0.00    -0.077 S 
BRANCH  19  20
ATOM     20  C   UNL     1      -0.209  -6.697   8.169  0.00  0.00    +0.173 C 
BRANCH  20  21
ATOM     21  C   UNL     1      -0.891  -7.221   9.407  0.00  0.00    +0.227 C 
ATOM     22  O   UNL     1      -2.102  -7.255   9.464  0.00  0.00    -0.275 OA
ATOM     23  N   UNL     1      -0.154  -7.650  10.451  0.00  0.00    -0.285 N 
ATOM     24  H   UNL     1       0.812  -7.685  10.381  0.00  0.00    +0.155 HD
BRANCH  23  25
ATOM     25  C   UNL     1      -0.782  -8.044  11.631  0.00  0.00    +0.033 A 
ATOM     26  C   UNL     1      -2.012  -8.693  11.580  0.00  0.00    +0.024 A 
ATOM     27  C   UNL     1      -2.633  -9.082  12.739  0.00  0.00    +0.017 A 
ATOM     28  C   UNL     1      -2.029  -8.825  13.975  0.00  0.00    +0.063 A 
ATOM     29  C   UNL     1      -0.792  -8.173  14.022  0.00  0.00    +0.017 A 
ATOM     30  C   UNL     1      -0.175  -7.792  12.858  0.00  0.00    +0.024 A 
BRANCH  28  31
ATOM     31  C   UNL     1      -2.692  -9.241  15.221  0.00  0.00    +0.387 C 
ATOM     32  O   UNL     1      -3.774  -9.811  15.178  0.00  0.00    -0.241 OA
ATOM     33  O   UNL     1      -2.162  -9.016  16.301  0.00  0.00    -0.241 OA
ENDBRANCH  28  31
ENDBRANCH  23  25
ENDBRANCH  20  21
ENDBRANCH  19  20
ENDBRANCH   4  19
TORSDOF 10
