REMARK  Name = ZINC59279926
REMARK  9 active torsions:
REMARK  status: ('A' for Active; 'I' for Inactive)
REMARK    1  A    between atoms: C_1  and  C_2
REMARK    2  A    between atoms: C_2  and  C_3
REMARK    3  A    between atoms: C_2  and  C_4
REMARK    4  A    between atoms: C_2  and  C_5
REMARK    5  A    between atoms: C_5  and  C_7
REMARK    6  A    between atoms: C_5  and  N_12
REMARK    7  A    between atoms: C_13  and  C_15
REMARK    8  A    between atoms: N_18  and  C_20
REMARK    9  A    between atoms: C_24  and  N_26
REMARK                            x       y       z     vdW  Elec       q    Type
REMARK                         _______ _______ _______ _____ _____    ______ ____
ROOT
ATOM      1  N   UNL     1       0.738  -1.962  -1.265  0.00  0.00    -0.302 N 
ATOM      2  C   UNL     1      -0.315  -2.648  -1.752  0.00  0.00    +0.265 C 
ATOM      3  O   UNL     1      -1.282  -2.051  -2.184  0.00  0.00    -0.268 OA
ATOM      4  H   UNL     1       1.509  -2.439  -0.920  0.00  0.00    +0.150 HD
ENDROOT
BRANCH   2   5
ATOM      5  C   UNL     1      -0.295  -4.124  -1.760  0.00  0.00    +0.147 A 
ATOM      6  C   UNL     1      -1.318  -4.976  -2.241  0.00  0.00    +0.054 A 
ATOM      7  C   UNL     1      -0.862  -6.236  -2.046  0.00  0.00    +0.115 A 
ATOM      8  N   UNL     1       0.368  -6.133  -1.479  0.00  0.00    -0.239 N 
ATOM      9  N   UNL     1       0.681  -4.897  -1.325  0.00  0.00    -0.162 NA
BRANCH   8  10
ATOM     10  C   UNL     1       1.179  -7.218  -1.118  0.00  0.00    +0.068 A 
ATOM     11  C   UNL     1       0.742  -8.517  -1.341  0.00  0.00    +0.028 A 
ATOM     12  C   UNL     1       1.544  -9.584  -0.984  0.00  0.00    +0.004 A 
ATOM     13  C   UNL     1       2.780  -9.359  -0.406  0.00  0.00    +0.033 A 
ATOM     14  C   UNL     1       3.217  -8.066  -0.182  0.00  0.00    +0.128 A 
ATOM     15  C   UNL     1       2.422  -6.995  -0.543  0.00  0.00    +0.060 A 
BRANCH  14  16
ATOM     16  N   UNL     1       4.540  -7.830   0.437  0.00  0.00    +0.056 N 
ATOM     17  O   UNL     1       5.238  -8.767   0.748  0.00  0.00    -0.126 OA
ATOM     18  O   UNL     1       4.923  -6.700   0.632  0.00  0.00    -0.126 OA
ENDBRANCH  14  16
ENDBRANCH   8  10
ENDBRANCH   2   5
BRANCH   1  19
ATOM     19  C   UNL     1       0.718  -0.497  -1.257  0.00  0.00    +0.116 C 
BRANCH  19  20
ATOM     20  C   UNL     1       2.132   0.024  -1.268  0.00  0.00    +0.010 A 
ATOM     21  C   UNL     1       2.646   1.083  -1.939  0.00  0.00    +0.013 A 
ATOM     22  C   UNL     1       3.988   1.380  -1.796  0.00  0.00    +0.008 A 
ATOM     23  C   UNL     1       4.751   0.604  -0.988  0.00  0.00    +0.045 A 
ATOM     24  S   UNL     1       3.563  -0.588  -0.393  0.00  0.00    -0.100 S 
ENDBRANCH  19  20
BRANCH  19  26
ATOM     25  C   UNL     1      -0.019   1.526   0.010  0.00  0.00    +0.013 C 
ATOM     26  C   UNL     1       0.002  -0.004   0.002  0.00  0.00    -0.015 C 
ATOM     27  C   UNL     1       0.742  -0.511   1.242  0.00  0.00    +0.013 C 
ATOM     28  C   UNL     1      -1.433  -0.534   0.013  0.00  0.00    +0.013 C 
ENDBRANCH  19  26
ENDBRANCH   1  19
TORSDOF 6
