REMARK  Name = ZINC36064509
REMARK  16 active torsions:
REMARK  status: ('A' for Active; 'I' for Inactive)
REMARK    1  A    between atoms: C_1  and  C_2
REMARK    2  A    between atoms: C_2  and  C_3
REMARK    3  A    between atoms: C_4  and  C_32
REMARK    4  A    between atoms: C_5  and  C_22
REMARK    5  A    between atoms: C_8  and  C_13
REMARK    6  A    between atoms: C_14  and  N_16
REMARK    7  A    between atoms: N_16  and  C_17
REMARK    8  A    between atoms: C_17  and  C_19
REMARK    9  A    between atoms: C_17  and  C_20
REMARK   10  A    between atoms: C_20  and  C_21
REMARK   11  A    between atoms: C_25  and  O_30
REMARK   12  A    between atoms: C_26  and  O_28
REMARK   13  A    between atoms: O_28  and  C_29
REMARK   14  A    between atoms: O_30  and  C_31
REMARK   15  A    between atoms: C_32  and  O_34
REMARK   16  A    between atoms: O_34  and  C_35
REMARK                            x       y       z     vdW  Elec       q    Type
REMARK                         _______ _______ _______ _____ _____    ______ ____
ROOT
ATOM      1  C   UNL     1      -1.240  -1.859   0.154  0.00  0.00    +0.056 C 
ATOM      2  C   UNL     1      -1.888  -1.905  -1.065  0.00  0.00    +0.083 C 
ATOM      3  C   UNL     1      -3.400  -1.957  -1.058  0.00  0.00    +0.150 C 
ATOM      4  N   UNL     1      -4.071  -1.954   0.269  0.00  0.00    -0.267 N 
ATOM      5  C   UNL     1      -5.429  -1.996   0.513  0.00  0.00    +0.048 C 
ATOM      6  C   UNL     1      -5.835  -1.984   1.802  0.00  0.00    +0.072 C 
ATOM      7  S   UNL     1      -4.284  -1.913   2.676  0.00  0.00    -0.060 S 
ATOM      8  C   UNL     1      -3.246  -1.903   1.358  0.00  0.00    +0.166 C 
ATOM      9  N   UNL     1      -1.932  -1.865   1.282  0.00  0.00    -0.229 NA
ENDROOT
BRANCH   3  10
ATOM     10  C   UNL     1      -3.825  -3.205  -1.788  0.00  0.00    -0.018 A 
ATOM     11  C   UNL     1      -3.753  -4.432  -1.156  0.00  0.00    +0.009 A 
ATOM     12  C   UNL     1      -4.141  -5.580  -1.822  0.00  0.00    +0.050 A 
ATOM     13  C   UNL     1      -4.604  -5.502  -3.126  0.00  0.00    +0.162 A 
ATOM     14  C   UNL     1      -4.676  -4.266  -3.762  0.00  0.00    +0.162 A 
ATOM     15  C   UNL     1      -4.290  -3.119  -3.087  0.00  0.00    +0.055 A 
BRANCH  14  16
ATOM     16  O   UNL     1      -5.130  -4.184  -5.042  0.00  0.00    -0.491 OA
ATOM     17  C   UNL     1      -5.080  -2.900  -5.666  0.00  0.00    +0.277 C 
ENDBRANCH  14  16
BRANCH  13  18
ATOM     18  O   UNL     1      -4.986  -6.630  -3.782  0.00  0.00    -0.491 OA
ATOM     19  C   UNL     1      -4.884  -7.862  -3.067  0.00  0.00    +0.277 C 
ENDBRANCH  13  18
ENDBRANCH   3  10
BRANCH   5  20
ATOM     20  C   UNL     1      -6.400  -2.051  -0.589  0.00  0.00    +0.091 C 
ATOM     21  C   UNL     1      -7.707  -2.246  -0.328  0.00  0.00    +0.239 C 
ATOM     22  O   UNL     1      -8.144  -2.275   0.955  0.00  0.00    -0.271 OA
BRANCH  21  23
ATOM     23  N   UNL     1      -8.603  -2.416  -1.369  0.00  0.00    -0.309 N 
ATOM     24  H   UNL     1      -8.282  -2.466  -2.283  0.00  0.00    +0.149 HD
BRANCH  23  25
ATOM     25  C   UNL     1     -10.038  -2.520  -1.090  0.00  0.00    +0.070 C 
ATOM     26  C   UNL     1     -10.374  -3.954  -0.677  0.00  0.00    +0.028 C 
BRANCH  25  27
ATOM     27  C   UNL     1     -10.829  -2.153  -2.347  0.00  0.00    +0.018 C 
ATOM     28  C   UNL     1     -10.578  -0.685  -2.697  0.00  0.00    +0.005 C 
ENDBRANCH  25  27
ENDBRANCH  23  25
ENDBRANCH  21  23
ENDBRANCH   5  20
BRANCH   1  30
ATOM     29  C   UNL     1       0.730  -0.354   0.070  0.00  0.00    +0.010 C 
ATOM     30  C   UNL     1       0.265  -1.806   0.200  0.00  0.00    +0.053 C 
ENDBRANCH   1  30
BRANCH   2  31
ATOM     31  C   UNL     1      -1.170  -1.904  -2.267  0.00  0.00    +0.339 C 
ATOM     32  O   UNL     1       0.048  -1.945  -2.248  0.00  0.00    -0.245 OA
BRANCH  31  33
ATOM     33  O   UNL     1      -1.827  -1.858  -3.446  0.00  0.00    -0.465 OA
ATOM     34  C   UNL     1      -1.031  -1.860  -4.633  0.00  0.00    +0.280 C 
ENDBRANCH  31  33
ENDBRANCH   2  31
TORSDOF 10
