REMARK  Name = ZINC12411816
REMARK  7 active torsions:
REMARK  status: ('A' for Active; 'I' for Inactive)
REMARK    1  A    between atoms: C_1  and  C_2
REMARK    2  A    between atoms: C_2  and  O_3
REMARK    3  A    between atoms: O_3  and  C_4
REMARK    4  A    between atoms: C_7  and  N_10
REMARK    5  A    between atoms: C_13  and  C_37
REMARK    6  A    between atoms: N_23  and  C_26
REMARK    7  A    between atoms: C_26  and  N_27
REMARK                            x       y       z     vdW  Elec       q    Type
REMARK                         _______ _______ _______ _____ _____    ______ ____
ROOT
ATOM      1  N   UNL     1      -1.072   4.430   0.966  0.00  0.00    -0.243 N 
ATOM      2  C   UNL     1      -1.440   5.705   0.850  0.00  0.00    +0.234 C 
ATOM      3  O   UNL     1      -1.917   6.310   1.787  0.00  0.00    -0.274 OA
ATOM      4  C   UNL     1      -1.240   6.373  -0.502  0.00  0.00    +0.132 C 
ATOM      5  S   UNL     1      -0.946   4.893  -1.568  0.00  0.00    -0.108 S 
ATOM      6  C   UNL     1      -0.517   3.749  -0.199  0.00  0.00    +0.193 C 
ATOM      7  C   UNL     1       0.964   3.541  -0.118  0.00  0.00    +0.017 A 
ATOM      8  C   UNL     1       2.038   4.380   0.075  0.00  0.00    +0.009 A 
ATOM      9  C   UNL     1       3.323   3.868   0.103  0.00  0.00    +0.000 A 
ATOM     10  C   UNL     1       3.526   2.510  -0.063  0.00  0.00    +0.002 A 
ATOM     11  C   UNL     1       2.454   1.664  -0.258  0.00  0.00    +0.024 A 
ATOM     12  C   UNL     1       1.157   2.171  -0.289  0.00  0.00    +0.044 A 
ATOM     13  N   UNL     1      -0.070   1.528  -0.470  0.00  0.00    -0.255 N 
ATOM     14  C   UNL     1      -1.106   2.392  -0.437  0.00  0.00    +0.260 C 
ATOM     15  O   UNL     1      -2.281   2.124  -0.571  0.00  0.00    -0.271 OA
ATOM     16  C   UNL     1      -2.498   7.129  -0.938  0.00  0.00    +0.029 C 
ENDROOT
BRANCH   1  20
ATOM     17  C   UNL     1      -1.501   2.417   4.593  0.00  0.00    +0.121 A 
ATOM     18  C   UNL     1      -2.624   2.784   3.866  0.00  0.00    +0.047 A 
ATOM     19  C   UNL     1      -2.483   3.450   2.665  0.00  0.00    +0.027 A 
ATOM     20  C   UNL     1      -1.216   3.754   2.185  0.00  0.00    +0.039 A 
ATOM     21  C   UNL     1      -0.092   3.382   2.910  0.00  0.00    +0.027 A 
ATOM     22  C   UNL     1      -0.235   2.720   4.113  0.00  0.00    +0.047 A 
BRANCH  17  23
ATOM     23  O   UNL     1      -1.640   1.760   5.775  0.00  0.00    -0.492 OA
BRANCH  23  25
ATOM     24  C   UNL     1      -0.805   0.489   7.653  0.00  0.00    +0.048 C 
ATOM     25  C   UNL     1      -0.444   1.302   6.408  0.00  0.00    +0.225 C 
ENDBRANCH  23  25
ENDBRANCH  17  23
ENDBRANCH   1  20
BRANCH  13  26
ATOM     26  C   UNL     1      -0.215   0.086  -0.678  0.00  0.00    +0.201 C 
BRANCH  26  27
ATOM     27  N   UNL     1      -0.385  -0.189  -2.111  0.00  0.00    -0.282 NA
ATOM     28  C   UNL     1       0.024  -1.564  -2.437  0.00  0.00    +0.091 C 
ATOM     29  C   UNL     1      -0.507  -1.912  -3.828  0.00  0.00    +0.051 C 
ATOM     30  C   UNL     1      -0.135  -0.827  -4.806  0.00  0.00    -0.042 A 
ATOM     31  C   UNL     1      -0.206  -1.107  -6.163  0.00  0.00    +0.004 A 
ATOM     32  C   UNL     1       0.122  -0.141  -7.093  0.00  0.00    +0.000 A 
ATOM     33  C   UNL     1       0.522   1.113  -6.669  0.00  0.00    +0.000 A 
ATOM     34  C   UNL     1       0.595   1.392  -5.320  0.00  0.00    +0.005 A 
ATOM     35  C   UNL     1       0.267   0.422  -4.384  0.00  0.00    -0.030 A 
ATOM     36  C   UNL     1       0.370   0.771  -2.922  0.00  0.00    +0.121 C 
ENDBRANCH  26  27
ENDBRANCH  13  26
TORSDOF 5
