REMARK  Name = ZINC43328446
REMARK  5 active torsions:
REMARK  status: ('A' for Active; 'I' for Inactive)
REMARK    1  A    between atoms: C_1  and  C_2
REMARK    2  A    between atoms: C_5  and  N_9
REMARK    3  A    between atoms: N_12  and  C_13
REMARK    4  A    between atoms: C_13  and  C_14
REMARK    5  A    between atoms: C_14  and  N_15
REMARK                            x       y       z     vdW  Elec       q    Type
REMARK                         _______ _______ _______ _____ _____    ______ ____
ROOT
ATOM      1  N   UNL     1       0.059  -4.171  -0.023  0.00  0.00    -0.268 N 
ATOM      2  C   UNL     1      -0.039  -4.839  -1.189  0.00  0.00    +0.304 C 
ATOM      3  O   UNL     1      -0.053  -4.229  -2.240  0.00  0.00    -0.253 OA
ATOM      4  N   UNL     1      -0.122  -6.184  -1.190  0.00  0.00    -0.298 N 
ATOM      5  H   UNL     1       0.153  -4.660   0.810  0.00  0.00    +0.156 HD
ATOM      6  H   UNL     1      -0.111  -6.671  -0.351  0.00  0.00    +0.150 HD
ENDROOT
BRANCH   1  11
ATOM      7  C   UNL     1      -0.072   1.502   0.016  0.00  0.00    +0.044 C 
ATOM      8  C   UNL     1      -0.037  -0.005   0.006  0.00  0.00    -0.049 A 
ATOM      9  C   UNL     1      -0.627  -0.702  -1.032  0.00  0.00    +0.005 A 
ATOM     10  C   UNL     1      -0.597  -2.083  -1.045  0.00  0.00    +0.025 A 
ATOM     11  C   UNL     1       0.027  -2.771  -0.013  0.00  0.00    +0.049 A 
ATOM     12  C   UNL     1       0.619  -2.069   1.029  0.00  0.00    +0.039 A 
ATOM     13  C   UNL     1       0.590  -0.687   1.032  0.00  0.00    +0.020 A 
ATOM     14 BR   UNL     1       1.471  -3.001   2.436  0.00  0.00    -0.048 Br
ENDBRANCH   1  11
BRANCH   4  15
ATOM     15  C   UNL     1      -0.229  -6.911  -2.457  0.00  0.00    +0.124 C 
BRANCH  15  16
ATOM     16  C   UNL     1      -0.309  -8.413  -2.179  0.00  0.00    +0.121 C 
BRANCH  16  17
ATOM     17  N   UNL     1      -0.416  -9.140  -3.447  0.00  0.00    -0.329 N 
ATOM     18  C   UNL     1      -0.502 -10.527  -3.448  0.00  0.00    +0.096 A 
ATOM     19  C   UNL     1      -0.491 -11.219  -2.241  0.00  0.00    +0.041 A 
ATOM     20  C   UNL     1      -0.577 -12.600  -2.256  0.00  0.00    +0.005 A 
ATOM     21  C   UNL     1      -0.671 -13.244  -3.483  0.00  0.00    +0.018 A 
ATOM     22  C   UNL     1      -0.676 -12.494  -4.642  0.00  0.00    +0.084 A 
ATOM     23  N   UNL     1      -0.598 -11.178  -4.597  0.00  0.00    -0.350 N 
ATOM     24  H   UNL     1      -0.427  -8.653  -4.286  0.00  0.00    +0.147 HD
ATOM     25  H   UNL     1      -0.608 -10.675  -5.426  0.00  0.00    +0.166 HD
ENDBRANCH  16  17
ENDBRANCH  15  16
ENDBRANCH   4  15
TORSDOF 4
