REMARK  Name = ZINC56636470
REMARK  7 active torsions:
REMARK  status: ('A' for Active; 'I' for Inactive)
REMARK    1  A    between atoms: C_3  and  C_8
REMARK    2  A    between atoms: C_5  and  O_7
REMARK    3  A    between atoms: C_8  and  N_9
REMARK    4  A    between atoms: N_12  and  C_13
REMARK    5  A    between atoms: C_15  and  N_23
REMARK    6  A    between atoms: C_18  and  O_19
REMARK    7  A    between atoms: O_19  and  C_20
REMARK                            x       y       z     vdW  Elec       q    Type
REMARK                         _______ _______ _______ _____ _____    ______ ____
ROOT
ATOM      1  N   UNL     1       4.094   2.450   1.357  0.00  0.00    -0.295 N 
ATOM      2  C   UNL     1       5.238   3.121   1.596  0.00  0.00    +0.304 C 
ATOM      3  O   UNL     1       5.909   3.530   0.668  0.00  0.00    -0.252 OA
ATOM      4  N   UNL     1       5.639   3.339   2.865  0.00  0.00    -0.266 N 
ATOM      5  H   UNL     1       3.559   2.124   2.097  0.00  0.00    +0.151 HD
ATOM      6  H   UNL     1       5.072   3.071   3.605  0.00  0.00    +0.156 HD
ENDROOT
BRANCH   4   7
ATOM      7  C   UNL     1       6.873   3.954   3.114  0.00  0.00    +0.079 A 
ATOM      8  C   UNL     1       7.347   4.936   2.256  0.00  0.00    +0.059 A 
ATOM      9  C   UNL     1       8.564   5.542   2.504  0.00  0.00    +0.128 A 
ATOM     10  C   UNL     1       9.313   5.170   3.606  0.00  0.00    +0.036 A 
ATOM     11  C   UNL     1       8.848   4.192   4.465  0.00  0.00    +0.050 A 
ATOM     12  C   UNL     1       7.626   3.584   4.226  0.00  0.00    +0.148 A 
BRANCH   9  13
ATOM     13  N   UNL     1       9.068   6.590   1.588  0.00  0.00    +0.056 N 
ATOM     14  O   UNL     1       8.415   6.915   0.625  0.00  0.00    -0.126 OA
ATOM     15  O   UNL     1      10.133   7.120   1.804  0.00  0.00    -0.126 OA
ENDBRANCH   9  13
BRANCH  12  16
ATOM     16  O   UNL     1       7.164   2.626   5.073  0.00  0.00    -0.432 OA
BRANCH  16  17
ATOM     17  C   UNL     1       7.989   2.298   6.193  0.00  0.00    +0.541 C 
ATOM     18  F   UNL     1       9.228   1.834   5.740  0.00  0.00    -0.166 F 
ATOM     19  F   UNL     1       8.178   3.438   6.982  0.00  0.00    -0.166 F 
ENDBRANCH  16  17
ENDBRANCH  12  16
ENDBRANCH   4   7
BRANCH   1  20
ATOM     20  C   UNL     1       3.659   2.213  -0.022  0.00  0.00    +0.141 C 
BRANCH  20  23
ATOM     21  C   UNL     1      -0.035   1.429   0.011  0.00  0.00    +0.004 A 
ATOM     22  C   UNL     1       1.158   2.128   0.004  0.00  0.00    +0.005 A 
ATOM     23  C   UNL     1       2.361   1.448  -0.014  0.00  0.00    -0.027 A 
ATOM     24  C   UNL     1       2.374   0.066  -0.026  0.00  0.00    +0.050 A 
ATOM     25  C   UNL     1       1.179  -0.638  -0.019  0.00  0.00    +0.117 A 
ATOM     26  C   UNL     1      -0.027   0.048  -0.000  0.00  0.00    +0.045 A 
BRANCH  25  27
ATOM     27  O   UNL     1       1.190  -1.997  -0.030  0.00  0.00    -0.507 OA
ATOM     28  H   UNL     1       1.202  -2.397   0.849  0.00  0.00    +0.292 HD
ENDBRANCH  25  27
ENDBRANCH  20  23
ENDBRANCH   1  20
TORSDOF 7
