REMARK  Name = ZINC35056922
REMARK  10 active torsions:
REMARK  status: ('A' for Active; 'I' for Inactive)
REMARK    1  A    between atoms: C_1  and  C_2
REMARK    2  A    between atoms: C_2  and  C_4
REMARK    3  A    between atoms: C_2  and  O_7
REMARK    4  A    between atoms: O_7  and  C_8
REMARK    5  A    between atoms: C_10  and  N_34
REMARK    6  A    between atoms: C_12  and  O_25
REMARK    7  A    between atoms: C_20  and  C_23
REMARK    8  A    between atoms: C_20  and  C_24
REMARK    9  A    between atoms: O_25  and  C_26
REMARK   10  A    between atoms: C_35  and  C_37
REMARK                            x       y       z     vdW  Elec       q    Type
REMARK                         _______ _______ _______ _____ _____    ______ ____
ROOT
ATOM      1  C   UNL     1      -1.723  -0.794   1.548  0.00  0.00    +0.177 C 
ATOM      2  C   UNL     1      -2.561   0.417   1.974  0.00  0.00    +0.173 C 
ATOM      3  C   UNL     1      -3.142   0.178   3.369  0.00  0.00    +0.331 C 
ATOM      4  O   UNL     1      -3.902  -1.035   3.381  0.00  0.00    -0.332 OA
ATOM      5  C   UNL     1      -3.131  -2.188   3.053  0.00  0.00    +0.179 C 
ATOM      6  C   UNL     1      -2.600  -2.045   1.620  0.00  0.00    +0.183 C 
ATOM      7  O   UNL     1      -1.855  -3.216   1.288  0.00  0.00    -0.341 OA
ATOM      8  C   UNL     1      -2.632  -4.417   1.373  0.00  0.00    +0.165 C 
ATOM      9  O   UNL     1      -3.163  -4.566   2.690  0.00  0.00    -0.347 OA
ATOM     10  C   UNL     1      -3.978  -3.459   3.126  0.00  0.00    +0.197 C 
ATOM     11  C   UNL     1      -3.782  -4.349   0.366  0.00  0.00    +0.074 C 
ATOM     12  C   UNL     1      -1.744  -5.619   1.045  0.00  0.00    +0.074 C 
ENDROOT
BRANCH   2  13
ATOM     13  N   UNL     1      -1.714   1.612   1.997  0.00  0.00    -0.304 N 
ATOM     14  C   UNL     1      -2.261   2.829   1.806  0.00  0.00    +0.210 C 
ATOM     15  O   UNL     1      -3.454   2.935   1.614  0.00  0.00    -0.276 OA
ATOM     16  C   UNL     1      -1.389   4.059   1.830  0.00  0.00    +0.109 C 
ATOM     17  H   UNL     1      -0.760   1.528   2.150  0.00  0.00    +0.149 HD
ENDBRANCH   2  13
BRANCH   1  18
ATOM     18  O   UNL     1      -1.258  -0.611   0.210  0.00  0.00    -0.358 OA
BRANCH  18  20
ATOM     19  C   UNL     1       1.112  -0.141   0.287  0.00  0.00    +0.050 C 
ATOM     20  C   UNL     1       0.032  -1.174  -0.040  0.00  0.00    +0.228 C 
BRANCH  20  21
ATOM     21  C   UNL     1       0.136  -1.567  -1.491  0.00  0.00    +0.384 C 
ATOM     22  O   UNL     1       1.126  -2.153  -1.895  0.00  0.00    -0.243 OA
ATOM     23  O   UNL     1      -0.771  -1.299  -2.262  0.00  0.00    -0.243 OA
ENDBRANCH  20  21
ENDBRANCH  18  20
ENDBRANCH   1  18
BRANCH   3  24
ATOM     24  O   UNL     1      -2.075   0.077   4.315  0.00  0.00    -0.460 OA
BRANCH  24  25
ATOM     25  C   UNL     1      -2.421  -0.033   5.625  0.00  0.00    +0.142 A 
ATOM     26  C   UNL     1      -3.759  -0.048   5.991  0.00  0.00    +0.049 A 
ATOM     27  C   UNL     1      -4.108  -0.159   7.323  0.00  0.00    +0.023 A 
ATOM     28  C   UNL     1      -3.125  -0.255   8.292  0.00  0.00    +0.043 A 
ATOM     29  C   UNL     1      -1.790  -0.240   7.930  0.00  0.00    +0.043 A 
ATOM     30  C   UNL     1      -1.436  -0.135   6.597  0.00  0.00    +0.084 A 
ATOM     31 CL   UNL     1       0.239  -0.123   6.142  0.00  0.00    -0.080 Cl
ATOM     32 CL   UNL     1      -3.568  -0.394   9.965  0.00  0.00    -0.083 Cl
ENDBRANCH  24  25
ENDBRANCH   3  24
TORSDOF 6
