REMARK  Name = ZINC58513641
REMARK  6 active torsions:
REMARK  status: ('A' for Active; 'I' for Inactive)
REMARK    1  A    between atoms: C_1  and  C_2
REMARK    2  A    between atoms: C_2  and  C_3
REMARK    3  A    between atoms: C_2  and  N_15
REMARK    4  A    between atoms: C_3  and  N_5
REMARK    5  A    between atoms: C_16  and  C_18
REMARK    6  A    between atoms: C_19  and  C_20
REMARK                            x       y       z     vdW  Elec       q    Type
REMARK                         _______ _______ _______ _____ _____    ______ ____
ROOT
ATOM      1  C   UNL     1      -0.019   1.526   0.010  0.00  0.00    +0.038 C 
ATOM      2  C   UNL     1       0.002  -0.004   0.002  0.00  0.00    +0.158 C 
ENDROOT
BRANCH   2   3
ATOM      3  N   UNL     1       0.688  -0.476  -1.203  0.00  0.00    -0.301 N 
ATOM      4  C   UNL     1       0.006  -0.608  -2.358  0.00  0.00    +0.237 C 
ATOM      5  O   UNL     1      -1.179  -0.335  -2.400  0.00  0.00    -0.271 OA
ATOM      6  H   UNL     1       1.632  -0.695  -1.170  0.00  0.00    +0.150 HD
BRANCH   4   7
ATOM      7  C   UNL     1       0.692  -1.080  -3.563  0.00  0.00    +0.068 C 
ATOM      8  C   UNL     1       0.010  -1.212  -4.719  0.00  0.00    +0.013 C 
BRANCH   8   9
ATOM      9  C   UNL     1       0.699  -1.687  -5.930  0.00  0.00    -0.025 A 
ATOM     10  C   UNL     1       2.059  -2.008  -5.884  0.00  0.00    +0.008 A 
ATOM     11  C   UNL     1       2.697  -2.452  -7.023  0.00  0.00    +0.001 A 
ATOM     12  C   UNL     1       1.995  -2.580  -8.209  0.00  0.00    +0.000 A 
ATOM     13  C   UNL     1       0.649  -2.264  -8.262  0.00  0.00    +0.001 A 
ATOM     14  C   UNL     1      -0.005  -1.825  -7.130  0.00  0.00    +0.008 A 
ENDBRANCH   8   9
ENDBRANCH   4   7
ENDBRANCH   2   3
BRANCH   2  15
ATOM     15  C   UNL     1       0.731  -0.503   1.223  0.00  0.00    +0.259 C 
ATOM     16  O   UNL     1       1.729  -1.189   1.098  0.00  0.00    -0.272 OA
BRANCH  15  17
ATOM     17  N   UNL     1       0.285  -0.196   2.433  0.00  0.00    -0.144 NA
ATOM     18  C   UNL     1       0.932  -0.638   3.516  0.00  0.00    +0.222 A 
ATOM     19  N   UNL     1       2.045  -1.396   3.522  0.00  0.00    -0.246 N 
ATOM     20  N   UNL     1       2.390  -1.634   4.859  0.00  0.00    -0.153 NA
ATOM     21  C   UNL     1       1.505  -1.034   5.624  0.00  0.00    +0.160 A 
ATOM     22  N   UNL     1       0.586  -0.400   4.813  0.00  0.00    -0.271 N 
ATOM     23  C   UNL     1      -0.447   0.311   5.370  0.00  0.00    +0.096 A 
ATOM     24  C   UNL     1      -0.577   0.401   6.706  0.00  0.00    +0.018 A 
ATOM     25  C   UNL     1       0.348  -0.233   7.559  0.00  0.00    +0.005 A 
ATOM     26  C   UNL     1       1.372  -0.948   7.032  0.00  0.00    +0.048 A 
ATOM     27  H   UNL     1       2.522  -1.719   2.742  0.00  0.00    +0.192 HD
ENDBRANCH  15  17
ENDBRANCH   2  15
TORSDOF 5
