REMARK  Name = ZINC03650558
REMARK  9 active torsions:
REMARK  status: ('A' for Active; 'I' for Inactive)
REMARK    1  A    between atoms: C_1  and  C_2
REMARK    2  A    between atoms: C_3  and  S_25
REMARK    3  A    between atoms: N_9  and  C_12
REMARK    4  A    between atoms: C_12  and  C_13
REMARK    5  A    between atoms: N_15  and  C_16
REMARK    6  A    between atoms: C_19  and  O_23
REMARK    7  A    between atoms: O_23  and  C_24
REMARK    8  A    between atoms: S_25  and  N_28
REMARK    9  A    between atoms: C_31  and  C_34
REMARK                            x       y       z     vdW  Elec       q    Type
REMARK                         _______ _______ _______ _____ _____    ______ ____
ROOT
ATOM      1  C   UNL     1       3.108  -3.888   0.118  0.00  0.00    +0.053 C 
ATOM      2  C   UNL     1       2.706  -2.439   0.011  0.00  0.00    +0.016 A 
ATOM      3  C   UNL     1       1.468  -1.918   0.008  0.00  0.00    +0.130 A 
ATOM      4  C   UNL     1       1.307  -0.480  -0.106  0.00  0.00    +0.099 A 
ATOM      5  C   UNL     1       2.506   0.248  -0.204  0.00  0.00    +0.117 A 
ATOM      6  S   UNL     1       3.758  -1.008  -0.141  0.00  0.00    -0.072 S 
ATOM      7  N   UNL     1       2.518   1.573  -0.315  0.00  0.00    -0.230 NA
ATOM      8  C   UNL     1       1.405   2.256  -0.336  0.00  0.00    +0.203 A 
ATOM      9  N   UNL     1       0.199   1.638  -0.246  0.00  0.00    -0.290 N 
ATOM     10  C   UNL     1       0.105   0.300  -0.132  0.00  0.00    +0.264 A 
ATOM     11  O   UNL     1      -0.985  -0.239  -0.053  0.00  0.00    -0.267 OA
ENDROOT
BRANCH   3  12
ATOM     12  S   UNL     1       0.058  -2.966   0.140  0.00  0.00    +0.062 S 
ATOM     13  O   UNL     1       0.531  -4.227   0.593  0.00  0.00    -0.153 OA
ATOM     14  O   UNL     1      -0.932  -2.227   0.841  0.00  0.00    -0.153 OA
BRANCH  12  15
ATOM     15  N   UNL     1      -0.523  -3.201  -1.393  0.00  0.00    -0.177 NA
ATOM     16  C   UNL     1      -1.533  -2.295  -1.957  0.00  0.00    +0.110 C 
ATOM     17  C   UNL     1      -2.719  -3.120  -2.452  0.00  0.00    +0.020 C 
ATOM     18  C   UNL     1      -2.223  -4.193  -3.424  0.00  0.00    -0.012 C 
ATOM     19  C   UNL     1      -1.250  -5.128  -2.701  0.00  0.00    +0.020 C 
ATOM     20  C   UNL     1      -0.043  -4.322  -2.212  0.00  0.00    +0.110 C 
ATOM     21  C   UNL     1      -3.413  -5.000  -3.945  0.00  0.00    +0.007 C 
ENDBRANCH  12  15
ENDBRANCH   3  12
BRANCH   9  22
ATOM     22  C   UNL     1      -1.024   2.443  -0.281  0.00  0.00    +0.222 C 
BRANCH  22  23
ATOM     23  C   UNL     1      -1.406   2.837   1.123  0.00  0.00    +0.237 C 
ATOM     24  O   UNL     1      -0.723   2.481   2.060  0.00  0.00    -0.274 OA
ATOM     25  N   UNL     1      -2.506   3.586   1.338  0.00  0.00    -0.284 N 
ATOM     26  H   UNL     1      -3.093   3.807   0.598  0.00  0.00    +0.155 HD
BRANCH  25  27
ATOM     27  C   UNL     1      -2.800   4.045   2.628  0.00  0.00    +0.035 A 
ATOM     28  C   UNL     1      -4.121   4.161   3.039  0.00  0.00    +0.027 A 
ATOM     29  C   UNL     1      -4.411   4.608   4.313  0.00  0.00    +0.049 A 
ATOM     30  C   UNL     1      -3.384   4.952   5.179  0.00  0.00    +0.138 A 
ATOM     31  C   UNL     1      -2.063   4.841   4.768  0.00  0.00    +0.084 A 
ATOM     32  C   UNL     1      -1.771   4.388   3.495  0.00  0.00    +0.047 A 
ATOM     33 CL   UNL     1      -0.777   5.270   5.852  0.00  0.00    -0.080 Cl
BRANCH  30  34
ATOM     34  O   UNL     1      -3.670   5.397   6.431  0.00  0.00    -0.494 OA
ATOM     35  C   UNL     1      -5.051   5.487   6.788  0.00  0.00    +0.277 C 
ENDBRANCH  30  34
ENDBRANCH  25  27
ENDBRANCH  22  23
ENDBRANCH   9  22
TORSDOF 6
