REMARK  Name = ZINC16039392
REMARK  7 active torsions:
REMARK  status: ('A' for Active; 'I' for Inactive)
REMARK    1  A    between atoms: C_1  and  C_2
REMARK    2  A    between atoms: C_5  and  N_8
REMARK    3  A    between atoms: C_24  and  C_30
REMARK    4  A    between atoms: C_30  and  C_32
REMARK    5  A    between atoms: C_35  and  O_38
REMARK    6  A    between atoms: O_38  and  C_39
REMARK    7  A    between atoms: C_39  and  C_41
REMARK                            x       y       z     vdW  Elec       q    Type
REMARK                         _______ _______ _______ _____ _____    ______ ____
ROOT
ATOM      1  N   UNL     1       3.247   5.535   2.377  0.00  0.00    -0.210 N 
ATOM      2  C   UNL     1       3.263   4.354   1.675  0.00  0.00    +0.232 C 
ATOM      3  O   UNL     1       4.197   3.599   1.514  0.00  0.00    -0.274 OA
ATOM      4  C   UNL     1       1.912   4.214   1.171  0.00  0.00    +0.113 C 
ATOM      5  C   UNL     1       1.125   3.523   0.165  0.00  0.00    +0.100 C 
ATOM      6  C   UNL     1       1.163   2.039   0.160  0.00  0.00    -0.021 A 
ATOM      7  C   UNL     1       2.336   1.323   0.229  0.00  0.00    +0.006 A 
ATOM      8  C   UNL     1       2.308  -0.061   0.216  0.00  0.00    +0.000 A 
ATOM      9  C   UNL     1       1.101  -0.735   0.135  0.00  0.00    +0.001 A 
ATOM     10  C   UNL     1      -0.084  -0.032   0.065  0.00  0.00    +0.008 A 
ATOM     11  C   UNL     1      -0.066   1.362   0.077  0.00  0.00    -0.019 A 
ATOM     12  C   UNL     1      -1.313   2.139  -0.006  0.00  0.00    +0.022 C 
ATOM     13  C   UNL     1      -1.335   3.469   0.090  0.00  0.00    +0.054 C 
ATOM     14  N   UNL     1      -0.196   4.211   0.272  0.00  0.00    -0.384 NA
ATOM     15  C   UNL     1       0.084   5.621   0.594  0.00  0.00    +0.141 C 
ATOM     16  C   UNL     1       1.590   5.733   0.829  0.00  0.00    +0.116 C 
ATOM     17  C   UNL     1       2.115   6.272   2.138  0.00  0.00    +0.232 C 
ATOM     18  O   UNL     1       1.643   7.155   2.822  0.00  0.00    -0.274 OA
ATOM     19  H   UNL     1      -1.292   4.255   0.194  0.00  0.00    +0.127 HD
ENDROOT
BRANCH   1  24
ATOM     20  C   UNL     1       7.400   7.180   5.878  0.00  0.00    +0.044 C 
ATOM     21  C   UNL     1       6.298   6.743   4.948  0.00  0.00    -0.050 A 
ATOM     22  C   UNL     1       5.189   7.550   4.766  0.00  0.00    +0.005 A 
ATOM     23  C   UNL     1       4.177   7.152   3.914  0.00  0.00    +0.024 A 
ATOM     24  C   UNL     1       4.273   5.942   3.242  0.00  0.00    +0.044 A 
ATOM     25  C   UNL     1       5.385   5.132   3.431  0.00  0.00    +0.024 A 
ATOM     26  C   UNL     1       6.396   5.537   4.279  0.00  0.00    +0.005 A 
ENDBRANCH   1  24
BRANCH  15  27
ATOM     27  C   UNL     1      -0.664   5.997   1.848  0.00  0.00    +0.183 C 
ATOM     28  O   UNL     1      -1.098   5.131   2.577  0.00  0.00    -0.290 OA
BRANCH  27  29
ATOM     29  C   UNL     1      -0.866   7.412   2.186  0.00  0.00    +0.019 A 
ATOM     30  C   UNL     1      -0.361   8.414   1.348  0.00  0.00    +0.015 A 
ATOM     31  C   UNL     1      -0.558   9.738   1.667  0.00  0.00    +0.047 A 
ATOM     32  C   UNL     1      -1.248  10.082   2.824  0.00  0.00    +0.132 A 
ATOM     33  C   UNL     1      -1.747   9.091   3.662  0.00  0.00    +0.047 A 
ATOM     34  C   UNL     1      -1.560   7.764   3.350  0.00  0.00    +0.015 A 
BRANCH  32  35
ATOM     35  O   UNL     1      -1.435  11.389   3.136  0.00  0.00    -0.426 OA
BRANCH  35  36
ATOM     36  C   UNL     1      -0.772  11.863   4.204  0.00  0.00    +0.309 C 
ATOM     37  O   UNL     1       0.031  11.163   4.775  0.00  0.00    -0.251 OA
ATOM     38  C   UNL     1      -1.028  13.266   4.689  0.00  0.00    +0.136 C 
ENDBRANCH  35  36
ENDBRANCH  32  35
ENDBRANCH  27  29
ENDBRANCH  15  27
TORSDOF 5
