REMARK  Name = ZINC01029400
REMARK  6 active torsions:
REMARK  status: ('A' for Active; 'I' for Inactive)
REMARK    1  A    between atoms: C_1  and  N_2
REMARK    2  A    between atoms: N_2  and  C_3
REMARK    3  A    between atoms: N_2  and  C_4
REMARK    4  A    between atoms: C_7  and  C_9
REMARK    5  A    between atoms: N_10  and  N_11
REMARK    6  A    between atoms: C_12  and  C_14
REMARK                            x       y       z     vdW  Elec       q    Type
REMARK                         _______ _______ _______ _____ _____    ______ ____
ROOT
ATOM      1  N   UNL     1      -2.851  -6.073   0.013  0.00  0.00    -0.204 N 
ATOM      2  C   UNL     1      -2.012  -7.127   0.006  0.00  0.00    +0.276 C 
ATOM      3  O   UNL     1      -0.812  -6.948  -0.002  0.00  0.00    -0.270 OA
ATOM      4  H   UNL     1      -3.811  -6.216   0.019  0.00  0.00    +0.177 HD
ENDROOT
BRANCH   2   5
ATOM      5  C   UNL     1      -2.564  -8.530   0.007  0.00  0.00    +0.297 C 
ATOM      6  C   UNL     1      -3.318  -8.790  -1.303  0.00  0.00    +0.283 C 
ATOM      7  O   UNL     1      -3.816 -10.132  -1.274  0.00  0.00    -0.484 OA
ATOM      8  C   UNL     1      -2.947 -11.099  -0.872  0.00  0.00    +0.162 A 
ATOM      9  C   UNL     1      -3.225 -12.427  -1.158  0.00  0.00    +0.049 A 
ATOM     10  C   UNL     1      -2.353 -13.420  -0.753  0.00  0.00    +0.004 A 
ATOM     11  C   UNL     1      -1.201 -13.092  -0.062  0.00  0.00    +0.004 A 
ATOM     12  C   UNL     1      -0.917 -11.770   0.224  0.00  0.00    +0.049 A 
ATOM     13  C   UNL     1      -1.787 -10.769  -0.180  0.00  0.00    +0.163 A 
ATOM     14  O   UNL     1      -1.490  -9.471   0.103  0.00  0.00    -0.472 OA
ENDBRANCH   2   5
BRANCH   1  16
ATOM     15  C   UNL     1      -3.149  -3.750   0.019  0.00  0.00    +0.176 C 
ATOM     16  N   UNL     1      -2.338  -4.769   0.011  0.00  0.00    -0.185 NA
BRANCH  15  20
ATOM     17  C   UNL     1      -1.189  -0.714   0.010  0.00  0.00    +0.189 A 
ATOM     18  C   UNL     1      -2.436  -0.171   0.019  0.00  0.00    +0.066 A 
ATOM     19  C   UNL     1      -3.349  -1.238   0.024  0.00  0.00    +0.053 A 
ATOM     20  C   UNL     1      -2.613  -2.389   0.017  0.00  0.00    +0.150 A 
ATOM     21  O   UNL     1      -1.305  -2.052   0.003  0.00  0.00    -0.440 OA
BRANCH  17  23
ATOM     22  C   UNL     1      -0.018   1.461   0.010  0.00  0.00    +0.132 C 
ATOM     23  N   UNL     1       0.002  -0.004   0.002  0.00  0.00    -0.308 N 
ATOM     24  C   UNL     1       1.281  -0.719  -0.014  0.00  0.00    +0.132 C 
ENDBRANCH  17  23
ENDBRANCH  15  20
ENDBRANCH   1  16
TORSDOF 4
