REMARK  Name = ZINC03179831
REMARK  6 active torsions:
REMARK  status: ('A' for Active; 'I' for Inactive)
REMARK    1  A    between atoms: C_1  and  S_2
REMARK    2  A    between atoms: S_2  and  C_3
REMARK    3  A    between atoms: C_4  and  C_17
REMARK    4  A    between atoms: C_5  and  N_9
REMARK    5  A    between atoms: C_10  and  C_12
REMARK    6  A    between atoms: C_20  and  N_23
REMARK                            x       y       z     vdW  Elec       q    Type
REMARK                         _______ _______ _______ _____ _____    ______ ____
ROOT
ATOM      1  C   UNL     1       1.878  -4.198  -0.037  0.00  0.00    +0.128 A 
ATOM      2  C   UNL     1       2.322  -2.856  -0.035  0.00  0.00    +0.055 A 
ATOM      3  C   UNL     1       1.197  -2.052  -0.020  0.00  0.00    +0.129 A 
ATOM      4  N   UNL     1       0.119  -2.868  -0.009  0.00  0.00    -0.262 N 
ATOM      5  H   UNL     1      -0.837  -2.574   0.009  0.00  0.00    +0.190 HD
ATOM      6  N   UNL     1       0.567  -4.193  -0.025  0.00  0.00    -0.165 NA
ENDROOT
BRANCH   2   7
ATOM      7  C   UNL     1       3.732  -2.396  -0.045  0.00  0.00    -0.012 A 
ATOM      8  C   UNL     1       4.230  -1.694  -1.141  0.00  0.00    +0.011 A 
ATOM      9  C   UNL     1       5.542  -1.263  -1.143  0.00  0.00    +0.033 A 
ATOM     10  C   UNL     1       6.364  -1.538  -0.064  0.00  0.00    +0.126 A 
ATOM     11  C   UNL     1       5.876  -2.239   1.024  0.00  0.00    +0.033 A 
ATOM     12  C   UNL     1       4.565  -2.670   1.039  0.00  0.00    +0.011 A 
BRANCH  10  13
ATOM     13  N   UNL     1       7.771  -1.079  -0.075  0.00  0.00    +0.056 N 
ATOM     14  O   UNL     1       8.497  -1.319   0.873  0.00  0.00    -0.126 OA
ATOM     15  O   UNL     1       8.203  -0.461  -1.032  0.00  0.00    -0.126 OA
ENDBRANCH  10  13
ENDBRANCH   2   7
BRANCH   3  16
ATOM     16  N   UNL     1       1.178  -0.662  -0.012  0.00  0.00    -0.266 N 
ATOM     17  C   UNL     1       0.002  -0.004   0.002  0.00  0.00    +0.250 C 
ATOM     18  O   UNL     1      -1.043  -0.627   0.008  0.00  0.00    -0.270 OA
ATOM     19  H   UNL     1       2.012  -0.166  -0.017  0.00  0.00    +0.157 HD
BRANCH  17  20
ATOM     20  C   UNL     1      -0.018   1.467   0.010  0.00  0.00    +0.044 A 
ATOM     21  C   UNL     1      -1.257   2.203   0.020  0.00  0.00    +0.020 A 
ATOM     22  C   UNL     1      -1.172   3.548   0.031  0.00  0.00    +0.046 A 
ATOM     23  S   UNL     1       0.585   3.841   0.016  0.00  0.00    -0.104 S 
ATOM     24  C   UNL     1       1.149   2.204   0.003  0.00  0.00    +0.058 A 
ENDBRANCH  17  20
ENDBRANCH   3  16
BRANCH   1  26
ATOM     25  C   UNL     1       1.734  -7.013  -0.050  0.00  0.00    +0.091 C 
ATOM     26  S   UNL     1       2.907  -5.629  -0.054  0.00  0.00    -0.107 S 
ENDBRANCH   1  26
TORSDOF 5
