REMARK  Name = ZINC31810109
REMARK  7 active torsions:
REMARK  status: ('A' for Active; 'I' for Inactive)
REMARK    1  A    between atoms: C_1  and  O_2
REMARK    2  A    between atoms: O_2  and  C_3
REMARK    3  A    between atoms: C_3  and  C_5
REMARK    4  A    between atoms: C_5  and  C_6
REMARK    5  A    between atoms: C_6  and  C_7
REMARK    6  A    between atoms: C_7  and  N_8
REMARK    7  A    between atoms: C_20  and  C_22
REMARK                            x       y       z     vdW  Elec       q    Type
REMARK                         _______ _______ _______ _____ _____    ______ ____
ROOT
ATOM      1  N   UNL     1      -3.491  -6.728   0.012  0.00  0.00    -0.299 N 
ATOM      2  C   UNL     1      -4.499  -5.833   0.007  0.00  0.00    +0.303 C 
ATOM      3  O   UNL     1      -4.257  -4.644   0.088  0.00  0.00    -0.253 OA
ATOM      4  N   UNL     1      -5.775  -6.256  -0.089  0.00  0.00    -0.273 N 
ATOM      5  C   UNL     1      -6.881  -5.293  -0.206  0.00  0.00    +0.116 C 
ATOM      6  C   UNL     1      -7.561  -5.474  -1.570  0.00  0.00    +0.074 C 
ATOM      7  C   UNL     1      -7.762  -6.946  -1.821  0.00  0.00    +0.040 A 
ATOM      8  C   UNL     1      -7.114  -7.935  -1.169  0.00  0.00    +0.062 A 
ATOM      9  N   UNL     1      -7.541  -9.102  -1.655  0.00  0.00    -0.348 N 
ATOM     10  C   UNL     1      -8.433  -8.877  -2.585  0.00  0.00    +0.171 A 
ATOM     11  N   UNL     1      -8.598  -7.541  -2.716  0.00  0.00    -0.349 N 
ATOM     12  H   UNL     1      -9.199  -7.092  -3.331  0.00  0.00    +0.166 HD
ATOM     13  C   UNL     1      -6.096  -7.695  -0.085  0.00  0.00    +0.156 C 
ATOM     14  H   UNL     1      -3.686  -7.678   0.025  0.00  0.00    +0.150 HD
ATOM     15  H   UNL     1      -7.239  -9.977  -1.366  0.00  0.00    +0.167 HD
ENDROOT
BRANCH  13  16
ATOM     16  C   UNL     1      -6.673  -8.088   1.251  0.00  0.00    -0.021 A 
ATOM     17  C   UNL     1      -7.877  -7.552   1.668  0.00  0.00    +0.007 A 
ATOM     18  C   UNL     1      -8.407  -7.912   2.893  0.00  0.00    +0.020 A 
ATOM     19  C   UNL     1      -7.731  -8.808   3.701  0.00  0.00    +0.041 A 
ATOM     20  C   UNL     1      -6.526  -9.344   3.284  0.00  0.00    +0.020 A 
ATOM     21  C   UNL     1      -6.000  -8.988   2.056  0.00  0.00    +0.007 A 
ATOM     22 CL   UNL     1      -8.396  -9.260   5.240  0.00  0.00    -0.084 Cl
ENDBRANCH  13  16
BRANCH   1  23
ATOM     23  C   UNL     1      -2.101  -6.266  -0.003  0.00  0.00    +0.106 C 
BRANCH  23  24
ATOM     24  C   UNL     1      -1.162  -7.473   0.007  0.00  0.00    +0.030 C 
BRANCH  24  25
ATOM     25  C   UNL     1       0.290  -6.990  -0.009  0.00  0.00    +0.122 C 
BRANCH  25  26
ATOM     26  C   UNL     1       1.215  -8.180   0.001  0.00  0.00    +0.307 C 
ATOM     27  O   UNL     1       0.760  -9.299   0.018  0.00  0.00    -0.251 OA
BRANCH  26  29
ATOM     28  C   UNL     1       3.361  -9.169   0.000  0.00  0.00    +0.280 C 
ATOM     29  O   UNL     1       2.545  -7.996  -0.010  0.00  0.00    -0.468 OA
ENDBRANCH  26  29
ENDBRANCH  25  26
ENDBRANCH  24  25
ENDBRANCH  23  24
ENDBRANCH   1  23
TORSDOF 6
