REMARK  Name = ZINC02450918
REMARK  4 active torsions:
REMARK  status: ('A' for Active; 'I' for Inactive)
REMARK    1  A    between atoms: C_1  and  C_2
REMARK    2  A    between atoms: C_2  and  C_25
REMARK    3  A    between atoms: C_10  and  C_15
REMARK    4  A    between atoms: C_16  and  C_17
REMARK                            x       y       z     vdW  Elec       q    Type
REMARK                         _______ _______ _______ _____ _____    ______ ____
ROOT
ATOM      1  C   UNL     1       1.597   3.008  -1.011  0.00  0.00    +0.020 C 
ATOM      2  C   UNL     1       1.418   1.872  -0.001  0.00  0.00    +0.034 C 
ATOM      3  C   UNL     1      -0.017   1.385   0.010  0.00  0.00    -0.017 A 
ATOM      4  C   UNL     1      -1.214   2.069   0.020  0.00  0.00    +0.006 A 
ATOM      5  C   UNL     1      -2.410   1.374   0.021  0.00  0.00    +0.000 A 
ATOM      6  C   UNL     1      -2.402  -0.009   0.008  0.00  0.00    +0.002 A 
ATOM      7  C   UNL     1      -1.207  -0.698  -0.001  0.00  0.00    +0.023 A 
ATOM      8  C   UNL     1       0.002  -0.004   0.002  0.00  0.00    +0.036 A 
ATOM      9  N   UNL     1       1.315  -0.490   0.001  0.00  0.00    -0.296 N 
ATOM     10  C   UNL     1       2.204   0.618  -0.444  0.00  0.00    +0.131 C 
ATOM     11  N   UNL     1       3.429   0.503   0.354  0.00  0.00    -0.289 N 
ATOM     12  C   UNL     1       3.202  -0.278   1.428  0.00  0.00    +0.232 C 
ATOM     13  O   UNL     1       4.016  -0.564   2.281  0.00  0.00    -0.274 OA
ATOM     14  C   UNL     1       1.762  -0.740   1.391  0.00  0.00    +0.203 C 
ATOM     15  C   UNL     1       1.851   2.316   1.397  0.00  0.00    +0.020 C 
ATOM     16  H   UNL     1       4.275   0.927   0.141  0.00  0.00    +0.151 HD
ENDROOT
BRANCH  10  17
ATOM     17  C   UNL     1       2.477   0.584  -1.926  0.00  0.00    +0.020 C 
ATOM     18  C   UNL     1       1.957  -0.379  -2.674  0.00  0.00    +0.010 C 
BRANCH  18  19
ATOM     19  C   UNL     1       2.224  -0.411  -4.127  0.00  0.00    +0.011 A 
ATOM     20  C   UNL     1       2.028   0.734  -4.902  0.00  0.00    +0.049 A 
ATOM     21  C   UNL     1       2.286   0.697  -6.259  0.00  0.00    +0.020 A 
ATOM     22  C   UNL     1       2.725  -0.472  -6.851  0.00  0.00    +0.003 A 
ATOM     23  C   UNL     1       2.916  -1.612  -6.091  0.00  0.00    +0.020 A 
ATOM     24  C   UNL     1       2.668  -1.589  -4.732  0.00  0.00    +0.049 A 
ATOM     25 CL   UNL     1       2.908  -3.020  -3.780  0.00  0.00    -0.083 Cl
ATOM     26 CL   UNL     1       1.470   2.201  -4.161  0.00  0.00    -0.083 Cl
ENDBRANCH  18  19
ENDBRANCH  10  17
TORSDOF 2
