REMARK  Name = ZINC08694353
REMARK  9 active torsions:
REMARK  status: ('A' for Active; 'I' for Inactive)
REMARK    1  A    between atoms: C_1  and  C_2
REMARK    2  A    between atoms: C_2  and  O_3
REMARK    3  A    between atoms: O_3  and  C_4
REMARK    4  A    between atoms: C_4  and  C_6
REMARK    5  A    between atoms: C_6  and  O_7
REMARK    6  A    between atoms: O_7  and  C_8
REMARK    7  A    between atoms: C_13  and  C_14
REMARK    8  A    between atoms: C_16  and  C_28
REMARK    9  A    between atoms: N_18  and  C_21
REMARK                            x       y       z     vdW  Elec       q    Type
REMARK                         _______ _______ _______ _____ _____    ______ ____
ROOT
ATOM      1  C   UNL     1       4.493   6.786  -0.005  0.00  0.00    +0.026 C 
ATOM      2  C   UNL     1       4.090   5.668  -0.715  0.00  0.00    +0.062 C 
ATOM      3  C   UNL     1       4.649   4.310  -0.643  0.00  0.00    +0.069 C 
ATOM      4  N   UNL     1       3.978   3.565  -1.466  0.00  0.00    -0.177 NA
ATOM      5  N   UNL     1       2.988   4.296  -2.123  0.00  0.00    -0.156 N 
ATOM      6  C   UNL     1       3.005   5.578  -1.707  0.00  0.00    +0.272 C 
ATOM      7  O   UNL     1       2.271   6.479  -2.075  0.00  0.00    -0.268 OA
ATOM      8  C   UNL     1       5.792   3.863   0.232  0.00  0.00    +0.068 C 
ENDROOT
BRANCH   1  14
ATOM      9  C   UNL     1       4.372   9.264  -0.181  0.00  0.00    +0.128 A 
ATOM     10  C   UNL     1       3.625  10.429  -0.258  0.00  0.00    +0.047 A 
ATOM     11  C   UNL     1       2.245  10.370  -0.239  0.00  0.00    +0.019 A 
ATOM     12  C   UNL     1       1.593   9.149  -0.145  0.00  0.00    +0.019 A 
ATOM     13  C   UNL     1       2.315   7.979  -0.073  0.00  0.00    +0.026 A 
ATOM     14  C   UNL     1       3.718   8.022  -0.085  0.00  0.00    +0.018 A 
ATOM     15 BR   UNL     1      -0.297   9.091  -0.121  0.00  0.00    -0.050 Br
BRANCH   9  16
ATOM     16  O   UNL     1       5.727   9.322  -0.200  0.00  0.00    -0.480 OA
BRANCH  16  17
ATOM     17  C   UNL     1       6.320  10.618  -0.299  0.00  0.00    +0.349 C 
BRANCH  17  18
ATOM     18  C   UNL     1       7.821  10.484  -0.305  0.00  0.00    +0.345 C 
ATOM     19  O   UNL     1       8.331   9.391  -0.232  0.00  0.00    -0.247 OA
BRANCH  18  20
ATOM     20  O   UNL     1       8.592  11.579  -0.392  0.00  0.00    -0.463 OA
BRANCH  20  22
ATOM     21  C   UNL     1      10.737  12.728  -0.497  0.00  0.00    +0.048 C 
ATOM     22  C   UNL     1      10.030  11.375  -0.393  0.00  0.00    +0.229 C 
ENDBRANCH  20  22
ENDBRANCH  18  20
ENDBRANCH  17  18
ENDBRANCH  16  17
ENDBRANCH   9  16
ENDBRANCH   1  14
BRANCH   5  23
ATOM     23  C   UNL     1       2.102   3.773  -3.074  0.00  0.00    +0.060 A 
ATOM     24  C   UNL     1       2.175   2.432  -3.429  0.00  0.00    +0.026 A 
ATOM     25  C   UNL     1       1.301   1.919  -4.367  0.00  0.00    +0.017 A 
ATOM     26  C   UNL     1       0.356   2.740  -4.956  0.00  0.00    +0.018 A 
ATOM     27  C   UNL     1       0.277   4.075  -4.600  0.00  0.00    +0.017 A 
ATOM     28  C   UNL     1       1.149   4.593  -3.663  0.00  0.00    +0.026 A 
ATOM     29 BR   UNL     1      -0.835   2.035  -6.245  0.00  0.00    -0.050 Br
ENDBRANCH   5  23
TORSDOF 7
