REMARK  Name = ZINC64084060
REMARK  7 active torsions:
REMARK  status: ('A' for Active; 'I' for Inactive)
REMARK    1  A    between atoms: C_1  and  C_2
REMARK    2  A    between atoms: C_2  and  C_3
REMARK    3  A    between atoms: C_2  and  C_4
REMARK    4  A    between atoms: C_19  and  C_21
REMARK    5  A    between atoms: C_21  and  N_22
REMARK    6  A    between atoms: C_24  and  N_27
REMARK    7  A    between atoms: C_28  and  C_30
REMARK                            x       y       z     vdW  Elec       q    Type
REMARK                         _______ _______ _______ _____ _____    ______ ____
ROOT
ATOM      1  C   UNL     1      -1.359  -0.196  -0.207  0.00  0.00    +0.105 C 
ATOM      2  C   UNL     1      -1.559  -1.703  -0.407  0.00  0.00    +0.127 C 
ATOM      3  C   UNL     1      -3.062  -1.951  -0.375  0.00  0.00    -0.035 C 
ATOM      4  C   UNL     1      -3.365  -2.563  -1.513  0.00  0.00    -0.001 A 
ATOM      5  C   UNL     1      -4.633  -3.111  -2.022  0.00  0.00    +0.010 A 
ATOM      6  C   UNL     1      -4.589  -3.673  -3.259  0.00  0.00    +0.001 A 
ATOM      7  C   UNL     1      -3.426  -3.743  -4.031  0.00  0.00    +0.002 A 
ATOM      8  C   UNL     1      -2.216  -3.268  -3.641  0.00  0.00    +0.026 A 
ATOM      9  C   UNL     1      -2.134  -2.658  -2.355  0.00  0.00    +0.043 A 
ATOM     10  N   UNL     1      -1.094  -2.143  -1.724  0.00  0.00    -0.376 N 
ATOM     11  C   UNL     1      -3.938  -1.470   0.756  0.00  0.00    +0.052 C 
ATOM     12  C   UNL     1      -3.619   0.023   0.959  0.00  0.00    +0.112 C 
ATOM     13  N   UNL     1      -2.165   0.216   0.952  0.00  0.00    -0.294 N 
ATOM     14  C   UNL     1      -1.561   0.776   2.019  0.00  0.00    +0.237 C 
ATOM     15  O   UNL     1      -0.352   0.850   2.062  0.00  0.00    -0.274 OA
ATOM     16  H   UNL     1      -0.189  -2.061  -2.063  0.00  0.00    +0.160 HD
ENDROOT
BRANCH   1  18
ATOM     17  C   UNL     1       0.655  -0.879   1.103  0.00  0.00    +0.009 C 
ATOM     18  C   UNL     1       0.118   0.100   0.057  0.00  0.00    +0.006 C 
ATOM     19  C   UNL     1       0.910  -0.058  -1.242  0.00  0.00    +0.009 C 
ENDBRANCH   1  18
BRANCH  14  20
ATOM     20  C   UNL     1      -2.389   1.310   3.160  0.00  0.00    +0.239 C 
BRANCH  20  21
ATOM     21  N   UNL     1      -1.505   1.862   4.189  0.00  0.00    -0.261 N 
ATOM     22  C   UNL     1      -1.563   3.119   4.701  0.00  0.00    +0.132 A 
ATOM     23  C   UNL     1      -0.574   3.230   5.625  0.00  0.00    +0.072 A 
ATOM     24  C   UNL     1       0.106   2.004   5.676  0.00  0.00    +0.157 A 
ATOM     25  N   UNL     1      -0.454   1.187   4.822  0.00  0.00    -0.177 NA
BRANCH  23  26
ATOM     26  N   UNL     1      -0.283   4.372   6.394  0.00  0.00    -0.279 N 
ATOM     27  C   UNL     1       0.733   4.347   7.280  0.00  0.00    +0.248 C 
ATOM     28  O   UNL     1       1.397   3.337   7.415  0.00  0.00    -0.270 OA
ATOM     29  H   UNL     1      -0.813   5.177   6.286  0.00  0.00    +0.155 HD
BRANCH  27  30
ATOM     30  C   UNL     1       1.038   5.545   8.086  0.00  0.00    +0.041 A 
ATOM     31  C   UNL     1       0.272   6.704   7.937  0.00  0.00    +0.017 A 
ATOM     32  C   UNL     1       0.559   7.821   8.691  0.00  0.00    +0.050 A 
ATOM     33  C   UNL     1       1.608   7.800   9.600  0.00  0.00    +0.166 A 
ATOM     34  C   UNL     1       2.376   6.646   9.754  0.00  0.00    +0.167 A 
ATOM     35  C   UNL     1       2.090   5.521   9.006  0.00  0.00    +0.062 A 
ATOM     36  O   UNL     1       3.333   6.883  10.699  0.00  0.00    -0.453 OA
ATOM     37  C   UNL     1       3.402   8.315  10.824  0.00  0.00    +0.466 C 
ATOM     38  O   UNL     1       2.084   8.756  10.448  0.00  0.00    -0.453 OA
ENDBRANCH  27  30
ENDBRANCH  23  26
ENDBRANCH  20  21
ENDBRANCH  14  20
TORSDOF 5
