REMARK  Name = ZINC39658082
REMARK  9 active torsions:
REMARK  status: ('A' for Active; 'I' for Inactive)
REMARK    1  A    between atoms: C_1  and  C_2
REMARK    2  A    between atoms: C_2  and  C_3
REMARK    3  A    between atoms: C_3  and  C_4
REMARK    4  A    between atoms: C_4  and  C_5
REMARK    5  A    between atoms: C_5  and  C_6
REMARK    6  A    between atoms: C_6  and  C_7
REMARK    7  A    between atoms: C_11  and  C_20
REMARK    8  A    between atoms: N_22  and  C_23
REMARK    9  A    between atoms: C_26  and  C_29
REMARK                            x       y       z     vdW  Elec       q    Type
REMARK                         _______ _______ _______ _____ _____    ______ ____
ROOT
ATOM      1  C   UNL     1       2.132  -4.576  -3.441  0.00  0.00    +0.216 C 
ATOM      2  O   UNL     1       2.571  -3.702  -4.158  0.00  0.00    -0.276 OA
ATOM      3  N   UNL     1       2.291  -5.870  -3.783  0.00  0.00    -0.300 N 
ATOM      4  C   UNL     1       1.823  -7.068  -3.047  0.00  0.00    +0.121 C 
ATOM      5  C   UNL     1       1.337  -8.038  -4.147  0.00  0.00    +0.100 C 
ATOM      6  C   UNL     1       2.095  -7.607  -5.413  0.00  0.00    -0.004 C 
ATOM      7  C   UNL     1       2.966  -6.417  -4.985  0.00  0.00    +0.115 C 
ATOM      8  C   UNL     1       1.111  -7.170  -6.495  0.00  0.00    -0.010 C 
ATOM      9  C   UNL     1       1.886  -6.801  -7.763  0.00  0.00    -0.082 C 
ATOM     10  N   UNL     1       2.663  -7.959  -8.219  0.00  0.00    +0.379 N 
ATOM     11  C   UNL     1       3.670  -8.315  -7.212  0.00  0.00    -0.082 C 
ATOM     12  C   UNL     1       2.971  -8.748  -5.920  0.00  0.00    -0.010 C 
ATOM     13  H   UNL     1       2.044  -8.742  -8.365  0.00  0.00    -0.086 HD
ATOM     14  H   UNL     1       3.124  -7.732  -9.088  0.00  0.00    -0.086 HD
ENDROOT
BRANCH   5  15
ATOM     15  C   UNL     1      -0.150  -7.899  -4.349  0.00  0.00    +0.218 C 
ATOM     16  O   UNL     1      -0.691  -6.830  -4.155  0.00  0.00    -0.275 OA
ATOM     17  N   UNL     1      -0.879  -8.961  -4.746  0.00  0.00    -0.312 N 
ATOM     18  H   UNL     1      -0.446  -9.815  -4.901  0.00  0.00    +0.149 HD
BRANCH  17  19
ATOM     19  C   UNL     1      -2.324  -8.825  -4.943  0.00  0.00    +0.073 C 
ATOM     20  C   UNL     1      -2.600  -8.296  -6.351  0.00  0.00    +0.023 C 
ATOM     21  C   UNL     1      -4.109  -8.154  -6.557  0.00  0.00    +0.016 C 
ATOM     22  C   UNL     1      -4.777  -9.520  -6.386  0.00  0.00    +0.102 C 
ATOM     23  C   UNL     1      -4.502 -10.049  -4.977  0.00  0.00    +0.016 C 
ATOM     24  C   UNL     1      -2.993 -10.191  -4.771  0.00  0.00    +0.023 C 
BRANCH  22  25
ATOM     25  C   UNL     1      -6.264  -9.380  -6.588  0.00  0.00    +0.359 C 
ATOM     26  O   UNL     1      -6.880 -10.238  -7.199  0.00  0.00    -0.246 OA
ATOM     27  O   UNL     1      -6.852  -8.410  -6.142  0.00  0.00    -0.246 OA
ENDBRANCH  22  25
ENDBRANCH  17  19
ENDBRANCH   5  15
BRANCH   1  28
ATOM     28  C   UNL     1       1.411  -4.216  -2.168  0.00  0.00    +0.096 C 
BRANCH  28  29
ATOM     29  C   UNL     1       1.370  -2.694  -2.018  0.00  0.00    +0.009 C 
BRANCH  29  30
ATOM     30  C   UNL     1       0.637  -2.329  -0.726  0.00  0.00    +0.000 C 
BRANCH  30  31
ATOM     31  C   UNL     1       0.596  -0.807  -0.576  0.00  0.00    -0.000 C 
BRANCH  31  33
ATOM     32  C   UNL     1      -0.177   1.081   0.867  0.00  0.00    +0.004 C 
ATOM     33  C   UNL     1      -0.136  -0.441   0.717  0.00  0.00    -0.003 C 
ENDBRANCH  31  33
ENDBRANCH  30  31
ENDBRANCH  29  30
ENDBRANCH  28  29
ENDBRANCH   1  28
TORSDOF 8
