REMARK  Name = ZINC38850170
REMARK  7 active torsions:
REMARK  status: ('A' for Active; 'I' for Inactive)
REMARK    1  A    between atoms: C_1  and  C_2
REMARK    2  A    between atoms: C_3  and  N_15
REMARK    3  A    between atoms: N_6  and  C_9
REMARK    4  A    between atoms: N_7  and  C_8
REMARK    5  A    between atoms: C_16  and  C_18
REMARK    6  A    between atoms: N_23  and  C_25
REMARK    7  A    between atoms: C_25  and  C_26
REMARK                            x       y       z     vdW  Elec       q    Type
REMARK                         _______ _______ _______ _____ _____    ______ ____
ROOT
ATOM      1  N   UNL     1       0.109  -0.214  -2.459  0.00  0.00    -0.280 N 
ATOM      2  C   UNL     1       0.624  -0.884  -3.509  0.00  0.00    +0.219 C 
ATOM      3  O   UNL     1       1.140  -1.969  -3.342  0.00  0.00    -0.275 OA
ATOM      4  H   UNL     1      -0.240   0.683  -2.580  0.00  0.00    +0.155 HD
ENDROOT
BRANCH   1   7
ATOM      5  C   UNL     1      -2.436  -0.674  -0.808  0.00  0.00    +0.067 C 
ATOM      6  C   UNL     1      -1.023  -1.036  -0.430  0.00  0.00    +0.059 A 
ATOM      7  C   UNL     1       0.076  -0.816  -1.186  0.00  0.00    +0.121 A 
ATOM      8  C   UNL     1       1.227  -1.321  -0.436  0.00  0.00    +0.293 A 
ATOM      9  O   UNL     1       2.391  -1.301  -0.792  0.00  0.00    -0.264 OA
ATOM     10  N   UNL     1       0.751  -1.815   0.727  0.00  0.00    -0.216 N 
ATOM     11  N   UNL     1      -0.637  -1.636   0.739  0.00  0.00    -0.282 N 
ATOM     12  C   UNL     1      -1.534  -2.031   1.827  0.00  0.00    +0.171 C 
BRANCH  10  13
ATOM     13  C   UNL     1       1.513  -2.397   1.744  0.00  0.00    +0.067 A 
ATOM     14  C   UNL     1       1.119  -3.607   2.303  0.00  0.00    +0.028 A 
ATOM     15  C   UNL     1       1.874  -4.180   3.308  0.00  0.00    +0.002 A 
ATOM     16  C   UNL     1       3.021  -3.551   3.757  0.00  0.00    +0.000 A 
ATOM     17  C   UNL     1       3.415  -2.347   3.204  0.00  0.00    +0.002 A 
ATOM     18  C   UNL     1       2.668  -1.772   2.194  0.00  0.00    +0.028 A 
ENDBRANCH  10  13
ENDBRANCH   1   7
BRANCH   2  19
ATOM     19  C   UNL     1       0.558  -0.285  -4.891  0.00  0.00    +0.059 C 
ATOM     20  C   UNL     1       1.305   1.051  -4.905  0.00  0.00    +0.009 C 
ATOM     21  C   UNL     1       1.300   1.613  -6.330  0.00  0.00    -0.018 C 
ATOM     22  C   UNL     1       1.926   0.588  -7.279  0.00  0.00    -0.078 C 
ATOM     23  N   UNL     1       1.151  -0.658  -7.239  0.00  0.00    +0.383 N 
ATOM     24  C   UNL     1       1.210  -1.240  -5.893  0.00  0.00    -0.066 C 
ATOM     25  H   UNL     1       0.190  -0.463  -7.477  0.00  0.00    -0.081 HD
BRANCH  23  26
ATOM     26  C   UNL     1       1.709  -1.611  -8.208  0.00  0.00    -0.039 C 
BRANCH  26  27
ATOM     27  C   UNL     1       1.528  -1.072  -9.604  0.00  0.00    -0.010 A 
ATOM     28  C   UNL     1       0.378  -1.367 -10.317  0.00  0.00    +0.126 A 
ATOM     29  C   UNL     1       0.213  -0.872 -11.599  0.00  0.00    +0.038 A 
ATOM     30  C   UNL     1       1.196  -0.082 -12.166  0.00  0.00    +0.004 A 
ATOM     31  C   UNL     1       2.343   0.213 -11.455  0.00  0.00    +0.020 A 
ATOM     32  C   UNL     1       2.507  -0.277 -10.171  0.00  0.00    +0.045 A 
ATOM     33 CL   UNL     1       3.946   0.100  -9.275  0.00  0.00    -0.083 Cl
ATOM     34  F   UNL     1      -0.581  -2.139  -9.762  0.00  0.00    -0.205 F 
ENDBRANCH  26  27
ENDBRANCH  23  26
ENDBRANCH   2  19
TORSDOF 5
