REMARK  Name = ZINC17057399
REMARK  3 active torsions:
REMARK  status: ('A' for Active; 'I' for Inactive)
REMARK    1  A    between atoms: C_1  and  C_2
REMARK    2  A    between atoms: C_10  and  N_29
REMARK    3  A    between atoms: N_23  and  C_26
REMARK                            x       y       z     vdW  Elec       q    Type
REMARK                         _______ _______ _______ _____ _____    ______ ____
ROOT
ATOM      1  C   UNL     1       5.124  -2.895   0.552  0.00  0.00    +0.007 C 
ATOM      2  C   UNL     1       3.842  -2.128   0.881  0.00  0.00    -0.011 C 
ATOM      3  C   UNL     1       2.625  -2.965   0.477  0.00  0.00    +0.022 C 
ATOM      4  C   UNL     1       1.348  -2.168   0.754  0.00  0.00    +0.106 C 
ATOM      5  N   UNL     1       1.380  -0.913  -0.008  0.00  0.00    -0.325 N 
ATOM      6  C   UNL     1       0.153  -0.257   0.044  0.00  0.00    +0.033 A 
ATOM      7  C   UNL     1      -1.002  -1.041   0.071  0.00  0.00    +0.025 A 
ATOM      8  C   UNL     1      -2.246  -0.451   0.115  0.00  0.00    +0.034 A 
ATOM      9  C   UNL     1      -2.356   0.928   0.134  0.00  0.00    +0.127 A 
ATOM     10  C   UNL     1      -1.218   1.709   0.114  0.00  0.00    +0.038 A 
ATOM     11  C   UNL     1       0.036   1.122   0.066  0.00  0.00    -0.023 A 
ATOM     12  C   UNL     1       1.244   2.026   0.044  0.00  0.00    +0.064 C 
ATOM     13  C   UNL     1       2.470   1.230  -0.412  0.00  0.00    +0.146 C 
ATOM     14  C   UNL     1       2.510  -0.075   0.392  0.00  0.00    +0.098 C 
ATOM     15  C   UNL     1       3.823  -0.807   0.106  0.00  0.00    +0.027 C 
ATOM     16  C   UNL     1       3.716   2.024  -0.146  0.00  0.00    +0.236 C 
ATOM     17  O   UNL     1       3.966   2.363   0.991  0.00  0.00    -0.274 OA
ATOM     18  N   UNL     1       4.560   2.368  -1.129  0.00  0.00    -0.266 N 
ATOM     19  C   UNL     1       4.340   2.023  -2.406  0.00  0.00    +0.146 C 
ATOM     20  S   UNL     1       5.464   2.501  -3.605  0.00  0.00    -0.018 S 
ATOM     21  N   UNL     1       3.260   1.314  -2.768  0.00  0.00    -0.249 N 
ATOM     22  C   UNL     1       2.345   0.911  -1.875  0.00  0.00    +0.238 C 
ATOM     23  O   UNL     1       1.389   0.271  -2.259  0.00  0.00    -0.274 OA
ATOM     24  H   UNL     1       5.465   2.949  -0.898  0.00  0.00    +0.157 HD
ENDROOT
BRANCH  21  25
ATOM     25  C   UNL     1       3.075   0.970  -4.180  0.00  0.00    +0.083 C 
ATOM     26  C   UNL     1       2.707  -0.477  -4.512  0.00  0.00    +0.025 C 
ATOM     27  C   UNL     1       4.112   0.046  -4.823  0.00  0.00    +0.025 C 
ENDBRANCH  21  25
BRANCH   9  28
ATOM     28  N   UNL     1      -3.692   1.564   0.181  0.00  0.00    +0.056 N 
ATOM     29  O   UNL     1      -4.695   0.874   0.203  0.00  0.00    -0.126 OA
ATOM     30  O   UNL     1      -3.788   2.778   0.197  0.00  0.00    -0.126 OA
ENDBRANCH   9  28
TORSDOF 2
