REMARK  Name = ZINC16500963
REMARK  7 active torsions:
REMARK  status: ('A' for Active; 'I' for Inactive)
REMARK    1  A    between atoms: C_1  and  C_2
REMARK    2  A    between atoms: C_10  and  C_11
REMARK    3  A    between atoms: N_13  and  N_14
REMARK    4  A    between atoms: C_15  and  C_17
REMARK    5  A    between atoms: C_20  and  C_22
REMARK    6  A    between atoms: C_22  and  S_23
REMARK    7  A    between atoms: S_23  and  C_26
REMARK                            x       y       z     vdW  Elec       q    Type
REMARK                         _______ _______ _______ _____ _____    ______ ____
ROOT
ATOM      1  N   UNL     1      -3.517   2.318   0.029  0.00  0.00    -0.228 N 
ATOM      2  C   UNL     1      -2.513   1.419   0.020  0.00  0.00    +0.295 C 
ATOM      3  O   UNL     1      -2.763   0.228   0.014  0.00  0.00    -0.265 OA
ATOM      4  H   UNL     1      -3.317   3.268   0.033  0.00  0.00    +0.173 HD
ENDROOT
BRANCH   2   5
ATOM      5  C   UNL     1      -1.119   1.876   0.017  0.00  0.00    +0.191 A 
ATOM      6  C   UNL     1      -0.013   1.076   0.008  0.00  0.00    +0.055 A 
ATOM      7  C   UNL     1       1.102   1.929   0.002  0.00  0.00    +0.047 A 
ATOM      8  C   UNL     1       0.633   3.196   0.013  0.00  0.00    +0.127 A 
ATOM      9  O   UNL     1      -0.706   3.160   0.026  0.00  0.00    -0.453 OA
BRANCH   8  10
ATOM     10  C   UNL     1       1.477   4.444   0.011  0.00  0.00    +0.245 C 
BRANCH  10  11
ATOM     11  S   UNL     1       1.799   4.954  -1.700  0.00  0.00    +0.004 S 
ATOM     12  O   UNL     1       2.640   4.006  -2.343  0.00  0.00    -0.169 OA
ATOM     13  O   UNL     1       0.594   5.389  -2.315  0.00  0.00    -0.169 OA
BRANCH  11  14
ATOM     14  C   UNL     1       2.784   6.408  -1.562  0.00  0.00    +0.089 A 
ATOM     15  C   UNL     1       2.180   7.650  -1.500  0.00  0.00    +0.027 A 
ATOM     16  C   UNL     1       2.953   8.790  -1.386  0.00  0.00    +0.002 A 
ATOM     17  C   UNL     1       4.331   8.690  -1.345  0.00  0.00    +0.000 A 
ATOM     18  C   UNL     1       4.936   7.449  -1.413  0.00  0.00    +0.002 A 
ATOM     19  C   UNL     1       4.162   6.308  -1.521  0.00  0.00    +0.027 A 
ENDBRANCH  11  14
ENDBRANCH  10  11
ENDBRANCH   8  10
ENDBRANCH   2   5
BRANCH   1  22
ATOM     20  C   UNL     1      -5.852   2.781   0.040  0.00  0.00    +0.296 C 
ATOM     21  O   UNL     1      -5.602   3.972   0.046  0.00  0.00    -0.265 OA
ATOM     22  N   UNL     1      -4.848   1.882   0.031  0.00  0.00    -0.227 N 
ATOM     23  H   UNL     1      -5.047   0.933   0.027  0.00  0.00    +0.173 HD
BRANCH  20  33
ATOM     24  C   UNL     1      -8.343   4.643   0.072  0.00  0.00    +0.048 C 
ATOM     25  C   UNL     1      -8.337   3.136   0.058  0.00  0.00    +0.008 A 
ATOM     26  C   UNL     1      -9.502   2.252   0.053  0.00  0.00    +0.024 A 
ATOM     27  C   UNL     1     -10.883   2.461   0.060  0.00  0.00    +0.012 A 
ATOM     28  C   UNL     1     -11.730   1.389   0.057  0.00  0.00    +0.001 A 
ATOM     29  C   UNL     1     -11.228   0.095   0.048  0.00  0.00    +0.004 A 
ATOM     30  C   UNL     1      -9.869  -0.133   0.041  0.00  0.00    +0.047 A 
ATOM     31  C   UNL     1      -8.987   0.942   0.043  0.00  0.00    +0.136 A 
ATOM     32  O   UNL     1      -7.643   1.033   0.038  0.00  0.00    -0.450 OA
ATOM     33  C   UNL     1      -7.248   2.324   0.043  0.00  0.00    +0.195 A 
ENDBRANCH  20  33
ENDBRANCH   1  22
TORSDOF 6
