REMARK  Name = ZINC40329987
REMARK  5 active torsions:
REMARK  status: ('A' for Active; 'I' for Inactive)
REMARK    1  A    between atoms: C_1  and  C_2
REMARK    2  A    between atoms: C_7  and  C_9
REMARK    3  A    between atoms: C_7  and  C_10
REMARK    4  A    between atoms: C_13  and  C_15
REMARK    5  A    between atoms: C_19  and  N_21
REMARK                            x       y       z     vdW  Elec       q    Type
REMARK                         _______ _______ _______ _____ _____    ______ ____
ROOT
ATOM      1  C   UNL     1       0.874   0.999   0.672  0.00  0.00    +0.013 C 
ATOM      2  C   UNL     1       0.612  -0.492   0.413  0.00  0.00    -0.014 C 
ATOM      3  C   UNL     1      -0.904  -0.831   0.395  0.00  0.00    +0.030 C 
ATOM      4  C   UNL     1      -0.855  -2.192  -0.344  0.00  0.00    +0.077 C 
ATOM      5  C   UNL     1      -0.345  -3.230   0.653  0.00  0.00    +0.029 C 
ATOM      6  C   UNL     1       0.993  -2.877   1.277  0.00  0.00    -0.033 C 
ATOM      7  C   UNL     1       1.268  -1.395   1.456  0.00  0.00    +0.014 C 
ATOM      8  C   UNL     1       2.129  -3.532   0.478  0.00  0.00    +0.011 C 
ATOM      9  C   UNL     1       1.022  -3.521   2.686  0.00  0.00    +0.011 C 
ATOM     10  N   UNL     1       0.149  -2.009  -1.410  0.00  0.00    -0.294 N 
ATOM     11  C   UNL     1       1.063  -0.932  -0.998  0.00  0.00    +0.115 C 
ATOM     12  C   UNL     1       0.214  -2.699  -2.566  0.00  0.00    +0.247 C 
ATOM     13  O   UNL     1      -0.544  -3.629  -2.762  0.00  0.00    -0.270 OA
ENDROOT
BRANCH  12  14
ATOM     14  C   UNL     1       1.206  -2.325  -3.596  0.00  0.00    +0.039 A 
ATOM     15  C   UNL     1       1.869  -3.316  -4.323  0.00  0.00    +0.014 A 
ATOM     16  C   UNL     1       2.794  -2.965  -5.284  0.00  0.00    +0.018 A 
ATOM     17  C   UNL     1       3.069  -1.631  -5.531  0.00  0.00    +0.039 A 
ATOM     18  C   UNL     1       2.414  -0.637  -4.812  0.00  0.00    +0.039 A 
ATOM     19  C   UNL     1       1.479  -0.980  -3.849  0.00  0.00    +0.037 A 
ATOM     20 BR   UNL     1       4.340  -1.160  -6.850  0.00  0.00    -0.048 Br
BRANCH  18  21
ATOM     21  N   UNL     1       2.696   0.709  -5.065  0.00  0.00    -0.357 N 
ATOM     22  H   UNL     1       3.348   0.949  -5.742  0.00  0.00    +0.142 HD
ATOM     23  H   UNL     1       2.239   1.402  -4.564  0.00  0.00    +0.142 HD
ENDBRANCH  18  21
ENDBRANCH  12  14
TORSDOF 2
