REMARK  Name = ZINC09124438
REMARK  10 active torsions:
REMARK  status: ('A' for Active; 'I' for Inactive)
REMARK    1  A    between atoms: C_1  and  C_2
REMARK    2  A    between atoms: C_2  and  O_3
REMARK    3  A    between atoms: O_3  and  C_4
REMARK    4  A    between atoms: C_7  and  C_10
REMARK    5  A    between atoms: C_13  and  C_28
REMARK    6  A    between atoms: N_20  and  C_21
REMARK    7  A    between atoms: C_21  and  C_22
REMARK    8  A    between atoms: C_30  and  C_36
REMARK    9  A    between atoms: C_32  and  C_35
REMARK   10  A    between atoms: C_33  and  O_34
REMARK                            x       y       z     vdW  Elec       q    Type
REMARK                         _______ _______ _______ _____ _____    ______ ____
ROOT
ATOM      1  C   UNL     1      -2.001  -6.092  -0.011  0.00  0.00    +0.142 C 
ATOM      2  C   UNL     1      -2.331  -6.567  -1.399  0.00  0.00    +0.035 A 
ATOM      3  C   UNL     1      -1.950  -6.668  -2.699  0.00  0.00    +0.075 A 
ATOM      4  N   UNL     1      -2.958  -7.316  -3.354  0.00  0.00    -0.276 N 
ATOM      5  H   UNL     1      -2.961  -7.529  -4.300  0.00  0.00    +0.189 HD
ATOM      6  N   UNL     1      -3.903  -7.601  -2.531  0.00  0.00    -0.168 NA
ATOM      7  C   UNL     1      -3.602  -7.181  -1.318  0.00  0.00    +0.153 A 
ATOM      8  C   UNL     1      -4.057  -7.095   0.081  0.00  0.00    +0.268 C 
ATOM      9  O   UNL     1      -5.115  -7.529   0.494  0.00  0.00    -0.268 OA
ATOM     10  N   UNL     1      -3.138  -6.468   0.837  0.00  0.00    -0.281 N 
ENDROOT
BRANCH   3  11
ATOM     11  C   UNL     1      -0.688  -6.172  -3.291  0.00  0.00    +0.042 A 
ATOM     12  C   UNL     1      -0.712  -5.149  -4.237  0.00  0.00    +0.017 A 
ATOM     13  C   UNL     1       0.469  -4.690  -4.785  0.00  0.00    -0.049 A 
ATOM     14  C   UNL     1       1.678  -5.242  -4.399  0.00  0.00    +0.010 A 
ATOM     15  C   UNL     1       1.714  -6.258  -3.462  0.00  0.00    -0.008 A 
ATOM     16  C   UNL     1       0.537  -6.725  -2.899  0.00  0.00    +0.129 A 
ATOM     17  C   UNL     1       3.034  -6.854  -3.049  0.00  0.00    +0.047 C 
ATOM     18  C   UNL     1       0.442  -3.583  -5.808  0.00  0.00    +0.044 C 
BRANCH  16  19
ATOM     19  O   UNL     1       0.572  -7.719  -1.973  0.00  0.00    -0.506 OA
ATOM     20  H   UNL     1       0.516  -8.608  -2.349  0.00  0.00    +0.292 HD
ENDBRANCH  16  19
ENDBRANCH   3  11
BRANCH   1  24
ATOM     21  C   UNL     1      -1.498  -1.848   0.006  0.00  0.00    +0.121 A 
ATOM     22  C   UNL     1      -0.388  -2.679  -0.003  0.00  0.00    +0.046 A 
ATOM     23  C   UNL     1      -0.553  -4.051  -0.008  0.00  0.00    +0.009 A 
ATOM     24  C   UNL     1      -1.823  -4.596  -0.005  0.00  0.00    -0.022 A 
ATOM     25  C   UNL     1      -2.932  -3.769   0.004  0.00  0.00    +0.009 A 
ATOM     26  C   UNL     1      -2.772  -2.397   0.016  0.00  0.00    +0.046 A 
BRANCH  21  27
ATOM     27  O   UNL     1      -1.339  -0.499   0.012  0.00  0.00    -0.492 OA
BRANCH  27  29
ATOM     28  C   UNL     1      -0.019   1.526   0.010  0.00  0.00    +0.048 C 
ATOM     29  C   UNL     1       0.002  -0.004   0.002  0.00  0.00    +0.225 C 
ENDBRANCH  27  29
ENDBRANCH  21  27
ENDBRANCH   1  24
BRANCH  10  30
ATOM     30  C   UNL     1      -3.252  -6.205   2.274  0.00  0.00    +0.145 C 
BRANCH  30  31
ATOM     31  C   UNL     1      -3.911  -4.867   2.489  0.00  0.00    -0.012 A 
ATOM     32  C   UNL     1      -3.147  -3.713   2.571  0.00  0.00    +0.008 A 
ATOM     33  C   UNL     1      -3.796  -2.504   2.769  0.00  0.00    +0.020 A 
ATOM     34  C   UNL     1      -5.174  -2.490   2.877  0.00  0.00    +0.111 A 
ATOM     35  N   UNL     1      -5.869  -3.608   2.795  0.00  0.00    -0.263 NA
ATOM     36  C   UNL     1      -5.285  -4.774   2.600  0.00  0.00    +0.115 A 
ENDBRANCH  30  31
ENDBRANCH  10  30
TORSDOF 7
