REMARK  Name = ZINC42139474
REMARK  6 active torsions:
REMARK  status: ('A' for Active; 'I' for Inactive)
REMARK    1  A    between atoms: C_1  and  C_2
REMARK    2  A    between atoms: C_2  and  C_4
REMARK    3  A    between atoms: C_2  and  O_6
REMARK    4  A    between atoms: O_6  and  C_7
REMARK    5  A    between atoms: C_7  and  C_9
REMARK    6  A    between atoms: C_11  and  N_17
REMARK                            x       y       z     vdW  Elec       q    Type
REMARK                         _______ _______ _______ _____ _____    ______ ____
ROOT
ATOM      1  C   UNL     1       0.603  -1.188   3.501  0.00  0.00    +0.169 A 
ATOM      2  C   UNL     1      -0.166  -1.419   4.638  0.00  0.00    +0.095 A 
ATOM      3  C   UNL     1       0.460  -1.882   5.796  0.00  0.00    +0.067 A 
ATOM      4  C   UNL     1       1.837  -2.094   5.763  0.00  0.00    +0.100 A 
ATOM      5  C   UNL     1       2.534  -1.841   4.592  0.00  0.00    +0.150 A 
ATOM      6  N   UNL     1       1.914  -1.409   3.514  0.00  0.00    -0.226 NA
ATOM      7 CL   UNL     1       4.250  -2.104   4.545  0.00  0.00    -0.060 Cl
ATOM      8 CL   UNL     1       2.670  -2.669   7.174  0.00  0.00    -0.078 Cl
ATOM      9 CL   UNL     1      -1.879  -1.134   4.616  0.00  0.00    -0.079 Cl
ENDROOT
BRANCH   3  10
ATOM     10  N   UNL     1      -0.273  -2.125   6.956  0.00  0.00    -0.356 N 
ATOM     11  H   UNL     1      -1.231  -1.972   6.965  0.00  0.00    +0.142 HD
ATOM     12  H   UNL     1       0.175  -2.447   7.754  0.00  0.00    +0.142 HD
ENDBRANCH   3  10
BRANCH   1  13
ATOM     13  C   UNL     1      -0.044  -0.697   2.265  0.00  0.00    +0.360 C 
ATOM     14  O   UNL     1      -1.242  -0.493   2.247  0.00  0.00    -0.243 OA
BRANCH  13  15
ATOM     15  O   UNL     1       0.693  -0.477   1.160  0.00  0.00    -0.442 OA
BRANCH  15  17
ATOM     16  C   UNL     1      -0.019   1.526   0.010  0.00  0.00    +0.068 C 
ATOM     17  C   UNL     1       0.002  -0.004   0.002  0.00  0.00    +0.275 C 
BRANCH  17  18
ATOM     18  C   UNL     1       0.691  -0.479  -1.209  0.00  0.00    +0.107 C 
ATOM     19  N   UNL     1       1.223  -0.845  -2.144  0.00  0.00    -0.193 NA
ENDBRANCH  17  18
ENDBRANCH  15  17
ENDBRANCH  13  15
ENDBRANCH   1  13
TORSDOF 5
