REMARK  Name = ZINC62562189
REMARK  7 active torsions:
REMARK  status: ('A' for Active; 'I' for Inactive)
REMARK    1  A    between atoms: C_1  and  C_2
REMARK    2  A    between atoms: C_9  and  S_14
REMARK    3  A    between atoms: S_14  and  N_17
REMARK    4  A    between atoms: N_17  and  C_18
REMARK    5  A    between atoms: C_18  and  C_20
REMARK    6  A    between atoms: C_18  and  C_21
REMARK    7  A    between atoms: C_21  and  O_22
REMARK                            x       y       z     vdW  Elec       q    Type
REMARK                         _______ _______ _______ _____ _____    ______ ____
ROOT
ATOM      1  C   UNL     1      -0.019   1.526   0.010  0.00  0.00    +0.062 C 
ATOM      2  C   UNL     1       0.002  -0.004   0.002  0.00  0.00    +0.256 C 
ATOM      3  C   UNL     1       0.706  -0.490  -1.239  0.00  0.00    +0.258 C 
ATOM      4  O   UNL     1       0.074  -0.718  -2.249  0.00  0.00    -0.271 OA
ATOM      5  N   UNL     1       2.045  -0.669  -1.223  0.00  0.00    -0.279 N 
ATOM      6  C   UNL     1       2.748  -0.433  -0.033  0.00  0.00    +0.078 A 
ATOM      7  C   UNL     1       4.126  -0.291  -0.041  0.00  0.00    +0.055 A 
ATOM      8  C   UNL     1       4.800  -0.060   1.144  0.00  0.00    +0.107 A 
ATOM      9  C   UNL     1       4.102   0.031   2.335  0.00  0.00    +0.032 A 
ATOM     10  C   UNL     1       2.726  -0.109   2.349  0.00  0.00    +0.049 A 
ATOM     11  C   UNL     1       2.045  -0.340   1.167  0.00  0.00    +0.143 A 
ATOM     12  O   UNL     1       0.692  -0.477   1.161  0.00  0.00    -0.478 OA
ATOM     13  H   UNL     1       2.513  -0.958  -2.022  0.00  0.00    +0.155 HD
ENDROOT
BRANCH   8  14
ATOM     14  S   UNL     1       6.552   0.121   1.137  0.00  0.00    +0.059 S 
ATOM     15  O   UNL     1       7.000  -0.213   2.444  0.00  0.00    -0.153 OA
ATOM     16  O   UNL     1       7.025  -0.548  -0.024  0.00  0.00    -0.153 OA
BRANCH  14  17
ATOM     17  N   UNL     1       6.878   1.730   0.922  0.00  0.00    -0.185 NA
ATOM     18  H   UNL     1       7.329   2.030   0.117  0.00  0.00    +0.148 HD
BRANCH  17  19
ATOM     19  C   UNL     1       6.485   2.700   1.947  0.00  0.00    +0.099 C 
ATOM     20  C   UNL     1       7.668   2.961   2.882  0.00  0.00    +0.028 C 
BRANCH  19  21
ATOM     21  C   UNL     1       6.068   4.011   1.276  0.00  0.00    +0.175 C 
BRANCH  21  22
ATOM     22  O   UNL     1       7.197   4.590   0.619  0.00  0.00    -0.393 OA
ATOM     23  H   UNL     1       7.006   5.425   0.171  0.00  0.00    +0.209 HD
ENDBRANCH  21  22
ENDBRANCH  19  21
ENDBRANCH  17  19
ENDBRANCH  14  17
ENDBRANCH   8  14
TORSDOF 5
