REMARK  Name = ZINC27555388
REMARK  6 active torsions:
REMARK  status: ('A' for Active; 'I' for Inactive)
REMARK    1  A    between atoms: C_1  and  C_2
REMARK    2  A    between atoms: C_7  and  S_22
REMARK    3  A    between atoms: N_11  and  C_12
REMARK    4  A    between atoms: C_12  and  C_13
REMARK    5  A    between atoms: C_17  and  N_19
REMARK    6  A    between atoms: S_22  and  N_25
REMARK                            x       y       z     vdW  Elec       q    Type
REMARK                         _______ _______ _______ _____ _____    ______ ____
ROOT
ATOM      1  C   UNL     1      -0.999  -2.758  -1.496  0.00  0.00    +0.028 C 
ATOM      2  C   UNL     1      -1.315  -2.582  -0.009  0.00  0.00    +0.075 C 
ATOM      3  C   UNL     1      -0.091  -2.953   0.859  0.00  0.00    +0.059 C 
ATOM      4  C   UNL     1       0.606  -1.619   1.046  0.00  0.00    -0.023 A 
ATOM      5  C   UNL     1       1.881  -1.304   1.465  0.00  0.00    +0.034 A 
ATOM      6  C   UNL     1       2.281   0.018   1.538  0.00  0.00    +0.105 A 
ATOM      7  C   UNL     1       1.398   1.024   1.189  0.00  0.00    +0.030 A 
ATOM      8  C   UNL     1       0.121   0.715   0.772  0.00  0.00    +0.025 A 
ATOM      9  C   UNL     1      -0.290  -0.616   0.699  0.00  0.00    +0.034 A 
ATOM     10  N   UNL     1      -1.526  -1.156   0.321  0.00  0.00    -0.322 N 
ENDROOT
BRANCH   6  11
ATOM     11  S   UNL     1       3.911   0.419   2.073  0.00  0.00    +0.056 S 
ATOM     12  O   UNL     1       3.858   1.748   2.574  0.00  0.00    -0.153 OA
ATOM     13  O   UNL     1       4.361  -0.674   2.861  0.00  0.00    -0.153 OA
BRANCH  11  14
ATOM     14  N   UNL     1       4.872   0.460   0.725  0.00  0.00    -0.204 NA
ATOM     15  H   UNL     1       5.903   0.708   1.018  0.00  0.00    +0.144 HD
ATOM     16  H   UNL     1       4.495   1.222   0.028  0.00  0.00    +0.144 HD
ENDBRANCH  11  14
ENDBRANCH   6  11
BRANCH  10  17
ATOM     17  C   UNL     1      -2.090  -0.428  -0.824  0.00  0.00    +0.140 C 
BRANCH  17  18
ATOM     18  C   UNL     1      -2.467   0.967  -0.396  0.00  0.00    -0.028 A 
ATOM     19  C   UNL     1      -3.375   1.154   0.630  0.00  0.00    +0.005 A 
ATOM     20  C   UNL     1      -3.717   2.434   1.025  0.00  0.00    +0.003 A 
ATOM     21  C   UNL     1      -3.158   3.526   0.389  0.00  0.00    +0.033 A 
ATOM     22  C   UNL     1      -2.253   3.339  -0.639  0.00  0.00    +0.127 A 
ATOM     23  C   UNL     1      -1.908   2.059  -1.032  0.00  0.00    +0.038 A 
BRANCH  22  24
ATOM     24  N   UNL     1      -1.654   4.509  -1.321  0.00  0.00    +0.056 N 
ATOM     25  O   UNL     1      -0.858   4.344  -2.227  0.00  0.00    -0.126 OA
ATOM     26  O   UNL     1      -1.958   5.636  -0.975  0.00  0.00    -0.126 OA
ENDBRANCH  22  24
ENDBRANCH  17  18
ENDBRANCH  10  17
TORSDOF 5
