REMARK  Name = ZINC55071092
REMARK  7 active torsions:
REMARK  status: ('A' for Active; 'I' for Inactive)
REMARK    1  A    between atoms: C_1  and  C_2
REMARK    2  A    between atoms: C_2  and  C_4
REMARK    3  A    between atoms: C_2  and  N_7
REMARK    4  A    between atoms: C_4  and  C_5
REMARK    5  A    between atoms: C_4  and  C_6
REMARK    6  A    between atoms: N_13  and  C_16
REMARK    7  A    between atoms: C_16  and  C_17
REMARK                            x       y       z     vdW  Elec       q    Type
REMARK                         _______ _______ _______ _____ _____    ______ ____
ROOT
ATOM      1  N   UNL     1       0.711  -0.489   1.189  0.00  0.00    -0.296 N 
ATOM      2  C   UNL     1       2.054  -0.600   1.174  0.00  0.00    +0.302 C 
ATOM      3  O   UNL     1       2.670  -0.384   0.148  0.00  0.00    -0.253 OA
ATOM      4  N   UNL     1       2.714  -0.949   2.296  0.00  0.00    -0.283 N 
ATOM      5  C   UNL     1       1.983  -1.326   3.515  0.00  0.00    +0.124 C 
ATOM      6  C   UNL     1       2.534  -0.505   4.686  0.00  0.00    +0.104 C 
ATOM      7  N   UNL     1       3.991  -0.676   4.757  0.00  0.00    -0.294 NA
ATOM      8  C   UNL     1       4.648  -0.157   3.550  0.00  0.00    +0.104 C 
ATOM      9  C   UNL     1       4.184  -0.970   2.331  0.00  0.00    +0.124 C 
ATOM     10  H   UNL     1       0.213  -0.732   1.985  0.00  0.00    +0.151 HD
ENDROOT
BRANCH   1  12
ATOM     11  C   UNL     1      -0.018   1.528   0.013  0.00  0.00    +0.028 C 
ATOM     12  C   UNL     1       0.002  -0.002   0.003  0.00  0.00    +0.074 C 
BRANCH  12  13
ATOM     13  C   UNL     1      -1.433  -0.532   0.013  0.00  0.00    +0.003 C 
ATOM     14  C   UNL     1      -2.173  -0.023  -1.226  0.00  0.00    +0.009 C 
ATOM     15  C   UNL     1      -1.413  -2.062   0.002  0.00  0.00    +0.009 C 
ENDBRANCH  12  13
ENDBRANCH   1  12
BRANCH   7  16
ATOM     16  C   UNL     1       4.537  -0.045   5.966  0.00  0.00    +0.138 C 
BRANCH  16  17
ATOM     17  C   UNL     1       5.980  -0.446   6.134  0.00  0.00    +0.037 A 
ATOM     18  C   UNL     1       6.983   0.496   6.055  0.00  0.00    +0.093 A 
ATOM     19  C   UNL     1       8.313   0.106   6.213  0.00  0.00    +0.259 A 
ATOM     20  O   UNL     1       9.206   0.937   6.144  0.00  0.00    -0.267 OA
ATOM     21  N   UNL     1       8.616  -1.206   6.447  0.00  0.00    -0.264 N 
ATOM     22  C   UNL     1       9.869  -1.741   6.624  0.00  0.00    +0.104 A 
ATOM     23  C   UNL     1      10.035  -3.045   6.846  0.00  0.00    +0.067 A 
ATOM     24  S   UNL     1       8.351  -3.638   6.820  0.00  0.00    -0.059 S 
ATOM     25  C   UNL     1       7.559  -2.074   6.511  0.00  0.00    +0.158 A 
ATOM     26  N   UNL     1       6.308  -1.714   6.368  0.00  0.00    -0.338 N 
ATOM     27  H   UNL     1       5.609  -2.384   6.429  0.00  0.00    +0.168 HD
ENDBRANCH  16  17
ENDBRANCH   7  16
TORSDOF 4
