REMARK  Name = ZINC65435799
REMARK  9 active torsions:
REMARK  status: ('A' for Active; 'I' for Inactive)
REMARK    1  A    between atoms: C_1  and  C_2
REMARK    2  A    between atoms: C_2  and  N_3
REMARK    3  A    between atoms: N_3  and  C_4
REMARK    4  A    between atoms: C_4  and  C_5
REMARK    5  A    between atoms: C_5  and  C_6
REMARK    6  A    between atoms: C_12  and  C_16
REMARK    7  A    between atoms: C_17  and  C_19
REMARK    8  A    between atoms: C_19  and  C_20
REMARK    9  A    between atoms: C_29  and  C_30
REMARK                            x       y       z     vdW  Elec       q    Type
REMARK                         _______ _______ _______ _____ _____    ______ ____
ROOT
ATOM      1  N   UNL     1       0.667  -0.626  -1.175  0.00  0.00    -0.302 N 
ATOM      2  C   UNL     1      -0.041  -0.840  -2.301  0.00  0.00    +0.218 C 
ATOM      3  O   UNL     1       0.497  -1.328  -3.272  0.00  0.00    -0.276 OA
ENDROOT
BRANCH   1   5
ATOM      4  C   UNL     1       0.139   1.486  -0.062  0.00  0.00    +0.024 C 
ATOM      5  C   UNL     1       0.017  -0.037  -0.001  0.00  0.00    +0.104 C 
ENDBRANCH   1   5
BRANCH   1   6
ATOM      6  C   UNL     1       2.087  -0.983  -1.124  0.00  0.00    +0.111 C 
BRANCH   6   7
ATOM      7  C   UNL     1       2.233  -2.426  -0.636  0.00  0.00    +0.065 C 
BRANCH   7   8
ATOM      8  C   UNL     1       3.716  -2.799  -0.583  0.00  0.00    +0.175 C 
ATOM      9  N   UNL     1       4.394  -2.021   0.462  0.00  0.00    -0.363 N 
ATOM     10  C   UNL     1       4.877  -2.866   1.326  0.00  0.00    +0.060 A 
ATOM     11  C   UNL     1       5.643  -2.697   2.569  0.00  0.00    +0.027 A 
ATOM     12  C   UNL     1       6.016  -3.783   3.274  0.00  0.00    +0.005 A 
ATOM     13  C   UNL     1       5.702  -5.093   2.870  0.00  0.00    -0.048 A 
ATOM     14  C   UNL     1       5.003  -5.361   1.748  0.00  0.00    +0.030 A 
ATOM     15  C   UNL     1       4.543  -4.253   0.899  0.00  0.00    +0.060 A 
ATOM     16  N   UNL     1       3.868  -4.212  -0.214  0.00  0.00    -0.363 N 
ATOM     17  C   UNL     1       6.164  -6.244   3.726  0.00  0.00    +0.044 C 
ATOM     18  H   UNL     1       4.469  -1.055   0.501  0.00  0.00    +0.162 HD
ATOM     19  H   UNL     1       3.527  -4.974  -0.708  0.00  0.00    +0.162 HD
ENDBRANCH   7   8
ENDBRANCH   6   7
ENDBRANCH   1   6
BRANCH   2  20
ATOM     20  C   UNL     1      -1.502  -0.473  -2.354  0.00  0.00    +0.124 C 
BRANCH  20  21
ATOM     21  C   UNL     1      -2.030  -0.684  -3.774  0.00  0.00    +0.125 C 
ATOM     22  C   UNL     1      -1.440   0.346  -4.710  0.00  0.00    +0.103 C 
ATOM     23  N   UNL     1      -2.351   1.136  -5.127  0.00  0.00    -0.267 NA
ATOM     24  C   UNL     1      -3.647   0.805  -4.548  0.00  0.00    +0.218 C 
ATOM     25  N   UNL     1      -3.470  -0.465  -3.815  0.00  0.00    -0.303 N 
ATOM     26  C   UNL     1      -4.526  -1.232  -3.375  0.00  0.00    +0.073 C 
ATOM     27  C   UNL     1      -5.629  -1.196  -4.162  0.00  0.00    +0.015 C 
ATOM     28  C   UNL     1      -5.609  -0.396  -5.392  0.00  0.00    +0.004 C 
ATOM     29  C   UNL     1      -4.699   0.567  -5.603  0.00  0.00    -0.031 C 
ATOM     30  C   UNL     1      -4.712   1.386  -6.868  0.00  0.00    +0.043 C 
ENDBRANCH  20  21
ENDBRANCH   2  20
TORSDOF 6
