REMARK  Name = ZINC40096598
REMARK  9 active torsions:
REMARK  status: ('A' for Active; 'I' for Inactive)
REMARK    1  A    between atoms: C_4  and  C_7
REMARK    2  A    between atoms: C_7  and  O_8
REMARK    3  A    between atoms: O_8  and  C_9
REMARK    4  A    between atoms: C_13  and  C_15
REMARK    5  A    between atoms: C_17  and  C_26
REMARK    6  A    between atoms: N_21  and  C_22
REMARK    7  A    between atoms: C_22  and  C_23
REMARK    8  A    between atoms: C_23  and  O_24
REMARK    9  A    between atoms: C_26  and  C_28
REMARK                            x       y       z     vdW  Elec       q    Type
REMARK                         _______ _______ _______ _____ _____    ______ ____
ROOT
ATOM      1  C   UNL     1       7.498  -2.829   4.253  0.00  0.00    +0.145 C 
ATOM      2  C   UNL     1       8.674  -1.946   4.598  0.00  0.00    +0.076 C 
ATOM      3  C   UNL     1       9.722  -2.768   4.840  0.00  0.00    +0.249 C 
ATOM      4  C   UNL     1       9.288  -4.171   4.669  0.00  0.00    +0.288 C 
ATOM      5  O   UNL     1      10.000  -5.144   4.817  0.00  0.00    -0.266 OA
ATOM      6  N   UNL     1       7.986  -4.211   4.325  0.00  0.00    -0.281 N 
ATOM      7  O   UNL     1      10.968  -2.369   5.184  0.00  0.00    -0.282 OA
ENDROOT
BRANCH   1  12
ATOM      8  C   UNL     1       5.332  -1.652   1.388  0.00  0.00    +0.121 A 
ATOM      9  C   UNL     1       6.128  -1.966   0.296  0.00  0.00    +0.045 A 
ATOM     10  C   UNL     1       7.362  -2.557   0.488  0.00  0.00    +0.004 A 
ATOM     11  C   UNL     1       7.804  -2.835   1.768  0.00  0.00    +0.006 A 
ATOM     12  C   UNL     1       7.013  -2.524   2.859  0.00  0.00    -0.019 A 
ATOM     13  C   UNL     1       5.780  -1.928   2.672  0.00  0.00    +0.051 A 
BRANCH   8  14
ATOM     14  O   UNL     1       4.118  -1.071   1.202  0.00  0.00    -0.487 OA
BRANCH  14  15
ATOM     15  C   UNL     1       3.721  -0.816  -0.147  0.00  0.00    +0.264 C 
BRANCH  15  19
ATOM     16  C   UNL     1      -0.142   1.006  -0.178  0.00  0.00    +0.000 A 
ATOM     17  C   UNL     1       0.993   1.793  -0.118  0.00  0.00    +0.000 A 
ATOM     18  C   UNL     1       2.243   1.203  -0.108  0.00  0.00    +0.007 A 
ATOM     19  C   UNL     1       2.358  -0.173  -0.158  0.00  0.00    -0.010 A 
ATOM     20  C   UNL     1       1.224  -0.961  -0.217  0.00  0.00    +0.007 A 
ATOM     21  C   UNL     1      -0.027  -0.371  -0.228  0.00  0.00    +0.000 A 
ENDBRANCH  15  19
ENDBRANCH  14  15
ENDBRANCH   8  14
ENDBRANCH   1  12
BRANCH   2  22
ATOM     22  C   UNL     1       8.680  -0.481   4.659  0.00  0.00    +0.195 C 
ATOM     23  O   UNL     1       9.342   0.158   3.863  0.00  0.00    -0.287 OA
BRANCH  22  24
ATOM     24  C   UNL     1       7.882   0.218   5.685  0.00  0.00    +0.026 A 
ATOM     25  C   UNL     1       7.218  -0.512   6.675  0.00  0.00    +0.015 A 
ATOM     26  C   UNL     1       6.474   0.143   7.630  0.00  0.00    +0.050 A 
ATOM     27  C   UNL     1       6.380   1.530   7.616  0.00  0.00    +0.162 A 
ATOM     28  C   UNL     1       7.041   2.264   6.634  0.00  0.00    +0.163 A 
ATOM     29  C   UNL     1       7.793   1.613   5.674  0.00  0.00    +0.061 A 
ATOM     30  O   UNL     1       6.965   3.623   6.611  0.00  0.00    -0.485 OA
ATOM     31  C   UNL     1       5.907   4.221   7.367  0.00  0.00    +0.270 C 
ATOM     32  C   UNL     1       5.869   3.556   8.750  0.00  0.00    +0.270 C 
ATOM     33  O   UNL     1       5.636   2.155   8.567  0.00  0.00    -0.485 OA
ENDBRANCH  22  24
ENDBRANCH   2  22
BRANCH   6  34
ATOM     34  C   UNL     1       7.198  -5.419   4.069  0.00  0.00    +0.137 C 
BRANCH  34  35
ATOM     35  C   UNL     1       7.290  -5.783   2.586  0.00  0.00    +0.175 C 
BRANCH  35  36
ATOM     36  O   UNL     1       8.638  -6.136   2.265  0.00  0.00    -0.393 OA
ATOM     37  H   UNL     1       8.771  -6.379   1.339  0.00  0.00    +0.209 HD
ENDBRANCH  35  36
ENDBRANCH  34  35
ENDBRANCH   6  34
TORSDOF 9
