REMARK  Name = ZINC11003109
REMARK  8 active torsions:
REMARK  status: ('A' for Active; 'I' for Inactive)
REMARK    1  A    between atoms: C_1  and  C_2
REMARK    2  A    between atoms: C_4  and  N_7
REMARK    3  A    between atoms: C_8  and  C_10
REMARK    4  A    between atoms: C_10  and  C_12
REMARK    5  A    between atoms: C_10  and  S_13
REMARK    6  A    between atoms: S_13  and  C_14
REMARK    7  A    between atoms: C_17  and  C_20
REMARK    8  A    between atoms: N_18  and  N_19
REMARK                            x       y       z     vdW  Elec       q    Type
REMARK                         _______ _______ _______ _____ _____    ______ ____
ROOT
ATOM      1  S   UNL     1       0.002  -0.004   0.002  0.00  0.00    -0.072 S 
ENDROOT
BRANCH   1   2
ATOM      2  C   UNL     1      -0.022   1.758   0.012  0.00  0.00    +0.209 A 
ATOM      3  N   UNL     1      -1.088   2.524   0.020  0.00  0.00    -0.121 NA
ATOM      4  N   UNL     1      -0.737   3.760   0.029  0.00  0.00    -0.123 NA
ATOM      5  C   UNL     1       0.563   3.856   0.017  0.00  0.00    +0.255 A 
ATOM      6  N   UNL     1       1.065   2.584   0.006  0.00  0.00    -0.220 N 
BRANCH   5   7
ATOM      7  C   UNL     1       1.364   5.133   0.016  0.00  0.00    +0.454 C 
ATOM      8  F   UNL     1       0.535   6.203   0.371  0.00  0.00    -0.163 F 
ATOM      9  F   UNL     1       2.410   5.027   0.939  0.00  0.00    -0.163 F 
ATOM     10  F   UNL     1       1.889   5.353  -1.261  0.00  0.00    -0.163 F 
ENDBRANCH   5   7
BRANCH   6  11
ATOM     11  N   UNL     1       2.381   2.217  -0.008  0.00  0.00    -0.295 N 
ATOM     12  H   UNL     1       2.720   2.125  -0.954  0.00  0.00    +0.163 HD
ATOM     13  H   UNL     1       2.943   2.870   0.516  0.00  0.00    +0.163 HD
ENDBRANCH   6  11
ENDBRANCH   1   2
BRANCH   1  14
ATOM     14  C   UNL     1      -1.776  -0.343   0.017  0.00  0.00    +0.137 C 
ATOM     15  C   UNL     1      -2.378   0.154   1.333  0.00  0.00    +0.029 C 
BRANCH  14  17
ATOM     16  N   UNL     1      -3.167  -2.287  -0.620  0.00  0.00    -0.253 N 
ATOM     17  C   UNL     1      -2.006  -1.826  -0.112  0.00  0.00    +0.233 C 
ATOM     18  O   UNL     1      -1.147  -2.606   0.240  0.00  0.00    -0.274 OA
ATOM     19  H   UNL     1      -3.854  -1.663  -0.902  0.00  0.00    +0.158 HD
BRANCH  16  23
ATOM     20  C   UNL     1      -5.080  -6.791  -1.536  0.00  0.00    +0.069 C 
ATOM     21  C   UNL     1      -4.193  -5.642  -1.131  0.00  0.00    +0.082 A 
ATOM     22  C   UNL     1      -4.493  -4.269  -1.230  0.00  0.00    +0.092 A 
ATOM     23  C   UNL     1      -3.378  -3.652  -0.739  0.00  0.00    +0.224 A 
ATOM     24  O   UNL     1      -2.526  -4.632  -0.400  0.00  0.00    -0.339 OA
ATOM     25  N   UNL     1      -2.997  -5.724  -0.620  0.00  0.00    -0.081 NA
ENDBRANCH  16  23
ENDBRANCH  14  17
ENDBRANCH   1  14
TORSDOF 6
