REMARK  Name = ZINC31814208
REMARK  7 active torsions:
REMARK  status: ('A' for Active; 'I' for Inactive)
REMARK    1  A    between atoms: C_1  and  C_2
REMARK    2  A    between atoms: C_5  and  C_8
REMARK    3  A    between atoms: C_13  and  C_18
REMARK    4  A    between atoms: C_18  and  C_19
REMARK    5  A    between atoms: N_21  and  C_22
REMARK    6  A    between atoms: C_25  and  C_29
REMARK    7  A    between atoms: C_27  and  C_28
REMARK                            x       y       z     vdW  Elec       q    Type
REMARK                         _______ _______ _______ _____ _____    ______ ____
ROOT
ATOM      1  C   UNL     1       5.622   2.805  -0.141  0.00  0.00    +0.183 A 
ATOM      2  N   UNL     1       5.566   2.075   0.981  0.00  0.00    -0.193 NA
ATOM      3  C   UNL     1       4.422   1.417   1.030  0.00  0.00    +0.221 A 
ATOM      4  N   UNL     1       3.729   1.731  -0.083  0.00  0.00    -0.220 N 
ATOM      5  N   UNL     1       4.513   2.622  -0.823  0.00  0.00    -0.148 NA
ATOM      6  C   UNL     1       2.457   1.002  -0.033  0.00  0.00    +0.205 C 
ATOM      7  C   UNL     1       2.522   0.228   1.267  0.00  0.00    +0.245 C 
ATOM      8  O   UNL     1       1.676  -0.516   1.716  0.00  0.00    -0.273 OA
ATOM      9  N   UNL     1       3.709   0.532   1.823  0.00  0.00    -0.253 N 
ATOM     10  H   UNL     1       4.138   0.176   2.772  0.00  0.00    +0.158 HD
ENDROOT
BRANCH   1  15
ATOM     11  C   UNL     1      10.007   6.190  -1.718  0.00  0.00    +0.044 C 
ATOM     12  C   UNL     1       8.860   5.304  -1.305  0.00  0.00    -0.050 A 
ATOM     13  C   UNL     1       8.926   4.601  -0.116  0.00  0.00    +0.004 A 
ATOM     14  C   UNL     1       7.878   3.788   0.267  0.00  0.00    +0.012 A 
ATOM     15  C   UNL     1       6.752   3.678  -0.547  0.00  0.00    +0.021 A 
ATOM     16  C   UNL     1       6.693   4.385  -1.746  0.00  0.00    +0.012 A 
ATOM     17  C   UNL     1       7.745   5.198  -2.117  0.00  0.00    +0.004 A 
ENDBRANCH   1  15
BRANCH   6  18
ATOM     18  C   UNL     1       1.280   1.980  -0.015  0.00  0.00    +0.132 C 
BRANCH  18  19
ATOM     19  C   UNL     1      -0.014   1.209   0.005  0.00  0.00    +0.220 C 
ATOM     20  O   UNL     1       0.003  -0.004   0.005  0.00  0.00    -0.275 OA
ATOM     21  N   UNL     1      -1.191   1.867   0.018  0.00  0.00    -0.285 N 
ATOM     22  H   UNL     1      -1.207   2.963   0.109  0.00  0.00    +0.155 HD
BRANCH  21  23
ATOM     23  C   UNL     1      -2.391   1.155  -0.086  0.00  0.00    +0.036 A 
ATOM     24  C   UNL     1      -2.411  -0.091  -0.699  0.00  0.00    +0.024 A 
ATOM     25  C   UNL     1      -3.596  -0.793  -0.795  0.00  0.00    +0.005 A 
ATOM     26  C   UNL     1      -4.765  -0.251  -0.291  0.00  0.00    -0.050 A 
ATOM     27  C   UNL     1      -4.750   0.991   0.314  0.00  0.00    +0.008 A 
ATOM     28  C   UNL     1      -3.566   1.696   0.418  0.00  0.00    -0.029 A 
ATOM     29  C   UNL     1      -3.551   3.051   1.078  0.00  0.00    +0.045 C 
ATOM     30  C   UNL     1      -6.058  -1.017  -0.404  0.00  0.00    +0.044 C 
ENDBRANCH  21  23
ENDBRANCH  18  19
ENDBRANCH   6  18
TORSDOF 4
