REMARK  Name = ZINC53481929
REMARK  7 active torsions:
REMARK  status: ('A' for Active; 'I' for Inactive)
REMARK    1  A    between atoms: C_1  and  C_2
REMARK    2  A    between atoms: C_2  and  C_3
REMARK    3  A    between atoms: C_2  and  N_4
REMARK    4  A    between atoms: C_5  and  C_7
REMARK    5  A    between atoms: C_12  and  N_13
REMARK    6  A    between atoms: C_14  and  C_16
REMARK    7  A    between atoms: N_26  and  C_27
REMARK                            x       y       z     vdW  Elec       q    Type
REMARK                         _______ _______ _______ _____ _____    ______ ____
ROOT
ATOM      1  N   UNL     1      -2.395  -4.299  -1.702  0.00  0.00    -0.281 N 
ATOM      2  C   UNL     1      -2.753  -5.421  -2.355  0.00  0.00    +0.248 C 
ATOM      3  O   UNL     1      -3.929  -5.702  -2.484  0.00  0.00    -0.270 OA
ATOM      4  H   UNL     1      -1.462  -4.035  -1.665  0.00  0.00    +0.155 HD
ENDROOT
BRANCH   2   5
ATOM      5  C   UNL     1      -1.718  -6.311  -2.915  0.00  0.00    +0.039 A 
ATOM      6  C   UNL     1      -0.365  -5.991  -2.762  0.00  0.00    +0.015 A 
ATOM      7  C   UNL     1       0.603  -6.822  -3.283  0.00  0.00    +0.026 A 
ATOM      8  C   UNL     1       0.235  -7.976  -3.959  0.00  0.00    +0.051 A 
ATOM      9  C   UNL     1      -1.117  -8.302  -4.120  0.00  0.00    +0.055 A 
ATOM     10  C   UNL     1      -2.090  -7.476  -3.593  0.00  0.00    +0.038 A 
ATOM     11  N   UNL     1      -1.468  -9.465  -4.816  0.00  0.00    -0.283 N 
ATOM     12  C   UNL     1      -0.547 -10.412  -5.078  0.00  0.00    +0.235 C 
ATOM     13  O   UNL     1      -0.860 -11.393  -5.719  0.00  0.00    -0.274 OA
ATOM     14  C   UNL     1       0.870 -10.265  -4.584  0.00  0.00    +0.200 C 
ATOM     15  N   UNL     1       1.199  -8.835  -4.489  0.00  0.00    -0.323 N 
ATOM     16  C   UNL     1       2.498  -8.328  -4.936  0.00  0.00    +0.130 C 
ATOM     17  H   UNL     1      -2.383  -9.591  -5.112  0.00  0.00    +0.155 HD
ENDBRANCH   2   5
BRANCH   1  23
ATOM     18  C   UNL     1      -3.228  -2.121  -1.044  0.00  0.00    +0.058 A 
ATOM     19  C   UNL     1      -4.211  -1.348  -0.421  0.00  0.00    +0.015 A 
ATOM     20  C   UNL     1      -5.301  -1.959   0.159  0.00  0.00    +0.001 A 
ATOM     21  C   UNL     1      -5.429  -3.339   0.128  0.00  0.00    +0.002 A 
ATOM     22  C   UNL     1      -4.467  -4.116  -0.484  0.00  0.00    +0.024 A 
ATOM     23  C   UNL     1      -3.364  -3.517  -1.079  0.00  0.00    +0.046 A 
BRANCH  18  25
ATOM     24  N   UNL     1      -1.982  -0.129  -1.720  0.00  0.00    -0.309 N 
ATOM     25  C   UNL     1      -2.059  -1.474  -1.667  0.00  0.00    +0.246 C 
ATOM     26  O   UNL     1      -1.164  -2.152  -2.133  0.00  0.00    -0.270 OA
ATOM     27  H   UNL     1      -2.695   0.413  -1.348  0.00  0.00    +0.149 HD
BRANCH  24  29
ATOM     28  C   UNL     1      -1.212   1.908  -2.834  0.00  0.00    +0.027 C 
ATOM     29  C   UNL     1      -0.820   0.514  -2.339  0.00  0.00    +0.067 C 
ATOM     30  C   UNL     1       0.304   0.637  -1.308  0.00  0.00    +0.027 C 
ENDBRANCH  24  29
ENDBRANCH  18  25
ENDBRANCH   1  23
TORSDOF 4
