REMARK  Name = ZINC40585688
REMARK  7 active torsions:
REMARK  status: ('A' for Active; 'I' for Inactive)
REMARK    1  A    between atoms: C_1  and  C_2
REMARK    2  A    between atoms: C_7  and  C_9
REMARK    3  A    between atoms: C_7  and  C_10
REMARK    4  A    between atoms: C_14  and  N_27
REMARK    5  A    between atoms: C_15  and  N_19
REMARK    6  A    between atoms: N_19  and  C_20
REMARK    7  A    between atoms: C_20  and  C_21
REMARK                            x       y       z     vdW  Elec       q    Type
REMARK                         _______ _______ _______ _____ _____    ______ ____
ROOT
ATOM      1  C   UNL     1      -0.019   1.532   0.011  0.00  0.00    +0.013 C 
ATOM      2  C   UNL     1       0.002  -0.004   0.002  0.00  0.00    -0.014 C 
ATOM      3  C   UNL     1      -1.426  -0.614  -0.022  0.00  0.00    +0.030 C 
ATOM      4  C   UNL     1      -1.088  -2.043  -0.515  0.00  0.00    +0.076 C 
ATOM      5  C   UNL     1      -0.479  -2.797   0.664  0.00  0.00    +0.029 C 
ATOM      6  C   UNL     1       0.721  -2.106   1.284  0.00  0.00    -0.033 C 
ATOM      7  C   UNL     1       0.726  -0.591   1.212  0.00  0.00    +0.014 C 
ATOM      8  C   UNL     1       2.014  -2.666   0.673  0.00  0.00    +0.011 C 
ATOM      9  C   UNL     1       0.745  -2.492   2.784  0.00  0.00    +0.011 C 
ATOM     10  N   UNL     1      -0.056  -1.853  -1.552  0.00  0.00    -0.310 N 
ATOM     11  C   UNL     1       0.626  -0.576  -1.291  0.00  0.00    +0.113 C 
ATOM     12  C   UNL     1       0.218  -2.719  -2.599  0.00  0.00    +0.157 A 
ATOM     13  C   UNL     1       1.226  -2.427  -3.513  0.00  0.00    +0.205 A 
ATOM     14  C   UNL     1       1.462  -3.329  -4.545  0.00  0.00    +0.154 A 
ATOM     15  N   UNL     1       0.720  -4.432  -4.622  0.00  0.00    -0.218 NA
ATOM     16  C   UNL     1      -0.225  -4.673  -3.737  0.00  0.00    +0.225 A 
ATOM     17  N   UNL     1      -0.476  -3.847  -2.742  0.00  0.00    -0.218 NA
ENDROOT
BRANCH  13  18
ATOM     18  N   UNL     1       2.027  -1.187  -3.389  0.00  0.00    +0.063 N 
ATOM     19  O   UNL     1       3.045  -1.188  -2.738  0.00  0.00    -0.126 OA
ATOM     20  O   UNL     1       1.662  -0.175  -3.940  0.00  0.00    -0.126 OA
ENDBRANCH  13  18
BRANCH  14  21
ATOM     21  N   UNL     1       2.455  -3.083  -5.481  0.00  0.00    -0.325 N 
ATOM     22  H   UNL     1       2.991  -2.277  -5.419  0.00  0.00    +0.148 HD
BRANCH  21  23
ATOM     23  C   UNL     1       2.695  -4.040  -6.564  0.00  0.00    +0.134 C 
BRANCH  23  24
ATOM     24  C   UNL     1       3.835  -3.534  -7.449  0.00  0.00    +0.135 C 
ATOM     25  C   UNL     1       4.014  -4.474  -8.661  0.00  0.00    +0.035 C 
ATOM     26  C   UNL     1       5.559  -4.528  -8.810  0.00  0.00    +0.031 C 
ATOM     27  C   UNL     1       6.001  -4.436  -7.327  0.00  0.00    +0.160 C 
ATOM     28  O   UNL     1       5.062  -3.537  -6.711  0.00  0.00    -0.375 OA
ENDBRANCH  23  24
ENDBRANCH  21  23
ENDBRANCH  14  21
TORSDOF 4
