REMARK  Name = ZINC08766888
REMARK  6 active torsions:
REMARK  status: ('A' for Active; 'I' for Inactive)
REMARK    1  A    between atoms: C_1  and  C_2
REMARK    2  A    between atoms: C_2  and  C_31
REMARK    3  A    between atoms: C_3  and  N_28
REMARK    4  A    between atoms: C_5  and  C_21
REMARK    5  A    between atoms: C_7  and  C_14
REMARK    6  A    between atoms: C_9  and  N_11
REMARK                            x       y       z     vdW  Elec       q    Type
REMARK                         _______ _______ _______ _____ _____    ______ ____
ROOT
ATOM      1  C   UNL     1       0.073  -5.139   1.068  0.00  0.00    +0.015 C 
ATOM      2  C   UNL     1       1.141  -4.402   0.257  0.00  0.00    +0.017 C 
ATOM      3  C   UNL     1       2.530  -4.787   0.773  0.00  0.00    +0.168 C 
ATOM      4  C   UNL     1       3.592  -4.001  -0.001  0.00  0.00    -0.008 C 
ATOM      5  C   UNL     1       2.056  -2.160  -0.352  0.00  0.00    -0.008 C 
ATOM      6  C   UNL     1       0.949  -2.891   0.411  0.00  0.00    +0.168 C 
ATOM      7  C   UNL     1       1.018  -4.785  -1.219  0.00  0.00    +0.015 C 
ATOM      8  N   UNL     1       3.373  -2.554   0.184  0.00  0.00    +0.391 N 
ATOM      9  H   UNL     1       4.108  -2.035  -0.310  0.00  0.00    -0.084 HD
ATOM     10  H   UNL     1       3.410  -2.331   1.186  0.00  0.00    -0.084 HD
ENDROOT
BRANCH   5  11
ATOM     11  C   UNL     1       1.882  -0.672  -0.187  0.00  0.00    -0.041 A 
ATOM     12  C   UNL     1       2.651   0.016   0.734  0.00  0.00    +0.003 A 
ATOM     13  C   UNL     1       2.490   1.380   0.886  0.00  0.00    +0.000 A 
ATOM     14  C   UNL     1       1.562   2.058   0.117  0.00  0.00    +0.001 A 
ATOM     15  C   UNL     1       0.793   1.371  -0.803  0.00  0.00    +0.020 A 
ATOM     16  C   UNL     1       0.953   0.005  -0.956  0.00  0.00    +0.043 A 
ATOM     17 CL   UNL     1      -0.013  -0.858  -2.111  0.00  0.00    -0.083 Cl
ENDBRANCH   5  11
BRANCH   4  18
ATOM     18  C   UNL     1       3.503  -4.345  -1.465  0.00  0.00    -0.041 A 
ATOM     19  C   UNL     1       3.092  -3.389  -2.376  0.00  0.00    +0.003 A 
ATOM     20  C   UNL     1       3.015  -3.702  -3.720  0.00  0.00    +0.000 A 
ATOM     21  C   UNL     1       3.338  -4.975  -4.153  0.00  0.00    +0.001 A 
ATOM     22  C   UNL     1       3.744  -5.933  -3.243  0.00  0.00    +0.020 A 
ATOM     23  C   UNL     1       3.827  -5.618  -1.898  0.00  0.00    +0.043 A 
ATOM     24 CL   UNL     1       4.337  -6.820  -0.755  0.00  0.00    -0.083 Cl
ENDBRANCH   4  18
BRANCH   6  25
ATOM     25  N   UNL     1       1.013  -2.531   1.830  0.00  0.00    +0.025 N 
ATOM     26  O   UNL     1       0.060  -1.995   2.366  0.00  0.00    -0.131 OA
ATOM     27  O   UNL     1       2.020  -2.770   2.473  0.00  0.00    -0.131 OA
ENDBRANCH   6  25
BRANCH   3  28
ATOM     28  N   UNL     1       2.745  -6.223   0.576  0.00  0.00    +0.025 N 
ATOM     29  O   UNL     1       2.025  -6.848  -0.182  0.00  0.00    -0.131 OA
ATOM     30  O   UNL     1       3.642  -6.792   1.171  0.00  0.00    -0.131 OA
ENDBRANCH   3  28
TORSDOF 4
