REMARK  Name = ZINC49377288
REMARK  7 active torsions:
REMARK  status: ('A' for Active; 'I' for Inactive)
REMARK    1  A    between atoms: C_1  and  C_2
REMARK    2  A    between atoms: C_4  and  C_28
REMARK    3  A    between atoms: C_6  and  N_8
REMARK    4  A    between atoms: C_9  and  C_11
REMARK    5  A    between atoms: C_11  and  N_12
REMARK    6  A    between atoms: C_15  and  C_18
REMARK    7  A    between atoms: C_21  and  C_23
REMARK                            x       y       z     vdW  Elec       q    Type
REMARK                         _______ _______ _______ _____ _____    ______ ____
ROOT
ATOM      1  N   UNL     1       0.370  -1.956   5.976  0.00  0.00    +0.385 N 
ATOM      2  C   UNL     1      -0.887  -1.206   6.084  0.00  0.00    -0.077 C 
ATOM      3  C   UNL     1      -0.770  -0.165   7.199  0.00  0.00    -0.006 C 
ATOM      4  C   UNL     1      -0.482  -0.875   8.525  0.00  0.00    +0.073 C 
ATOM      5  C   UNL     1       0.791  -1.714   8.377  0.00  0.00    -0.006 C 
ATOM      6  C   UNL     1       0.616  -2.697   7.218  0.00  0.00    -0.077 C 
ATOM      7  H   UNL     1       1.130  -1.313   5.813  0.00  0.00    -0.081 HD
ENDROOT
BRANCH   4   8
ATOM      8  C   UNL     1      -0.288   0.148   9.614  0.00  0.00    +0.221 A 
ATOM      9  N   UNL     1       0.620   1.084   9.636  0.00  0.00    -0.112 NA
ATOM     10  N   UNL     1       0.497   1.778  10.713  0.00  0.00    -0.104 NA
ATOM     11  C   UNL     1      -0.505   1.303  11.422  0.00  0.00    +0.284 A 
ATOM     12  O   UNL     1      -1.023   0.265  10.734  0.00  0.00    -0.418 OA
BRANCH  11  13
ATOM     13  C   UNL     1      -0.975   1.813  12.718  0.00  0.00    +0.191 A 
ATOM     14  C   UNL     1      -0.451   2.871  13.400  0.00  0.00    +0.055 A 
ATOM     15  C   UNL     1      -1.205   3.004  14.582  0.00  0.00    +0.042 A 
ATOM     16  C   UNL     1      -2.141   2.033  14.566  0.00  0.00    +0.196 A 
ATOM     17  O   UNL     1      -2.003   1.320  13.437  0.00  0.00    -0.458 OA
ENDBRANCH  11  13
ENDBRANCH   4   8
BRANCH   1  18
ATOM     18  C   UNL     1       0.280  -2.900   4.854  0.00  0.00    +0.019 C 
BRANCH  18  20
ATOM     19  N   UNL     1       0.052  -2.797   2.393  0.00  0.00    -0.287 N 
ATOM     20  C   UNL     1       0.150  -2.134   3.562  0.00  0.00    +0.201 C 
ATOM     21  O   UNL     1       0.134  -0.922   3.575  0.00  0.00    -0.278 OA
ATOM     22  H   UNL     1      -0.012  -3.765   2.388  0.00  0.00    +0.155 HD
BRANCH  19  28
ATOM     23  C   UNL     1      -1.512  -2.365  -2.248  0.00  0.00    +0.044 C 
ATOM     24  C   UNL     1      -0.707  -1.857  -1.080  0.00  0.00    -0.048 A 
ATOM     25  C   UNL     1       0.025  -0.690  -1.201  0.00  0.00    +0.006 A 
ATOM     26  C   UNL     1       0.765  -0.220  -0.131  0.00  0.00    -0.048 A 
ATOM     27  C   UNL     1       0.776  -0.917   1.061  0.00  0.00    +0.026 A 
ATOM     28  C   UNL     1       0.043  -2.089   1.186  0.00  0.00    +0.034 A 
ATOM     29  C   UNL     1      -0.704  -2.555   0.112  0.00  0.00    +0.026 A 
ATOM     30  C   UNL     1       1.561   1.052  -0.268  0.00  0.00    +0.044 C 
ENDBRANCH  19  28
ENDBRANCH  18  20
ENDBRANCH   1  18
TORSDOF 5
