REMARK  Name = ZINC39770775
REMARK  15 active torsions:
REMARK  status: ('A' for Active; 'I' for Inactive)
REMARK    1  A    between atoms: C_1  and  C_2
REMARK    2  A    between atoms: C_2  and  C_3
REMARK    3  A    between atoms: C_3  and  C_4
REMARK    4  A    between atoms: C_4  and  N_5
REMARK    5  A    between atoms: C_6  and  N_28
REMARK    6  A    between atoms: C_7  and  C_15
REMARK    7  A    between atoms: C_8  and  C_14
REMARK    8  A    between atoms: C_9  and  C_12
REMARK    9  A    between atoms: N_19  and  C_23
REMARK   10  A    between atoms: C_23  and  C_24
REMARK   11  A    between atoms: C_24  and  C_25
REMARK   12  A    between atoms: C_25  and  O_26
REMARK   13  A    between atoms: O_26  and  C_27
REMARK   14  A    between atoms: C_30  and  C_37
REMARK   15  A    between atoms: C_33  and  C_36
REMARK                            x       y       z     vdW  Elec       q    Type
REMARK                         _______ _______ _______ _____ _____    ______ ____
ROOT
ATOM      1  N   UNL     1      -3.289  -2.004   0.006  0.00  0.00    -0.295 N 
ATOM      2  C   UNL     1      -3.581  -2.398   1.272  0.00  0.00    +0.112 A 
ATOM      3  C   UNL     1      -4.633  -3.297   1.515  0.00  0.00    +0.019 A 
ATOM      4  C   UNL     1      -5.386  -3.787   0.434  0.00  0.00    -0.017 A 
ATOM      5  C   UNL     1      -5.067  -3.366  -0.854  0.00  0.00    +0.120 A 
ATOM      6  C   UNL     1      -3.998  -2.454  -1.044  0.00  0.00    +0.270 A 
ATOM      7  O   UNL     1      -3.717  -2.079  -2.169  0.00  0.00    -0.266 OA
ATOM      8  C   UNL     1      -6.520  -4.752   0.666  0.00  0.00    +0.046 C 
ENDROOT
BRANCH   3   9
ATOM      9  C   UNL     1      -4.943  -3.719   2.882  0.00  0.00    +0.032 C 
ATOM     10  C   UNL     1      -6.166  -3.452   3.416  0.00  0.00    +0.077 C 
ATOM     11  C   UNL     1      -7.230  -2.654   2.896  0.00  0.00    +0.258 C 
ATOM     12  O   UNL     1      -7.123  -2.088   1.823  0.00  0.00    -0.269 OA
ATOM     13  N   UNL     1      -8.334  -2.549   3.614  0.00  0.00    -0.255 N 
ATOM     14  C   UNL     1      -8.453  -3.177   4.805  0.00  0.00    +0.121 C 
ATOM     15  S   UNL     1      -9.777  -3.178   5.890  0.00  0.00    -0.027 S 
ATOM     16  S   UNL     1      -6.880  -4.011   4.957  0.00  0.00    -0.061 S 
BRANCH  13  17
ATOM     17  C   UNL     1      -9.447  -1.738   3.112  0.00  0.00    +0.117 C 
BRANCH  17  18
ATOM     18  C   UNL     1     -10.377  -2.614   2.272  0.00  0.00    +0.047 C 
BRANCH  18  19
ATOM     19  C   UNL     1     -11.539  -1.768   1.748  0.00  0.00    +0.161 C 
BRANCH  19  20
ATOM     20  O   UNL     1     -12.409  -2.587   0.962  0.00  0.00    -0.383 OA
ATOM     21  C   UNL     1     -13.533  -1.889   0.422  0.00  0.00    +0.193 C 
ENDBRANCH  19  20
ENDBRANCH  18  19
ENDBRANCH  17  18
ENDBRANCH  13  17
ENDBRANCH   3   9
BRANCH   2  22
ATOM     22  N   UNL     1      -2.846  -1.919   2.317  0.00  0.00    -0.311 N 
ATOM     23  C   UNL     1      -2.990  -0.526   2.767  0.00  0.00    +0.137 C 
ATOM     24  C   UNL     1      -3.212  -0.528   4.284  0.00  0.00    +0.133 C 
ATOM     25  O   UNL     1      -2.179  -1.295   4.910  0.00  0.00    -0.371 OA
ATOM     26  C   UNL     1      -2.163  -2.673   4.531  0.00  0.00    +0.133 C 
ATOM     27  C   UNL     1      -1.892  -2.782   3.031  0.00  0.00    +0.137 C 
ATOM     28  C   UNL     1      -1.064  -3.403   5.306  0.00  0.00    +0.039 C 
ATOM     29  C   UNL     1      -4.574  -1.149   4.600  0.00  0.00    +0.039 C 
ENDBRANCH   2  22
BRANCH   5  30
ATOM     30  C   UNL     1      -5.815  -3.847  -1.977  0.00  0.00    +0.105 C 
ATOM     31  N   UNL     1      -6.408  -4.229  -2.867  0.00  0.00    -0.191 NA
ENDBRANCH   5  30
BRANCH   1  32
ATOM     32  C   UNL     1      -2.186  -1.066  -0.219  0.00  0.00    +0.126 C 
BRANCH  32  33
ATOM     33  C   UNL     1      -2.740   0.355  -0.331  0.00  0.00    +0.021 C 
BRANCH  33  35
ATOM     34  C   UNL     1      -2.134   2.769  -0.550  0.00  0.00    +0.004 C 
ATOM     35  C   UNL     1      -1.580   1.348  -0.437  0.00  0.00    -0.002 C 
ENDBRANCH  33  35
ENDBRANCH  32  33
ENDBRANCH   1  32
TORSDOF 10
