REMARK  Name = ZINC10439478
REMARK  10 active torsions:
REMARK  status: ('A' for Active; 'I' for Inactive)
REMARK    1  A    between atoms: C_1  and  C_2
REMARK    2  A    between atoms: C_3  and  C_9
REMARK    3  A    between atoms: C_4  and  C_8
REMARK    4  A    between atoms: N_5  and  C_7
REMARK    5  A    between atoms: C_10  and  C_11
REMARK    6  A    between atoms: C_11  and  O_13
REMARK    7  A    between atoms: O_13  and  C_14
REMARK    8  A    between atoms: C_14  and  C_16
REMARK    9  A    between atoms: C_14  and  C_17
REMARK   10  A    between atoms: N_19  and  C_20
REMARK                            x       y       z     vdW  Elec       q    Type
REMARK                         _______ _______ _______ _____ _____    ______ ____
ROOT
ATOM      1  C   UNL     1      -3.773  10.168  -0.019  0.00  0.00    +0.258 C 
ATOM      2  O   UNL     1      -4.816   9.548  -0.013  0.00  0.00    -0.271 OA
ATOM      3  N   UNL     1      -2.599   9.513   0.069  0.00  0.00    -0.282 N 
ATOM      4  H   UNL     1      -1.769  10.011   0.131  0.00  0.00    +0.155 HD
ENDROOT
BRANCH   3   5
ATOM      5  C   UNL     1      -2.577   8.119   0.073  0.00  0.00    +0.034 A 
ATOM      6  C   UNL     1      -1.532   7.441  -0.544  0.00  0.00    +0.024 A 
ATOM      7  C   UNL     1      -1.500   6.061  -0.547  0.00  0.00    +0.014 A 
ATOM      8  C   UNL     1      -2.520   5.339   0.071  0.00  0.00    +0.033 A 
ATOM      9  C   UNL     1      -3.580   6.021   0.696  0.00  0.00    +0.035 A 
ATOM     10  C   UNL     1      -3.603   7.411   0.694  0.00  0.00    +0.035 A 
ATOM     11  C   UNL     1      -4.664   5.261   1.354  0.00  0.00    +0.195 C 
ATOM     12  O   UNL     1      -5.580   5.849   1.893  0.00  0.00    -0.287 OA
ATOM     13  C   UNL     1      -4.632   3.783   1.353  0.00  0.00    +0.033 A 
ATOM     14  C   UNL     1      -5.647   3.058   1.971  0.00  0.00    +0.012 A 
ATOM     15  C   UNL     1      -5.609   1.675   1.966  0.00  0.00    +0.001 A 
ATOM     16  C   UNL     1      -4.566   1.006   1.351  0.00  0.00    +0.001 A 
ATOM     17  C   UNL     1      -3.545   1.711   0.738  0.00  0.00    +0.012 A 
ATOM     18  C   UNL     1      -3.572   3.103   0.728  0.00  0.00    +0.033 A 
ATOM     19  C   UNL     1      -2.489   3.864   0.070  0.00  0.00    +0.195 C 
ATOM     20  O   UNL     1      -1.573   3.275  -0.470  0.00  0.00    -0.287 OA
ENDBRANCH   3   5
BRANCH   1  21
ATOM     21  C   UNL     1      -3.791  11.671  -0.127  0.00  0.00    +0.259 C 
ATOM     22  C   UNL     1      -3.142  12.096  -1.446  0.00  0.00    +0.062 C 
BRANCH  21  23
ATOM     23  O   UNL     1      -5.142  12.136  -0.091  0.00  0.00    -0.449 OA
BRANCH  23  24
ATOM     24  C   UNL     1      -5.356  13.360   0.435  0.00  0.00    +0.333 C 
ATOM     25  O   UNL     1      -4.419  14.015   0.852  0.00  0.00    -0.246 OA
BRANCH  24  27
ATOM     26  C   UNL     1      -6.883  15.108   1.030  0.00  0.00    +0.018 C 
ATOM     27  C   UNL     1      -6.670  13.882   0.503  0.00  0.00    +0.092 C 
BRANCH  26  30
ATOM     28  C   UNL     1      -8.961  15.219  -1.366  0.00  0.00    +0.068 C 
ATOM     29  C   UNL     1      -9.184  15.706   0.042  0.00  0.00    +0.067 A 
ATOM     30  C   UNL     1      -8.247  15.650   1.100  0.00  0.00    +0.018 A 
ATOM     31  C   UNL     1      -8.858  16.197   2.214  0.00  0.00    +0.043 A 
ATOM     32  N   UNL     1     -10.096  16.572   1.849  0.00  0.00    -0.271 N 
ATOM     33  N   UNL     1     -10.276  16.255   0.498  0.00  0.00    -0.176 NA
ATOM     34  C   UNL     1     -11.091  17.202   2.721  0.00  0.00    +0.172 C 
ATOM     35  C   UNL     1      -8.247  16.346   3.584  0.00  0.00    +0.066 C 
ENDBRANCH  26  30
ENDBRANCH  24  27
ENDBRANCH  23  24
ENDBRANCH  21  23
ENDBRANCH   1  21
TORSDOF 6
