REMARK  Name = ZINC18664140
REMARK  10 active torsions:
REMARK  status: ('A' for Active; 'I' for Inactive)
REMARK    1  A    between atoms: C_1  and  C_2
REMARK    2  A    between atoms: C_2  and  C_4
REMARK    3  A    between atoms: C_2  and  S_19
REMARK    4  A    between atoms: C_16  and  C_17
REMARK    5  A    between atoms: C_16  and  C_18
REMARK    6  A    between atoms: S_19  and  C_20
REMARK    7  A    between atoms: N_25  and  C_26
REMARK    8  A    between atoms: C_26  and  C_27
REMARK    9  A    between atoms: C_27  and  C_28
REMARK   10  A    between atoms: C_27  and  C_29
REMARK                            x       y       z     vdW  Elec       q    Type
REMARK                         _______ _______ _______ _____ _____    ______ ____
ROOT
ATOM      1  C   UNL     1       0.690  -1.098  -1.064  0.00  0.00    +0.234 C 
ATOM      2  O   UNL     1      -0.088  -1.159  -1.992  0.00  0.00    -0.274 OA
ATOM      3  N   UNL     1       2.016  -1.047  -1.300  0.00  0.00    -0.255 N 
ATOM      4  C   UNL     1       2.937  -0.980  -0.242  0.00  0.00    +0.059 A 
ATOM      5  C   UNL     1       2.603  -0.383   0.960  0.00  0.00    +0.025 A 
ATOM      6  C   UNL     1       3.534  -0.329   1.981  0.00  0.00    +0.002 A 
ATOM      7  C   UNL     1       4.795  -0.870   1.803  0.00  0.00    +0.002 A 
ATOM      8  C   UNL     1       5.135  -1.469   0.604  0.00  0.00    +0.025 A 
ATOM      9  C   UNL     1       4.208  -1.530  -0.424  0.00  0.00    +0.055 A 
ATOM     10  N   UNL     1       4.527  -2.142  -1.641  0.00  0.00    -0.282 N 
ATOM     11  C   UNL     1       3.749  -1.966  -2.725  0.00  0.00    +0.241 C 
ATOM     12  O   UNL     1       4.021  -2.542  -3.758  0.00  0.00    -0.273 OA
ATOM     13  C   UNL     1       2.545  -1.067  -2.672  0.00  0.00    +0.113 C 
ATOM     14  C   UNL     1       1.471  -1.594  -3.626  0.00  0.00    +0.042 C 
ATOM     15  C   UNL     1       2.950   0.349  -3.085  0.00  0.00    +0.042 C 
ATOM     16  H   UNL     1       5.318  -2.700  -1.704  0.00  0.00    +0.155 HD
ENDROOT
BRANCH   1  18
ATOM     17  C   UNL     1      -0.272   0.341   0.712  0.00  0.00    +0.029 C 
ATOM     18  C   UNL     1       0.175  -1.077   0.351  0.00  0.00    +0.136 C 
BRANCH  18  19
ATOM     19  S   UNL     1      -1.234  -2.210   0.498  0.00  0.00    -0.084 S 
BRANCH  19  20
ATOM     20  C   UNL     1      -1.623  -2.187   2.217  0.00  0.00    +0.161 A 
ATOM     21  N   UNL     1      -1.050  -1.512   3.194  0.00  0.00    -0.133 NA
ATOM     22  N   UNL     1      -1.517  -1.641   4.482  0.00  0.00    -0.125 NA
ATOM     23  C   UNL     1      -2.536  -2.440   4.733  0.00  0.00    +0.182 A 
ATOM     24  S   UNL     1      -2.902  -3.066   3.100  0.00  0.00    -0.025 S 
ATOM     25  N   UNL     1      -3.161  -2.716   5.943  0.00  0.00    -0.322 N 
ATOM     26  H   UNL     1      -3.908  -3.334   5.973  0.00  0.00    +0.148 HD
BRANCH  25  27
ATOM     27  C   UNL     1      -2.691  -2.075   7.173  0.00  0.00    +0.106 C 
BRANCH  27  28
ATOM     28  C   UNL     1      -3.544  -2.548   8.352  0.00  0.00    -0.000 C 
ATOM     29  C   UNL     1      -3.328  -4.047   8.570  0.00  0.00    +0.009 C 
ATOM     30  C   UNL     1      -3.136  -1.786   9.615  0.00  0.00    +0.009 C 
ENDBRANCH  27  28
ENDBRANCH  25  27
ENDBRANCH  19  20
ENDBRANCH  18  19
ENDBRANCH   1  18
TORSDOF 5
