REMARK  Name = ZINC14540836
REMARK  8 active torsions:
REMARK  status: ('A' for Active; 'I' for Inactive)
REMARK    1  A    between atoms: C_1  and  C_2
REMARK    2  A    between atoms: C_2  and  N_3
REMARK    3  A    between atoms: N_6  and  C_28
REMARK    4  A    between atoms: C_14  and  C_15
REMARK    5  A    between atoms: C_14  and  N_71
REMARK    6  A    between atoms: C_15  and  C_17
REMARK    7  A    between atoms: C_15  and  C_18
REMARK    8  A    between atoms: C_18  and  C_19
REMARK                            x       y       z     vdW  Elec       q    Type
REMARK                         _______ _______ _______ _____ _____    ______ ____
ROOT
ATOM      1  N   UNL     1       6.061   2.737  -2.233  0.00  0.00    -0.271 N 
ATOM      2  C   UNL     1       4.776   2.795  -1.833  0.00  0.00    +0.312 C 
ATOM      3  O   UNL     1       3.829   2.674  -2.584  0.00  0.00    -0.252 OA
ATOM      4  N   UNL     1       4.660   3.001  -0.515  0.00  0.00    -0.220 N 
ATOM      5  C   UNL     1       5.867   3.103   0.080  0.00  0.00    +0.247 C 
ATOM      6  O   UNL     1       6.092   3.292   1.256  0.00  0.00    -0.273 OA
ATOM      7  C   UNL     1       6.879   2.928  -1.029  0.00  0.00    +0.112 C 
ATOM      8  C   UNL     1       7.742   4.179  -1.160  0.00  0.00    +0.017 C 
ATOM      9  C   UNL     1       8.774   3.967  -2.271  0.00  0.00    -0.076 C 
ATOM     10  C   UNL     1       8.783   1.572  -1.897  0.00  0.00    -0.076 C 
ATOM     11  C   UNL     1       7.750   1.702  -0.773  0.00  0.00    +0.017 C 
ATOM     12  N   UNL     1       9.611   2.797  -1.930  0.00  0.00    +0.380 N 
ATOM     13  H   UNL     1      10.026   2.943  -1.003  0.00  0.00    -0.082 HD
ENDROOT
BRANCH   4  14
ATOM     14  C   UNL     1       3.382   3.107   0.192  0.00  0.00    +0.094 C 
ATOM     15  C   UNL     1       2.482   1.891  -0.114  0.00  0.00    +0.058 C 
ATOM     16  C   UNL     1       1.072   2.440  -0.150  0.00  0.00    -0.042 A 
ATOM     17  C   UNL     1      -0.147   1.788  -0.066  0.00  0.00    +0.004 A 
ATOM     18  C   UNL     1      -1.325   2.507  -0.128  0.00  0.00    +0.000 A 
ATOM     19  C   UNL     1      -1.288   3.882  -0.263  0.00  0.00    +0.000 A 
ATOM     20  C   UNL     1      -0.073   4.534  -0.347  0.00  0.00    +0.004 A 
ATOM     21  C   UNL     1       1.109   3.814  -0.290  0.00  0.00    -0.042 A 
ATOM     22  C   UNL     1       2.547   4.283  -0.358  0.00  0.00    +0.058 C 
ENDBRANCH   4  14
BRANCH   1  24
ATOM     23  C   UNL     1       6.178   1.115  -4.059  0.00  0.00    +0.024 C 
ATOM     24  C   UNL     1       6.547   2.526  -3.599  0.00  0.00    +0.107 C 
ENDBRANCH   1  24
BRANCH  12  25
ATOM     25  C   UNL     1      10.695   2.645  -2.923  0.00  0.00    -0.075 C 
BRANCH  25  26
ATOM     26  C   UNL     1      11.741   3.733  -2.675  0.00  0.00    -0.026 C 
ATOM     27  C   UNL     1      12.838   3.638  -3.737  0.00  0.00    +0.006 C 
BRANCH  26  28
ATOM     28  C   UNL     1      12.357   3.541  -1.287  0.00  0.00    +0.036 C 
BRANCH  28  29
ATOM     29  C   UNL     1      13.298   4.682  -0.993  0.00  0.00    -0.043 A 
ATOM     30  C   UNL     1      12.825   5.823  -0.372  0.00  0.00    +0.007 A 
ATOM     31  C   UNL     1      13.684   6.871  -0.100  0.00  0.00    +0.050 A 
ATOM     32  C   UNL     1      15.021   6.781  -0.450  0.00  0.00    +0.166 A 
ATOM     33  C   UNL     1      15.498   5.632  -1.076  0.00  0.00    +0.166 A 
ATOM     34  C   UNL     1      14.632   4.582  -1.340  0.00  0.00    +0.053 A 
ATOM     35  O   UNL     1      16.832   5.786  -1.315  0.00  0.00    -0.453 OA
ATOM     36  C   UNL     1      17.253   6.869  -0.464  0.00  0.00    +0.466 C 
ATOM     37  O   UNL     1      16.058   7.656  -0.296  0.00  0.00    -0.453 OA
ENDBRANCH  28  29
ENDBRANCH  26  28
ENDBRANCH  25  26
ENDBRANCH  12  25
TORSDOF 6
