REMARK  Name = ZINC63873788
REMARK  7 active torsions:
REMARK  status: ('A' for Active; 'I' for Inactive)
REMARK    1  A    between atoms: C_1  and  C_2
REMARK    2  A    between atoms: C_2  and  C_4
REMARK    3  A    between atoms: C_2  and  N_16
REMARK    4  A    between atoms: N_6  and  C_7
REMARK    5  A    between atoms: C_11  and  N_13
REMARK    6  A    between atoms: C_19  and  C_24
REMARK    7  A    between atoms: C_24  and  C_25
REMARK                            x       y       z     vdW  Elec       q    Type
REMARK                         _______ _______ _______ _____ _____    ______ ____
ROOT
ATOM      1  N   UNL     1       0.709  -0.491   1.189  0.00  0.00    -0.213 N 
ATOM      2  C   UNL     1       0.162  -1.292   2.126  0.00  0.00    +0.244 C 
ATOM      3  O   UNL     1      -0.967  -1.732   2.144  0.00  0.00    -0.273 OA
ATOM      4  C   UNL     1       1.254  -1.528   3.150  0.00  0.00    +0.165 C 
ATOM      5  N   UNL     1       2.396  -0.761   2.623  0.00  0.00    -0.287 N 
ATOM      6  C   UNL     1       1.982  -0.196   1.474  0.00  0.00    +0.310 C 
ATOM      7  O   UNL     1       2.686   0.506   0.775  0.00  0.00    -0.252 OA
ATOM      8  H   UNL     1       3.275  -0.682   3.024  0.00  0.00    +0.151 HD
ENDROOT
BRANCH   1  10
ATOM      9  C   UNL     1      -0.033   1.520   0.013  0.00  0.00    +0.038 C 
ATOM     10  C   UNL     1      -0.002  -0.009   0.002  0.00  0.00    +0.168 C 
BRANCH  10  11
ATOM     11  C   UNL     1       0.708  -0.488  -1.238  0.00  0.00    +0.238 C 
ATOM     12  O   UNL     1       1.710  -1.166  -1.140  0.00  0.00    -0.273 OA
ATOM     13  N   UNL     1       0.231  -0.164  -2.456  0.00  0.00    -0.284 N 
ATOM     14  H   UNL     1      -0.606   0.320  -2.535  0.00  0.00    +0.155 HD
BRANCH  13  15
ATOM     15  C   UNL     1       0.942  -0.526  -3.605  0.00  0.00    +0.036 A 
ATOM     16  C   UNL     1       0.954   0.315  -4.710  0.00  0.00    +0.023 A 
ATOM     17  C   UNL     1       1.657  -0.045  -5.843  0.00  0.00    +0.004 A 
ATOM     18  C   UNL     1       2.349  -1.242  -5.878  0.00  0.00    +0.033 A 
ATOM     19  C   UNL     1       2.339  -2.082  -4.780  0.00  0.00    +0.128 A 
ATOM     20  C   UNL     1       1.643  -1.724  -3.641  0.00  0.00    +0.056 A 
BRANCH  19  21
ATOM     21  N   UNL     1       3.080  -3.362  -4.822  0.00  0.00    +0.056 N 
ATOM     22  O   UNL     1       3.693  -3.673  -5.816  0.00  0.00    -0.126 OA
ATOM     23  O   UNL     1       3.071  -4.097  -3.862  0.00  0.00    -0.126 OA
ENDBRANCH  19  21
ENDBRANCH  13  15
ENDBRANCH  10  11
ENDBRANCH   1  10
BRANCH   4  24
ATOM     24  C   UNL     1       0.830  -0.995   4.521  0.00  0.00    +0.065 C 
BRANCH  24  25
ATOM     25  C   UNL     1       1.878  -1.351   5.544  0.00  0.00    -0.039 C 
ATOM     26  C   UNL     1       2.901  -0.573   5.965  0.00  0.00    -0.001 A 
ATOM     27  C   UNL     1       3.329   0.786   5.609  0.00  0.00    +0.010 A 
ATOM     28  C   UNL     1       4.419   1.310   6.214  0.00  0.00    +0.001 A 
ATOM     29  C   UNL     1       5.149   0.590   7.170  0.00  0.00    +0.002 A 
ATOM     30  C   UNL     1       4.818  -0.663   7.548  0.00  0.00    +0.026 A 
ATOM     31  C   UNL     1       3.688  -1.312   6.977  0.00  0.00    +0.043 A 
ATOM     32  N   UNL     1       3.172  -2.501   7.174  0.00  0.00    -0.380 N 
ATOM     33  C   UNL     1       1.994  -2.648   6.313  0.00  0.00    +0.144 C 
ATOM     34  H   UNL     1       3.510  -3.170   7.790  0.00  0.00    +0.160 HD
ENDBRANCH  24  25
ENDBRANCH   4  24
TORSDOF 6
