REMARK  Name = ZINC58864621
REMARK  7 active torsions:
REMARK  status: ('A' for Active; 'I' for Inactive)
REMARK    1  A    between atoms: C_1  and  C_2
REMARK    2  A    between atoms: C_7  and  N_8
REMARK    3  A    between atoms: N_11  and  N_12
REMARK    4  A    between atoms: C_13  and  C_15
REMARK    5  A    between atoms: C_16  and  C_17
REMARK    6  A    between atoms: C_18  and  C_24
REMARK    7  A    between atoms: N_20  and  C_23
REMARK                            x       y       z     vdW  Elec       q    Type
REMARK                         _______ _______ _______ _____ _____    ______ ____
ROOT
ATOM      1  N   UNL     1      -0.173   1.375   4.750  0.00  0.00    -0.230 N 
ATOM      2  C   UNL     1      -0.272   2.043   5.917  0.00  0.00    +0.253 C 
ATOM      3  O   UNL     1      -0.346   1.429   6.965  0.00  0.00    -0.269 OA
ATOM      4  H   UNL     1      -0.115   1.864   3.915  0.00  0.00    +0.173 HD
ENDROOT
BRANCH   1   8
ATOM      5  N   UNL     1       0.026  -0.015   2.417  0.00  0.00    -0.268 N 
ATOM      6  C   UNL     1      -0.056  -0.694   3.578  0.00  0.00    +0.320 C 
ATOM      7  O   UNL     1      -0.040  -1.910   3.573  0.00  0.00    -0.251 OA
ATOM      8  N   UNL     1      -0.155  -0.026   4.745  0.00  0.00    -0.218 N 
ATOM      9  H   UNL     1       0.079   0.954   2.425  0.00  0.00    +0.156 HD
ATOM     10  H   UNL     1      -0.214  -0.515   5.580  0.00  0.00    +0.174 HD
BRANCH   5  17
ATOM     11  C   UNL     1      -1.264   1.184   0.182  0.00  0.00    +0.045 C 
ATOM     12  C   UNL     1      -0.584  -0.157   0.085  0.00  0.00    -0.029 A 
ATOM     13  C   UNL     1      -0.570  -0.840  -1.117  0.00  0.00    +0.005 A 
ATOM     14  C   UNL     1       0.054  -2.070  -1.206  0.00  0.00    +0.000 A 
ATOM     15  C   UNL     1       0.665  -2.622  -0.095  0.00  0.00    +0.002 A 
ATOM     16  C   UNL     1       0.654  -1.945   1.108  0.00  0.00    +0.023 A 
ATOM     17  C   UNL     1       0.033  -0.706   1.200  0.00  0.00    +0.038 A 
ENDBRANCH   5  17
ENDBRANCH   1   8
BRANCH   2  18
ATOM     18  C   UNL     1      -0.291   3.460   5.922  0.00  0.00    +0.069 C 
ATOM     19  C   UNL     1      -0.390   4.130   7.092  0.00  0.00    +0.018 C 
BRANCH  19  20
ATOM     20  C   UNL     1      -0.409   5.598   7.098  0.00  0.00    +0.034 A 
ATOM     21  C   UNL     1      -1.343   6.424   7.767  0.00  0.00    +0.069 A 
ATOM     22  N   UNL     1      -1.025   7.666   7.532  0.00  0.00    -0.175 NA
ATOM     23  N   UNL     1       0.109   7.700   6.713  0.00  0.00    -0.255 N 
ATOM     24  C   UNL     1       0.486   6.435   6.454  0.00  0.00    +0.134 A 
ATOM     25 CL   UNL     1       1.842   5.944   5.487  0.00  0.00    -0.062 Cl
ATOM     26  C   UNL     1       0.777   8.909   6.224  0.00  0.00    +0.174 C 
ATOM     27  C   UNL     1      -2.502   5.950   8.606  0.00  0.00    +0.068 C 
ENDBRANCH  19  20
ENDBRANCH   2  18
TORSDOF 4
