REMARK  Name = ZINC03012220
REMARK  7 active torsions:
REMARK  status: ('A' for Active; 'I' for Inactive)
REMARK    1  A    between atoms: C_1  and  C_2
REMARK    2  A    between atoms: C_2  and  O_3
REMARK    3  A    between atoms: O_3  and  C_4
REMARK    4  A    between atoms: C_9  and  N_12
REMARK    5  A    between atoms: C_13  and  C_15
REMARK    6  A    between atoms: C_20  and  C_35
REMARK    7  A    between atoms: C_23  and  C_26
REMARK                            x       y       z     vdW  Elec       q    Type
REMARK                         _______ _______ _______ _____ _____    ______ ____
ROOT
ATOM      1  C   UNL     1      -7.761  -5.243  -3.092  0.00  0.00    +0.149 A 
ATOM      2  C   UNL     1      -8.655  -6.337  -3.083  0.00  0.00    +0.078 A 
ATOM      3  C   UNL     1      -9.299  -6.346  -4.267  0.00  0.00    +0.119 A 
ATOM      4  N   UNL     1      -8.838  -5.296  -5.010  0.00  0.00    -0.238 N 
ATOM      5  N   UNL     1      -7.882  -4.622  -4.252  0.00  0.00    -0.164 NA
ATOM      6  C   UNL     1      -9.315  -4.985  -6.360  0.00  0.00    +0.215 C 
ATOM      7  C   UNL     1     -10.670  -5.669  -6.578  0.00  0.00    +0.063 C 
ATOM      8  C   UNL     1     -10.578  -7.147  -6.183  0.00  0.00    +0.104 C 
ATOM      9  N   UNL     1     -10.274  -7.229  -4.741  0.00  0.00    -0.322 N 
ATOM     10  H   UNL     1     -10.725  -7.858  -4.156  0.00  0.00    +0.148 HD
ENDROOT
BRANCH   8  11
ATOM     11  C   UNL     1      -9.483  -7.815  -6.974  0.00  0.00    -0.024 A 
ATOM     12  C   UNL     1      -8.164  -7.671  -6.583  0.00  0.00    +0.009 A 
ATOM     13  C   UNL     1      -7.156  -8.282  -7.305  0.00  0.00    +0.050 A 
ATOM     14  C   UNL     1      -7.465  -9.041  -8.422  0.00  0.00    +0.166 A 
ATOM     15  C   UNL     1      -8.793  -9.186  -8.816  0.00  0.00    +0.167 A 
ATOM     16  C   UNL     1      -9.799  -8.575  -8.084  0.00  0.00    +0.055 A 
ATOM     17  O   UNL     1      -8.835  -9.970  -9.932  0.00  0.00    -0.453 OA
ATOM     18  C   UNL     1      -7.493  -9.967 -10.454  0.00  0.00    +0.466 C 
ATOM     19  O   UNL     1      -6.675  -9.735  -9.293  0.00  0.00    -0.453 OA
ENDBRANCH   8  11
BRANCH   1  21
ATOM     20  N   UNL     1      -6.050  -3.783  -2.128  0.00  0.00    -0.307 N 
ATOM     21  C   UNL     1      -6.852  -4.857  -1.993  0.00  0.00    +0.264 C 
ATOM     22  O   UNL     1      -6.828  -5.509  -0.967  0.00  0.00    -0.268 OA
ATOM     23  H   UNL     1      -6.069  -3.263  -2.947  0.00  0.00    +0.149 HD
BRANCH  20  29
ATOM     24  C   UNL     1      -1.497  -1.836   0.006  0.00  0.00    +0.403 C 
ATOM     25  O   UNL     1      -0.523  -2.563  -0.007  0.00  0.00    -0.226 OA
ATOM     26  N   UNL     1      -2.735  -2.368   0.015  0.00  0.00    -0.267 N 
ATOM     27  C   UNL     1      -3.922  -1.502   0.025  0.00  0.00    +0.113 C 
ATOM     28  C   UNL     1      -4.836  -1.905  -1.136  0.00  0.00    +0.041 C 
ATOM     29  C   UNL     1      -5.149  -3.400  -1.038  0.00  0.00    +0.076 C 
ATOM     30  C   UNL     1      -3.849  -4.202  -1.145  0.00  0.00    +0.041 C 
ATOM     31  C   UNL     1      -2.924  -3.825   0.009  0.00  0.00    +0.113 C 
BRANCH  24  32
ATOM     32  O   UNL     1      -1.339  -0.499   0.012  0.00  0.00    -0.451 OA
BRANCH  32  34
ATOM     33  C   UNL     1      -0.019   1.526   0.010  0.00  0.00    +0.048 C 
ATOM     34  C   UNL     1       0.002  -0.004   0.002  0.00  0.00    +0.230 C 
ENDBRANCH  32  34
ENDBRANCH  24  32
ENDBRANCH  20  29
ENDBRANCH   1  21
BRANCH   6  35
ATOM     35  C   UNL     1      -9.473  -3.470  -6.511  0.00  0.00    +0.412 C 
ATOM     36  F   UNL     1      -8.237  -2.849  -6.300  0.00  0.00    -0.168 F 
ATOM     37  F   UNL     1      -9.928  -3.175  -7.801  0.00  0.00    -0.168 F 
ATOM     38  F   UNL     1     -10.398  -3.002  -5.572  0.00  0.00    -0.168 F 
ENDBRANCH   6  35
TORSDOF 6
