REMARK  Name = ZINC01248672
REMARK  7 active torsions:
REMARK  status: ('A' for Active; 'I' for Inactive)
REMARK    1  A    between atoms: C_1  and  C_2
REMARK    2  A    between atoms: C_7  and  N_8
REMARK    3  A    between atoms: C_17  and  S_18
REMARK    4  A    between atoms: S_18  and  C_19
REMARK    5  A    between atoms: C_19  and  C_20
REMARK    6  A    between atoms: C_20  and  C_22
REMARK    7  A    between atoms: C_32  and  N_55
REMARK                            x       y       z     vdW  Elec       q    Type
REMARK                         _______ _______ _______ _____ _____    ______ ____
ROOT
ATOM      1  N   UNL     1      -2.429   1.040   0.019  0.00  0.00    -0.255 N 
ATOM      2  C   UNL     1      -2.991   0.696   1.193  0.00  0.00    +0.268 A 
ATOM      3  O   UNL     1      -2.459   1.004   2.246  0.00  0.00    -0.267 OA
ATOM      4  C   UNL     1      -4.222  -0.033   1.188  0.00  0.00    +0.076 A 
ATOM      5  C   UNL     1      -5.003  -0.505   2.331  0.00  0.00    -0.026 A 
ATOM      6  C   UNL     1      -6.141  -1.179   2.061  0.00  0.00    -0.021 A 
ATOM      7  S   UNL     1      -6.242  -1.222   0.294  0.00  0.00    -0.075 S 
ATOM      8  C   UNL     1      -4.750  -0.335  -0.080  0.00  0.00    +0.117 A 
ATOM      9  N   UNL     1      -4.145   0.032  -1.203  0.00  0.00    -0.215 NA
ATOM     10  C   UNL     1      -3.014   0.709  -1.171  0.00  0.00    +0.178 A 
ATOM     11  C   UNL     1      -7.096  -1.756   3.061  0.00  0.00    -0.036 C 
ATOM     12  C   UNL     1      -5.810  -0.486   4.672  0.00  0.00    -0.074 C 
ATOM     13  C   UNL     1      -4.585  -0.267   3.780  0.00  0.00    +0.018 C 
ATOM     14  C   UNL     1      -7.363  -2.182   5.434  0.00  0.00    -0.096 C 
ATOM     15  N   UNL     1      -6.405  -1.804   4.372  0.00  0.00    +0.381 N 
ATOM     16  H   UNL     1      -5.658  -2.507   4.331  0.00  0.00    -0.082 HD
ENDROOT
BRANCH   1  23
ATOM     17  C   UNL     1      -2.551   3.883   0.047  0.00  0.00    +0.046 C 
ATOM     18  C   UNL     1      -1.239   3.143   0.030  0.00  0.00    -0.026 A 
ATOM     19  C   UNL     1      -0.049   3.845   0.022  0.00  0.00    +0.005 A 
ATOM     20  C   UNL     1       1.155   3.166   0.007  0.00  0.00    +0.000 A 
ATOM     21  C   UNL     1       1.173   1.783   0.000  0.00  0.00    +0.002 A 
ATOM     22  C   UNL     1      -0.013   1.076   0.008  0.00  0.00    +0.026 A 
ATOM     23  C   UNL     1      -1.224   1.754   0.017  0.00  0.00    +0.055 A 
ENDBRANCH   1  23
BRANCH  10  24
ATOM     24  S   UNL     1      -2.244   1.187  -2.682  0.00  0.00    -0.079 S 
BRANCH  24  25
ATOM     25  C   UNL     1      -3.426   0.502  -3.868  0.00  0.00    +0.157 C 
BRANCH  25  26
ATOM     26  C   UNL     1      -2.960   0.798  -5.270  0.00  0.00    +0.173 C 
ATOM     27  O   UNL     1      -1.930   1.411  -5.450  0.00  0.00    -0.291 OA
BRANCH  26  28
ATOM     28  C   UNL     1      -3.755   0.342  -6.421  0.00  0.00    +0.018 A 
ATOM     29  C   UNL     1      -4.941  -0.371  -6.218  0.00  0.00    +0.013 A 
ATOM     30  C   UNL     1      -5.683  -0.790  -7.301  0.00  0.00    +0.020 A 
ATOM     31  C   UNL     1      -5.251  -0.516  -8.589  0.00  0.00    +0.041 A 
ATOM     32  C   UNL     1      -4.074   0.185  -8.798  0.00  0.00    +0.020 A 
ATOM     33  C   UNL     1      -3.325   0.615  -7.724  0.00  0.00    +0.013 A 
ATOM     34 CL   UNL     1      -6.189  -1.054  -9.948  0.00  0.00    -0.084 Cl
ENDBRANCH  26  28
ENDBRANCH  25  26
ENDBRANCH  24  25
ENDBRANCH  10  24
TORSDOF 5
