REMARK  Name = ZINC63731679
REMARK  7 active torsions:
REMARK  status: ('A' for Active; 'I' for Inactive)
REMARK    1  A    between atoms: C_1  and  C_2
REMARK    2  A    between atoms: C_2  and  O_3
REMARK    3  A    between atoms: O_3  and  C_4
REMARK    4  A    between atoms: C_9  and  S_14
REMARK    5  A    between atoms: S_14  and  C_15
REMARK    6  A    between atoms: C_15  and  C_16
REMARK    7  A    between atoms: C_25  and  O_27
REMARK                            x       y       z     vdW  Elec       q    Type
REMARK                         _______ _______ _______ _____ _____    ______ ____
ROOT
ATOM      1  S   UNL     1      -4.182  -6.797  -1.493  0.00  0.00    -0.110 S 
ENDROOT
BRANCH   1   7
ATOM      2  C   UNL     1      -1.498  -1.845   0.006  0.00  0.00    +0.123 A 
ATOM      3  C   UNL     1      -0.317  -2.699  -0.004  0.00  0.00    +0.048 A 
ATOM      4  C   UNL     1      -0.409  -4.042  -0.010  0.00  0.00    +0.031 A 
ATOM      5  C   UNL     1      -1.733  -4.683  -0.006  0.00  0.00    +0.061 A 
ATOM      6  N   UNL     1      -2.101  -5.931  -0.012  0.00  0.00    -0.355 N 
ATOM      7  C   UNL     1      -3.568  -5.960  -0.005  0.00  0.00    +0.236 C 
ATOM      8  N   UNL     1      -4.010  -4.560   0.005  0.00  0.00    -0.355 N 
ATOM      9  C   UNL     1      -2.940  -3.813   0.004  0.00  0.00    +0.064 A 
ATOM     10  C   UNL     1      -2.752  -2.361   0.016  0.00  0.00    +0.073 A 
ATOM     11  H   UNL     1      -1.513  -6.702  -0.019  0.00  0.00    +0.162 HD
ATOM     12  H   UNL     1      -4.929  -4.248   0.011  0.00  0.00    +0.162 HD
BRANCH   2  13
ATOM     13  O   UNL     1      -1.339  -0.499   0.012  0.00  0.00    -0.492 OA
BRANCH  13  15
ATOM     14  C   UNL     1      -0.019   1.526   0.010  0.00  0.00    +0.048 C 
ATOM     15  C   UNL     1       0.002  -0.004   0.002  0.00  0.00    +0.225 C 
ENDBRANCH  13  15
ENDBRANCH   2  13
ENDBRANCH   1   7
BRANCH   1  16
ATOM     16  C   UNL     1      -3.495  -5.822  -2.860  0.00  0.00    +0.109 C 
BRANCH  16  17
ATOM     17  C   UNL     1      -3.934  -6.418  -4.172  0.00  0.00    -0.020 A 
ATOM     18  C   UNL     1      -4.896  -5.821  -4.923  0.00  0.00    +0.097 A 
ATOM     19  C   UNL     1      -5.289  -6.398  -6.148  0.00  0.00    +0.338 A 
ATOM     20  O   UNL     1      -6.152  -5.853  -6.811  0.00  0.00    -0.245 OA
ATOM     21  O   UNL     1      -4.736  -7.534  -6.602  0.00  0.00    -0.422 OA
ATOM     22  C   UNL     1      -3.775  -8.178  -5.905  0.00  0.00    +0.143 A 
ATOM     23  C   UNL     1      -3.330  -7.654  -4.676  0.00  0.00    +0.022 A 
ATOM     24  C   UNL     1      -2.331  -8.315  -3.953  0.00  0.00    +0.015 A 
ATOM     25  C   UNL     1      -1.786  -9.465  -4.446  0.00  0.00    +0.046 A 
ATOM     26  C   UNL     1      -2.218  -9.986  -5.664  0.00  0.00    +0.120 A 
ATOM     27  C   UNL     1      -3.214  -9.350  -6.388  0.00  0.00    +0.092 A 
BRANCH  26  28
ATOM     28  O   UNL     1      -1.666 -11.130  -6.141  0.00  0.00    -0.507 OA
ATOM     29  H   UNL     1      -2.122 -11.935  -5.859  0.00  0.00    +0.292 HD
ENDBRANCH  26  28
ENDBRANCH  16  17
ENDBRANCH   1  16
TORSDOF 6
