REMARK  Name = ZINC35758701
REMARK  7 active torsions:
REMARK  status: ('A' for Active; 'I' for Inactive)
REMARK    1  A    between atoms: C_1  and  C_2
REMARK    2  A    between atoms: C_2  and  N_3
REMARK    3  A    between atoms: N_14  and  C_23
REMARK    4  A    between atoms: N_16  and  C_17
REMARK    5  A    between atoms: C_23  and  C_24
REMARK    6  A    between atoms: N_26  and  C_27
REMARK    7  A    between atoms: C_27  and  C_28
REMARK                            x       y       z     vdW  Elec       q    Type
REMARK                         _______ _______ _______ _____ _____    ______ ____
ROOT
ATOM      1  N   UNL     1      -1.864   0.156   0.099  0.00  0.00    -0.300 N 
ATOM      2  C   UNL     1      -1.901  -1.188   0.005  0.00  0.00    +0.302 C 
ATOM      3  O   UNL     1      -0.874  -1.812  -0.180  0.00  0.00    -0.253 OA
ATOM      4  N   UNL     1      -3.075  -1.839   0.117  0.00  0.00    -0.285 N 
ATOM      5  C   UNL     1      -4.337  -1.095   0.221  0.00  0.00    +0.112 C 
ATOM      6  C   UNL     1      -5.295  -1.594  -0.866  0.00  0.00    +0.054 C 
ATOM      7  C   UNL     1      -5.442  -3.112  -0.752  0.00  0.00    +0.115 C 
ATOM      8  C   UNL     1      -4.086  -3.788  -0.948  0.00  0.00    +0.054 C 
ATOM      9  C   UNL     1      -3.118  -3.308   0.132  0.00  0.00    +0.112 C 
ATOM     10  C   UNL     1      -6.423  -3.614  -1.779  0.00  0.00    +0.241 C 
ATOM     11  O   UNL     1      -6.302  -3.503  -2.981  0.00  0.00    -0.273 OA
ATOM     12  N   UNL     1      -7.453  -4.205  -1.151  0.00  0.00    -0.275 N 
ATOM     13  C   UNL     1      -7.260  -4.153   0.298  0.00  0.00    +0.217 C 
ATOM     14  N   UNL     1      -5.991  -3.464   0.563  0.00  0.00    -0.300 N 
ATOM     15  H   UNL     1      -2.690   0.660   0.175  0.00  0.00    +0.150 HD
ENDROOT
BRANCH  14  16
ATOM     16  C   UNL     1      -5.423  -3.198   1.811  0.00  0.00    +0.032 A 
ATOM     17  C   UNL     1      -4.169  -2.606   1.893  0.00  0.00    +0.023 A 
ATOM     18  C   UNL     1      -3.610  -2.345   3.128  0.00  0.00    +0.002 A 
ATOM     19  C   UNL     1      -4.297  -2.671   4.283  0.00  0.00    +0.000 A 
ATOM     20  C   UNL     1      -5.545  -3.260   4.205  0.00  0.00    +0.002 A 
ATOM     21  C   UNL     1      -6.113  -3.519   2.973  0.00  0.00    +0.023 A 
ENDBRANCH  14  16
BRANCH   1  23
ATOM     22  C   UNL     1      -0.816   2.364   0.206  0.00  0.00    +0.024 C 
ATOM     23  C   UNL     1      -0.577   0.857   0.087  0.00  0.00    +0.102 C 
ENDBRANCH   1  23
BRANCH  12  24
ATOM     24  C   UNL     1      -8.605  -4.814  -1.821  0.00  0.00    +0.205 C 
BRANCH  24  25
ATOM     25  C   UNL     1      -8.315  -6.267  -2.098  0.00  0.00    +0.231 C 
ATOM     26  O   UNL     1      -7.251  -6.746  -1.767  0.00  0.00    -0.274 OA
ATOM     27  N   UNL     1      -9.237  -7.033  -2.712  0.00  0.00    -0.310 N 
ATOM     28  H   UNL     1     -10.088  -6.650  -2.976  0.00  0.00    +0.149 HD
BRANCH  27  29
ATOM     29  C   UNL     1      -8.955  -8.446  -2.981  0.00  0.00    +0.139 C 
BRANCH  29  30
ATOM     30  C   UNL     1     -10.140  -9.072  -3.670  0.00  0.00    -0.030 A 
ATOM     31  C   UNL     1     -11.149  -9.649  -2.922  0.00  0.00    +0.008 A 
ATOM     32  C   UNL     1     -12.236 -10.224  -3.553  0.00  0.00    +0.038 A 
ATOM     33  C   UNL     1     -12.314 -10.221  -4.935  0.00  0.00    +0.123 A 
ATOM     34  C   UNL     1     -11.303  -9.643  -5.684  0.00  0.00    +0.038 A 
ATOM     35  C   UNL     1     -10.219  -9.064  -5.050  0.00  0.00    +0.008 A 
ATOM     36  F   UNL     1     -13.376 -10.783  -5.553  0.00  0.00    -0.205 F 
ENDBRANCH  29  30
ENDBRANCH  27  29
ENDBRANCH  24  25
ENDBRANCH  12  24
TORSDOF 6
