REMARK  Name = ZINC64066881
REMARK  6 active torsions:
REMARK  status: ('A' for Active; 'I' for Inactive)
REMARK    1  A    between atoms: C_1  and  N_2
REMARK    2  A    between atoms: N_2  and  C_3
REMARK    3  A    between atoms: C_3  and  C_4
REMARK    4  A    between atoms: C_15  and  C_17
REMARK    5  A    between atoms: C_17  and  O_18
REMARK    6  A    between atoms: O_18  and  C_19
REMARK                            x       y       z     vdW  Elec       q    Type
REMARK                         _______ _______ _______ _____ _____    ______ ____
ROOT
ATOM      1  C   UNL     1      -0.041  -0.333  -4.826  0.00  0.00    +0.235 A 
ATOM      2  C   UNL     1      -0.022  -1.175  -5.936  0.00  0.00    +0.072 A 
ATOM      3  C   UNL     1      -0.041  -0.593  -7.192  0.00  0.00    +0.051 A 
ATOM      4  C   UNL     1      -0.078   0.800  -7.267  0.00  0.00    +0.144 A 
ATOM      5  N   UNL     1      -0.094   1.518  -6.156  0.00  0.00    -0.131 NA
ATOM      6  N   UNL     1      -0.081   0.977  -4.993  0.00  0.00    -0.110 NA
ATOM      7  N   UNL     1      -0.098   1.432  -8.508  0.00  0.00    -0.311 N 
ATOM      8  C   UNL     1      -0.137   2.898  -8.600  0.00  0.00    +0.125 C 
ATOM      9  C   UNL     1       1.043   3.367  -9.461  0.00  0.00    +0.125 C 
ATOM     10  N   UNL     1       1.061   2.580 -10.702  0.00  0.00    -0.314 N 
ATOM     11  C   UNL     1       1.100   1.113 -10.610  0.00  0.00    +0.125 C 
ATOM     12  C   UNL     1      -0.075   0.645  -9.749  0.00  0.00    +0.125 C 
ATOM     13  C   UNL     1       1.041   3.211 -11.940  0.00  0.00    +0.099 A 
ATOM     14  C   UNL     1       1.144   4.597 -12.009  0.00  0.00    +0.042 A 
ATOM     15  C   UNL     1       1.123   5.211 -13.248  0.00  0.00    +0.005 A 
ATOM     16  C   UNL     1       0.999   4.417 -14.380  0.00  0.00    +0.018 A 
ATOM     17  C   UNL     1       0.902   3.047 -14.238  0.00  0.00    +0.084 A 
ATOM     18  N   UNL     1       0.930   2.487 -13.043  0.00  0.00    -0.350 N 
ATOM     19  H   UNL     1       0.864   1.522 -12.972  0.00  0.00    +0.166 HD
ENDROOT
BRANCH   1  20
ATOM     20  O   UNL     1      -0.024  -0.859  -3.574  0.00  0.00    -0.466 OA
BRANCH  20  21
ATOM     21  C   UNL     1      -0.051   0.063  -2.482  0.00  0.00    +0.326 C 
BRANCH  21  24
ATOM     22  C   UNL     1      -0.091   1.434  -0.002  0.00  0.00    +0.132 C 
ATOM     23  N   UNL     1      -0.046  -0.030  -0.011  0.00  0.00    -0.299 N 
ATOM     24  C   UNL     1      -0.027  -0.697  -1.181  0.00  0.00    +0.253 C 
ATOM     25  O   UNL     1       0.010  -1.909  -1.188  0.00  0.00    -0.272 OA
BRANCH  23  26
ATOM     26  C   UNL     1      -0.022  -0.769   1.254  0.00  0.00    +0.136 C 
BRANCH  26  27
ATOM     27  C   UNL     1      -1.456  -1.071   1.696  0.00  0.00    +0.120 C 
ATOM     28  C   UNL     1      -1.459  -1.671   3.084  0.00  0.00    +0.009 C 
ATOM     29  C   UNL     1      -2.170  -0.820   3.858  0.00  0.00    -0.001 A 
ATOM     30  C   UNL     1      -2.531  -0.837   5.281  0.00  0.00    +0.048 A 
ATOM     31  C   UNL     1      -3.272   0.180   5.782  0.00  0.00    +0.124 A 
ATOM     32  C   UNL     1      -3.701   1.246   4.977  0.00  0.00    +0.040 A 
ATOM     33  C   UNL     1      -3.408   1.330   3.662  0.00  0.00    +0.029 A 
ATOM     34  C   UNL     1      -2.635   0.316   3.031  0.00  0.00    +0.043 A 
ATOM     35  N   UNL     1      -2.228   0.173   1.792  0.00  0.00    -0.376 N 
ATOM     36  F   UNL     1      -3.606   0.167   7.091  0.00  0.00    -0.205 F 
ATOM     37  H   UNL     1      -2.405   0.787   1.062  0.00  0.00    +0.160 HD
ENDBRANCH  26  27
ENDBRANCH  23  26
ENDBRANCH  21  24
ENDBRANCH  20  21
ENDBRANCH   1  20
TORSDOF 5
