REMARK  Name = ZINC39659587
REMARK  6 active torsions:
REMARK  status: ('A' for Active; 'I' for Inactive)
REMARK    1  A    between atoms: C_1  and  C_2
REMARK    2  A    between atoms: C_2  and  C_36
REMARK    3  A    between atoms: C_5  and  C_8
REMARK    4  A    between atoms: C_8  and  N_9
REMARK    5  A    between atoms: C_10  and  C_12
REMARK    6  A    between atoms: C_23  and  C_25
REMARK                            x       y       z     vdW  Elec       q    Type
REMARK                         _______ _______ _______ _____ _____    ______ ____
ROOT
ATOM      1  C   UNL     1       3.368  -2.971   4.869  0.00  0.00    +0.100 C 
ATOM      2  C   UNL     1       4.309  -1.829   4.423  0.00  0.00    +0.121 C 
ATOM      3  N   UNL     1       4.526  -1.023   5.647  0.00  0.00    -0.297 N 
ATOM      4  C   UNL     1       4.644  -2.026   6.732  0.00  0.00    +0.115 C 
ATOM      5  C   UNL     1       3.594  -3.100   6.384  0.00  0.00    -0.004 C 
ATOM      6  C   UNL     1       4.127  -4.489   6.723  0.00  0.00    -0.010 C 
ATOM      7  C   UNL     1       4.288  -4.613   8.241  0.00  0.00    -0.082 C 
ATOM      8  N   UNL     1       2.991  -4.391   8.893  0.00  0.00    +0.379 N 
ATOM      9  C   UNL     1       2.531  -3.021   8.638  0.00  0.00    -0.082 C 
ATOM     10  C   UNL     1       2.295  -2.830   7.137  0.00  0.00    -0.010 C 
ATOM     11  C   UNL     1       4.599   0.318   5.750  0.00  0.00    +0.260 C 
ATOM     12  O   UNL     1       4.783   0.834   6.833  0.00  0.00    -0.271 OA
ATOM     13  H   UNL     1       2.316  -5.045   8.526  0.00  0.00    -0.086 HD
ATOM     14  H   UNL     1       3.087  -4.533   9.887  0.00  0.00    -0.086 HD
ENDROOT
BRANCH  11  15
ATOM     15  C   UNL     1       4.453   1.178   4.521  0.00  0.00    +0.296 C 
ATOM     16  C   UNL     1       5.631   0.927   3.571  0.00  0.00    +0.283 C 
ATOM     17  O   UNL     1       5.469   1.768   2.423  0.00  0.00    -0.484 OA
ATOM     18  C   UNL     1       5.145   3.069   2.659  0.00  0.00    +0.162 A 
ATOM     19  C   UNL     1       5.325   4.008   1.654  0.00  0.00    +0.049 A 
ATOM     20  C   UNL     1       4.998   5.332   1.878  0.00  0.00    +0.004 A 
ATOM     21  C   UNL     1       4.492   5.724   3.103  0.00  0.00    +0.004 A 
ATOM     22  C   UNL     1       4.312   4.794   4.109  0.00  0.00    +0.049 A 
ATOM     23  C   UNL     1       4.639   3.463   3.892  0.00  0.00    +0.163 A 
ATOM     24  O   UNL     1       4.463   2.560   4.895  0.00  0.00    -0.473 OA
ENDBRANCH  11  15
BRANCH   1  26
ATOM     25  N   UNL     1       1.030  -3.584   4.342  0.00  0.00    -0.312 N 
ATOM     26  C   UNL     1       1.933  -2.612   4.581  0.00  0.00    +0.218 C 
ATOM     27  O   UNL     1       1.591  -1.449   4.564  0.00  0.00    -0.275 OA
ATOM     28  H   UNL     1       1.304  -4.514   4.355  0.00  0.00    +0.149 HD
BRANCH  25  29
ATOM     29  C   UNL     1      -0.365  -3.234   4.062  0.00  0.00    +0.138 C 
BRANCH  29  34
ATOM     30  C   UNL     1      -2.012  -5.912   0.661  0.00  0.00    +0.074 C 
ATOM     31  C   UNL     1      -1.918  -5.920   2.188  0.00  0.00    +0.165 C 
ATOM     32  O   UNL     1      -3.091  -5.312   2.746  0.00  0.00    -0.347 OA
ATOM     33  C   UNL     1      -2.657  -4.182   3.529  0.00  0.00    +0.196 C 
ATOM     34  C   UNL     1      -1.173  -4.512   3.829  0.00  0.00    +0.164 C 
ATOM     35  O   UNL     1      -0.765  -5.169   2.605  0.00  0.00    -0.342 OA
ATOM     36  C   UNL     1      -1.801  -7.361   2.689  0.00  0.00    +0.074 C 
ENDBRANCH  29  34
ENDBRANCH  25  29
ENDBRANCH   1  26
TORSDOF 4
