REMARK  Name = ZINC08961929
REMARK  7 active torsions:
REMARK  status: ('A' for Active; 'I' for Inactive)
REMARK    1  A    between atoms: C_1  and  C_2
REMARK    2  A    between atoms: C_4  and  C_27
REMARK    3  A    between atoms: C_5  and  S_9
REMARK    4  A    between atoms: C_7  and  C_8
REMARK    5  A    between atoms: S_9  and  N_12
REMARK    6  A    between atoms: N_12  and  C_13
REMARK    7  A    between atoms: C_23  and  C_26
REMARK                            x       y       z     vdW  Elec       q    Type
REMARK                         _______ _______ _______ _____ _____    ______ ____
ROOT
ATOM      1  N   UNL     1      -2.248   2.318  -1.095  0.00  0.00    -0.216 N 
ATOM      2  H   UNL     1      -2.398   2.997  -1.771  0.00  0.00    +0.174 HD
ENDROOT
BRANCH   1   3
ATOM      3  C   UNL     1      -2.885   1.076  -1.197  0.00  0.00    +0.049 A 
ATOM      4  C   UNL     1      -3.498   0.517  -0.080  0.00  0.00    +0.028 A 
ATOM      5  C   UNL     1      -4.132  -0.706  -0.169  0.00  0.00    +0.048 A 
ATOM      6  C   UNL     1      -4.159  -1.387  -1.375  0.00  0.00    +0.133 A 
ATOM      7  C   UNL     1      -3.538  -0.830  -2.504  0.00  0.00    +0.080 A 
ATOM      8  C   UNL     1      -2.907   0.409  -2.411  0.00  0.00    +0.041 A 
ATOM      9  C   UNL     1      -3.572  -1.574  -3.778  0.00  0.00    +0.248 C 
ATOM     10  O   UNL     1      -2.558  -1.727  -4.432  0.00  0.00    -0.270 OA
ATOM     11  N   UNL     1      -4.752  -2.083  -4.206  0.00  0.00    -0.308 N 
ATOM     12  C   UNL     1      -5.976  -1.795  -3.457  0.00  0.00    +0.148 C 
ATOM     13  C   UNL     1      -6.029  -2.611  -2.172  0.00  0.00    +0.187 C 
ATOM     14  O   UNL     1      -4.784  -2.587  -1.485  0.00  0.00    -0.487 OA
ATOM     15  C   UNL     1      -7.114  -2.035  -1.259  0.00  0.00    +0.053 C 
ATOM     16  H   UNL     1      -4.785  -2.636  -5.002  0.00  0.00    +0.149 HD
ENDBRANCH   1   3
BRANCH   1  17
ATOM     17  S   UNL     1      -1.239   2.629   0.181  0.00  0.00    +0.073 S 
ATOM     18  O   UNL     1      -1.972   2.329   1.361  0.00  0.00    -0.150 OA
ATOM     19  O   UNL     1      -0.666   3.908  -0.056  0.00  0.00    -0.150 OA
BRANCH  17  24
ATOM     20  C   UNL     1       3.289  -1.350  -0.093  0.00  0.00    +0.044 C 
ATOM     21  C   UNL     1       2.157  -0.357  -0.026  0.00  0.00    -0.047 A 
ATOM     22  C   UNL     1       1.994   0.575  -1.034  0.00  0.00    +0.009 A 
ATOM     23  C   UNL     1       0.956   1.486  -0.971  0.00  0.00    -0.024 A 
ATOM     24  C   UNL     1       0.080   1.464   0.098  0.00  0.00    +0.112 A 
ATOM     25  C   UNL     1       0.242   0.531   1.105  0.00  0.00    +0.032 A 
ATOM     26  C   UNL     1       1.282  -0.379   1.044  0.00  0.00    -0.046 A 
ATOM     27  C   UNL     1       1.460  -1.395   2.143  0.00  0.00    +0.044 C 
ATOM     28  C   UNL     1       0.778   2.502  -2.070  0.00  0.00    +0.046 C 
ENDBRANCH  17  24
ENDBRANCH   1  17
TORSDOF 3
