REMARK  Name = ZINC12771660
REMARK  6 active torsions:
REMARK  status: ('A' for Active; 'I' for Inactive)
REMARK    1  A    between atoms: C_1  and  C_2
REMARK    2  A    between atoms: C_11  and  N_15
REMARK    3  A    between atoms: N_15  and  C_16
REMARK    4  A    between atoms: C_16  and  C_17
REMARK    5  A    between atoms: C_17  and  C_18
REMARK    6  A    between atoms: C_18  and  N_59
REMARK                            x       y       z     vdW  Elec       q    Type
REMARK                         _______ _______ _______ _____ _____    ______ ____
ROOT
ATOM      1  N   UNL     1       0.443   0.293   5.271  0.00  0.00    -0.329 N 
ATOM      2  H   UNL     1      -0.234   0.457   4.596  0.00  0.00    +0.147 HD
ENDROOT
BRANCH   1  12
ATOM      3  C   UNL     1      -0.858   2.790  -0.847  0.00  0.00    +0.008 C 
ATOM      4  C   UNL     1      -0.105   2.038   0.252  0.00  0.00    -0.009 C 
ATOM      5  C   UNL     1      -0.750   2.324   1.611  0.00  0.00    +0.008 C 
ATOM      6  C   UNL     1      -0.166   1.389   2.670  0.00  0.00    +0.037 C 
ATOM      7  C   UNL     1       1.357   1.492   2.634  0.00  0.00    -0.025 A 
ATOM      8  C   UNL     1       1.986   2.000   1.550  0.00  0.00    -0.004 A 
ATOM      9  S   UNL     1       3.717   1.930   1.939  0.00  0.00    -0.073 S 
ATOM     10  C   UNL     1       3.598   1.222   3.549  0.00  0.00    +0.114 A 
ATOM     11  C   UNL     1       2.202   1.061   3.736  0.00  0.00    +0.051 A 
ATOM     12  C   UNL     1       1.779   0.498   4.974  0.00  0.00    +0.130 A 
ATOM     13  N   UNL     1       2.750   0.182   5.829  0.00  0.00    -0.220 NA
ATOM     14  C   UNL     1       4.033   0.361   5.586  0.00  0.00    +0.224 A 
ATOM     15  N   UNL     1       4.494   0.880   4.454  0.00  0.00    -0.228 NA
ATOM     16  C   UNL     1       1.355   2.512   0.292  0.00  0.00    +0.046 C 
ENDBRANCH   1  12
BRANCH   1  17
ATOM     17  C   UNL     1       0.052  -0.170   6.604  0.00  0.00    +0.101 C 
BRANCH  17  18
ATOM     18  C   UNL     1      -1.470  -0.315   6.667  0.00  0.00    +0.000 C 
BRANCH  18  19
ATOM     19  C   UNL     1      -1.879  -0.799   8.060  0.00  0.00    -0.077 C 
BRANCH  19  31
ATOM     20  C   UNL     1      -3.999   0.371   8.001  0.00  0.00    -0.060 C 
ATOM     21  C   UNL     1      -5.517   0.175   7.989  0.00  0.00    +0.089 C 
ATOM     22  N   UNL     1      -5.930  -0.509   9.222  0.00  0.00    -0.303 N 
ATOM     23  C   UNL     1      -5.272  -1.817   9.341  0.00  0.00    +0.089 C 
ATOM     24  C   UNL     1      -3.754  -1.622   9.353  0.00  0.00    -0.060 C 
ATOM     25  C   UNL     1      -7.307  -0.639   9.279  0.00  0.00    +0.218 A 
ATOM     26  N   UNL     1      -7.837  -1.846   9.419  0.00  0.00    -0.223 NA
ATOM     27  C   UNL     1      -9.149  -2.005   9.482  0.00  0.00    +0.116 A 
ATOM     28  C   UNL     1      -9.970  -0.892   9.390  0.00  0.00    +0.039 A 
ATOM     29  C   UNL     1      -9.382   0.354   9.238  0.00  0.00    +0.116 A 
ATOM     30  N   UNL     1      -8.064   0.444   9.187  0.00  0.00    -0.223 NA
ATOM     31  N   UNL     1      -3.349  -0.954   8.099  0.00  0.00    +0.382 N 
ATOM     32  H   UNL     1      -3.645  -1.530   7.303  0.00  0.00    -0.082 HD
ENDBRANCH  19  31
ENDBRANCH  18  19
ENDBRANCH  17  18
ENDBRANCH   1  17
TORSDOF 5
