REMARK  Name = ZINC40840599
REMARK  8 active torsions:
REMARK  status: ('A' for Active; 'I' for Inactive)
REMARK    1  A    between atoms: C_1  and  C_2
REMARK    2  A    between atoms: C_6  and  O_8
REMARK    3  A    between atoms: O_8  and  C_9
REMARK    4  A    between atoms: C_9  and  C_11
REMARK    5  A    between atoms: C_9  and  C_12
REMARK    6  A    between atoms: N_14  and  N_15
REMARK    7  A    between atoms: C_16  and  C_17
REMARK    8  A    between atoms: C_21  and  N_23
REMARK                            x       y       z     vdW  Elec       q    Type
REMARK                         _______ _______ _______ _____ _____    ______ ____
ROOT
ATOM      1  C   UNL     1      -2.012  -4.830   2.905  0.00  0.00    +0.273 C 
ATOM      2  O   UNL     1      -2.010  -4.001   3.790  0.00  0.00    -0.270 OA
ATOM      3  N   UNL     1      -2.032  -6.142   3.211  0.00  0.00    -0.204 N 
ATOM      4  H   UNL     1      -2.033  -6.806   2.503  0.00  0.00    +0.177 HD
ENDROOT
BRANCH   1   5
ATOM      5  C   UNL     1      -1.992  -4.393   1.463  0.00  0.00    +0.257 C 
ATOM      6  C   UNL     1      -0.743  -4.951   0.778  0.00  0.00    +0.062 C 
BRANCH   5   7
ATOM      7  O   UNL     1      -1.974  -2.965   1.399  0.00  0.00    -0.480 OA
BRANCH   7  13
ATOM      8  C   UNL     1      -4.338  -3.443  -2.845  0.00  0.00    +0.044 C 
ATOM      9  C   UNL     1      -3.768  -2.586  -1.743  0.00  0.00    -0.047 A 
ATOM     10  C   UNL     1      -3.886  -1.210  -1.808  0.00  0.00    +0.003 A 
ATOM     11  C   UNL     1      -3.365  -0.421  -0.799  0.00  0.00    +0.004 A 
ATOM     12  C   UNL     1      -2.724  -1.007   0.276  0.00  0.00    +0.046 A 
ATOM     13  C   UNL     1      -2.604  -2.387   0.342  0.00  0.00    +0.122 A 
ATOM     14  C   UNL     1      -3.133  -3.176  -0.668  0.00  0.00    +0.049 A 
ENDBRANCH   7  13
ENDBRANCH   5   7
ENDBRANCH   1   5
BRANCH   3  15
ATOM     15  N   UNL     1      -2.050  -6.549   4.551  0.00  0.00    -0.188 NA
ATOM     16  C   UNL     1      -1.917  -7.805   4.850  0.00  0.00    +0.138 C 
BRANCH  16  17
ATOM     17  C   UNL     1      -1.381  -8.748   3.851  0.00  0.00    -0.003 A 
ATOM     18  C   UNL     1      -0.640  -8.274   2.766  0.00  0.00    +0.011 A 
ATOM     19  C   UNL     1      -0.141  -9.161   1.835  0.00  0.00    +0.023 A 
ATOM     20  C   UNL     1      -0.373 -10.519   1.975  0.00  0.00    +0.071 A 
ATOM     21  C   UNL     1      -1.107 -10.995   3.049  0.00  0.00    +0.145 A 
ATOM     22  C   UNL     1      -1.607 -10.119   3.989  0.00  0.00    +0.043 A 
ATOM     23 CL   UNL     1       0.258 -11.629   0.799  0.00  0.00    -0.081 Cl
BRANCH  21  24
ATOM     24  N   UNL     1      -1.351 -12.449   3.190  0.00  0.00    +0.058 N 
ATOM     25  O   UNL     1      -1.991 -12.866   4.127  0.00  0.00    -0.126 OA
ATOM     26  O   UNL     1      -0.909 -13.218   2.369  0.00  0.00    -0.126 OA
ENDBRANCH  21  24
ENDBRANCH  16  17
ENDBRANCH   3  15
TORSDOF 6
