REMARK  Name = ZINC08868002
REMARK  7 active torsions:
REMARK  status: ('A' for Active; 'I' for Inactive)
REMARK    1  A    between atoms: C_1  and  C_2
REMARK    2  A    between atoms: C_2  and  C_3
REMARK    3  A    between atoms: C_2  and  C_4
REMARK    4  A    between atoms: C_2  and  N_5
REMARK    5  A    between atoms: N_8  and  C_9
REMARK    6  A    between atoms: C_9  and  C_10
REMARK    7  A    between atoms: N_13  and  C_17
REMARK                            x       y       z     vdW  Elec       q    Type
REMARK                         _______ _______ _______ _____ _____    ______ ____
ROOT
ATOM      1  C   UNL     1       0.577   3.692   0.015  0.00  0.00    +0.213 C 
ATOM      2  C   UNL     1       1.168   2.269   0.003  0.00  0.00    +0.163 C 
ATOM      3  N   UNL     1      -0.017   1.397   0.010  0.00  0.00    -0.234 N 
ATOM      4  C   UNL     1      -1.117   2.162   0.018  0.00  0.00    +0.408 C 
ATOM      5  O   UNL     1      -2.243   1.704   0.021  0.00  0.00    -0.226 OA
ATOM      6  O   UNL     1      -0.864   3.475   0.028  0.00  0.00    -0.444 OA
ENDROOT
BRANCH   3   7
ATOM      7  C   UNL     1       0.002  -0.004   0.002  0.00  0.00    +0.043 A 
ATOM      8  C   UNL     1       1.214  -0.682  -0.019  0.00  0.00    +0.027 A 
ATOM      9  C   UNL     1       1.234  -2.063  -0.021  0.00  0.00    +0.051 A 
ATOM     10  C   UNL     1       0.046  -2.776  -0.013  0.00  0.00    +0.166 A 
ATOM     11  C   UNL     1      -1.171  -2.099   0.002  0.00  0.00    +0.168 A 
ATOM     12  C   UNL     1      -1.190  -0.714   0.010  0.00  0.00    +0.073 A 
ATOM     13  O   UNL     1      -2.181  -3.017   0.007  0.00  0.00    -0.453 OA
ATOM     14  C   UNL     1      -1.579  -4.254  -0.418  0.00  0.00    +0.466 C 
ATOM     15  O   UNL     1      -0.202  -4.120  -0.018  0.00  0.00    -0.453 OA
ENDBRANCH   3   7
BRANCH   1  16
ATOM     16  C   UNL     1       0.997   4.458  -1.241  0.00  0.00    +0.152 C 
BRANCH  16  20
ATOM     17  N   UNL     1       0.344   7.981  -2.067  0.00  0.00    -0.295 N 
ATOM     18  C   UNL     1       0.779   6.708  -2.150  0.00  0.00    +0.300 C 
ATOM     19  O   UNL     1       1.402   6.341  -3.128  0.00  0.00    -0.253 OA
ATOM     20  N   UNL     1       0.524   5.841  -1.150  0.00  0.00    -0.296 N 
ATOM     21  H   UNL     1      -0.153   8.273  -1.286  0.00  0.00    +0.151 HD
ATOM     22  H   UNL     1       0.027   6.134  -0.370  0.00  0.00    +0.150 HD
BRANCH  17  24
ATOM     23  C   UNL     1      -0.003   8.403  -4.450  0.00  0.00    +0.031 C 
ATOM     24  C   UNL     1       0.621   8.923  -3.154  0.00  0.00    +0.028 C 
ATOM     25  C   UNL     1       0.022  10.288  -2.811  0.00  0.00    +0.031 C 
ATOM     26  C   UNL     1       2.134   9.060  -3.336  0.00  0.00    +0.031 C 
ENDBRANCH  17  24
ENDBRANCH  16  20
ENDBRANCH   1  16
TORSDOF 4
