REMARK  Name = ZINC62535021
REMARK  2 active torsions:
REMARK  status: ('A' for Active; 'I' for Inactive)
REMARK    1  A    between atoms: C_1  and  C_2
REMARK    2  A    between atoms: C_11  and  N_14
REMARK                            x       y       z     vdW  Elec       q    Type
REMARK                         _______ _______ _______ _____ _____    ______ ____
ROOT
ATOM      1  C   UNL     1      -0.019   1.526   0.010  0.00  0.00    +0.062 C 
ATOM      2  C   UNL     1       0.002  -0.004   0.002  0.00  0.00    +0.256 C 
ATOM      3  C   UNL     1       0.707  -0.490  -1.239  0.00  0.00    +0.258 C 
ATOM      4  O   UNL     1       0.074  -0.717  -2.249  0.00  0.00    -0.271 OA
ATOM      5  N   UNL     1       2.045  -0.670  -1.222  0.00  0.00    -0.278 N 
ATOM      6  C   UNL     1       2.748  -0.433  -0.031  0.00  0.00    +0.096 A 
ATOM      7  C   UNL     1       4.128  -0.292  -0.040  0.00  0.00    +0.067 A 
ATOM      8  C   UNL     1       4.806  -0.059   1.144  0.00  0.00    +0.044 A 
ATOM      9  C   UNL     1       4.112   0.032   2.337  0.00  0.00    +0.067 A 
ATOM     10  C   UNL     1       2.730  -0.108   2.354  0.00  0.00    +0.087 A 
ATOM     11  C   UNL     1       2.046  -0.340   1.167  0.00  0.00    +0.166 A 
ATOM     12  O   UNL     1       0.693  -0.477   1.161  0.00  0.00    -0.476 OA
ATOM     13 CL   UNL     1       4.971   0.322   3.818  0.00  0.00    -0.081 Cl
ATOM     14 CL   UNL     1       5.004  -0.406  -1.534  0.00  0.00    -0.081 Cl
ATOM     15  H   UNL     1       2.513  -0.959  -2.021  0.00  0.00    +0.155 HD
ENDROOT
BRANCH  10  16
ATOM     16  N   UNL     1       2.029  -0.014   3.563  0.00  0.00    -0.354 N 
ATOM     17  H   UNL     1       2.508   0.149   4.390  0.00  0.00    +0.142 HD
ATOM     18  H   UNL     1       1.063  -0.112   3.572  0.00  0.00    +0.142 HD
ENDBRANCH  10  16
TORSDOF 1
