REMARK  Name = ZINC06053634
REMARK  9 active torsions:
REMARK  status: ('A' for Active; 'I' for Inactive)
REMARK    1  A    between atoms: C_1  and  C_2
REMARK    2  A    between atoms: C_2  and  C_3
REMARK    3  A    between atoms: C_2  and  C_4
REMARK    4  A    between atoms: C_2  and  C_5
REMARK    5  A    between atoms: C_8  and  N_11
REMARK    6  A    between atoms: C_12  and  C_14
REMARK    7  A    between atoms: C_14  and  N_21
REMARK    8  A    between atoms: C_15  and  C_16
REMARK    9  A    between atoms: C_22  and  C_26
REMARK                            x       y       z     vdW  Elec       q    Type
REMARK                         _______ _______ _______ _____ _____    ______ ____
ROOT
ATOM      1  C   UNL     1       2.506   6.032   0.343  0.00  0.00    +0.135 C 
ATOM      2  C   UNL     1       3.216   6.954   1.050  0.00  0.00    +0.079 C 
ENDROOT
BRANCH   2   3
ATOM      3  C   UNL     1       2.539   7.914   1.838  0.00  0.00    +0.130 A 
ATOM      4  C   UNL     1       3.129   8.917   2.582  0.00  0.00    +0.049 A 
ATOM      5  C   UNL     1       2.084   9.625   3.195  0.00  0.00    +0.042 A 
ATOM      6  C   UNL     1       0.927   9.043   2.812  0.00  0.00    +0.195 A 
ATOM      7  O   UNL     1       1.203   8.018   1.993  0.00  0.00    -0.463 OA
ENDBRANCH   2   3
BRANCH   1   8
ATOM      8  N   UNL     1       1.117   5.948   0.498  0.00  0.00    -0.188 N 
ATOM      9  C   UNL     1       0.428   5.582   1.617  0.00  0.00    +0.187 A 
ATOM     10  N   UNL     1      -0.853   5.647   1.316  0.00  0.00    -0.108 NA
ATOM     11  N   UNL     1      -1.010   6.016   0.097  0.00  0.00    -0.022 NA
ATOM     12  N   UNL     1       0.131   6.218  -0.467  0.00  0.00    -0.038 NA
BRANCH   9  13
ATOM     13  C   UNL     1       1.008   5.189   2.920  0.00  0.00    +0.021 A 
ATOM     14  C   UNL     1       2.310   4.691   2.986  0.00  0.00    +0.011 A 
ATOM     15  C   UNL     1       2.847   4.332   4.205  0.00  0.00    +0.001 A 
ATOM     16  C   UNL     1       2.094   4.455   5.359  0.00  0.00    +0.000 A 
ATOM     17  C   UNL     1       0.801   4.943   5.300  0.00  0.00    +0.001 A 
ATOM     18  C   UNL     1       0.254   5.310   4.088  0.00  0.00    +0.011 A 
ENDBRANCH   9  13
ENDBRANCH   1   8
BRANCH   1  20
ATOM     19  N   UNL     1       2.488   4.245  -1.312  0.00  0.00    -0.280 N 
ATOM     20  C   UNL     1       3.195   5.128  -0.579  0.00  0.00    +0.267 C 
ATOM     21  O   UNL     1       4.407   5.173  -0.685  0.00  0.00    -0.268 OA
ATOM     22  H   UNL     1       1.520   4.226  -1.248  0.00  0.00    +0.155 HD
BRANCH  19  26
ATOM     23  C   UNL     1       4.456   1.599  -3.856  0.00  0.00    -0.042 A 
ATOM     24  C   UNL     1       3.281   1.215  -3.236  0.00  0.00    +0.006 A 
ATOM     25  C   UNL     1       2.626   2.090  -2.393  0.00  0.00    +0.023 A 
ATOM     26  C   UNL     1       3.149   3.357  -2.166  0.00  0.00    +0.034 A 
ATOM     27  C   UNL     1       4.330   3.739  -2.788  0.00  0.00    +0.023 A 
ATOM     28  C   UNL     1       4.980   2.859  -3.632  0.00  0.00    +0.006 A 
BRANCH  23  30
ATOM     29  C   UNL     1       4.244   0.266  -5.936  0.00  0.00    +0.015 C 
ATOM     30  C   UNL     1       5.168   0.641  -4.776  0.00  0.00    -0.013 C 
ATOM     31  C   UNL     1       6.432   1.307  -5.326  0.00  0.00    +0.015 C 
ATOM     32  C   UNL     1       5.553  -0.621  -4.001  0.00  0.00    +0.015 C 
ENDBRANCH  23  30
ENDBRANCH  19  26
ENDBRANCH   1  20
TORSDOF 6
