REMARK  Name = ZINC64480190
REMARK  10 active torsions:
REMARK  status: ('A' for Active; 'I' for Inactive)
REMARK    1  A    between atoms: C_1  and  C_2
REMARK    2  A    between atoms: C_7  and  O_12
REMARK    3  A    between atoms: C_9  and  O_10
REMARK    4  A    between atoms: O_10  and  C_11
REMARK    5  A    between atoms: O_12  and  C_13
REMARK    6  A    between atoms: C_17  and  C_19
REMARK    7  A    between atoms: C_19  and  C_20
REMARK    8  A    between atoms: N_22  and  C_23
REMARK    9  A    between atoms: C_23  and  C_24
REMARK   10  A    between atoms: C_24  and  C_25
REMARK                            x       y       z     vdW  Elec       q    Type
REMARK                         _______ _______ _______ _____ _____    ______ ____
ROOT
ATOM      1  C   UNL     1       1.115  -1.984   1.060  0.00  0.00    +0.111 C 
ENDROOT
BRANCH   1  13
ATOM      2  C   UNL     1      -0.019   1.526   0.010  0.00  0.00    +0.013 C 
ATOM      3  C   UNL     1       0.002  -0.004   0.002  0.00  0.00    +0.037 C 
ATOM      4  C   UNL     1      -1.413  -0.524   0.009  0.00  0.00    +0.040 A 
ATOM      5  C   UNL     1      -2.021  -0.972   1.168  0.00  0.00    +0.142 A 
ATOM      6  C   UNL     1      -3.332  -1.433   1.129  0.00  0.00    +0.092 A 
ATOM      7  C   UNL     1      -4.031  -1.453  -0.067  0.00  0.00    +0.127 A 
ATOM      8  C   UNL     1      -3.420  -1.011  -1.230  0.00  0.00    +0.091 A 
ATOM      9  C   UNL     1      -2.116  -0.547  -1.192  0.00  0.00    +0.130 A 
ATOM     10  O   UNL     1      -1.367  -0.988   2.361  0.00  0.00    -0.425 OA
ATOM     11  C   UNL     1      -0.179  -0.354   2.429  0.00  0.00    +0.317 C 
ATOM     12  O   UNL     1       0.131   0.307   3.392  0.00  0.00    -0.250 OA
ATOM     13  C   UNL     1       0.747  -0.510   1.241  0.00  0.00    +0.114 C 
BRANCH   9  14
ATOM     14  O   UNL     1      -1.519  -0.113  -2.333  0.00  0.00    -0.495 OA
ATOM     15  C   UNL     1      -2.296  -0.164  -3.531  0.00  0.00    +0.277 C 
ENDBRANCH   9  14
BRANCH   7  16
ATOM     16  O   UNL     1      -5.312  -1.906  -0.099  0.00  0.00    -0.495 OA
ATOM     17  C   UNL     1      -5.971  -1.898  -1.367  0.00  0.00    +0.277 C 
ENDBRANCH   7  16
ENDBRANCH   1  13
BRANCH   1  18
ATOM     18  C   UNL     1       1.952  -2.439   2.228  0.00  0.00    +0.214 C 
ATOM     19  O   UNL     1       2.227  -1.662   3.117  0.00  0.00    -0.276 OA
ATOM     20  N   UNL     1       2.396  -3.711   2.283  0.00  0.00    -0.315 N 
ATOM     21  H   UNL     1       2.176  -4.333   1.572  0.00  0.00    +0.149 HD
BRANCH  20  22
ATOM     22  C   UNL     1       3.210  -4.154   3.418  0.00  0.00    +0.108 C 
BRANCH  22  23
ATOM     23  C   UNL     1       3.578  -5.627   3.237  0.00  0.00    +0.052 C 
BRANCH  23  24
ATOM     24  C   UNL     1       4.415  -6.083   4.404  0.00  0.00    -0.040 C 
ATOM     25  C   UNL     1       3.981  -6.708   5.522  0.00  0.00    +0.002 A 
ATOM     26  C   UNL     1       2.649  -7.134   5.968  0.00  0.00    +0.048 A 
ATOM     27  C   UNL     1       2.524  -7.752   7.166  0.00  0.00    +0.124 A 
ATOM     28  C   UNL     1       3.635  -7.994   7.990  0.00  0.00    +0.040 A 
ATOM     29  C   UNL     1       4.889  -7.631   7.647  0.00  0.00    +0.029 A 
ATOM     30  C   UNL     1       5.135  -6.975   6.409  0.00  0.00    +0.043 A 
ATOM     31  N   UNL     1       6.241  -6.533   5.861  0.00  0.00    -0.380 N 
ATOM     32  C   UNL     1       5.913  -5.940   4.560  0.00  0.00    +0.144 C 
ATOM     33  F   UNL     1       1.300  -8.145   7.580  0.00  0.00    -0.205 F 
ATOM     34  H   UNL     1       7.128  -6.591   6.250  0.00  0.00    +0.160 HD
ENDBRANCH  23  24
ENDBRANCH  22  23
ENDBRANCH  20  22
ENDBRANCH   1  18
TORSDOF 7
