REMARK  Name = ZINC32912041
REMARK  9 active torsions:
REMARK  status: ('A' for Active; 'I' for Inactive)
REMARK    1  A    between atoms: C_1  and  C_2
REMARK    2  A    between atoms: C_6  and  C_8
REMARK    3  A    between atoms: C_10  and  N_13
REMARK    4  A    between atoms: C_14  and  C_16
REMARK    5  A    between atoms: C_16  and  C_18
REMARK    6  A    between atoms: C_19  and  C_34
REMARK    7  A    between atoms: N_21  and  C_24
REMARK    8  A    between atoms: C_22  and  C_23
REMARK    9  A    between atoms: C_28  and  C_30
REMARK                            x       y       z     vdW  Elec       q    Type
REMARK                         _______ _______ _______ _____ _____    ______ ____
ROOT
ATOM      1  C   UNL     1       0.062  -7.057   6.510  0.00  0.00    +0.255 C 
ATOM      2  O   UNL     1       1.083  -6.606   6.991  0.00  0.00    -0.281 OA
ENDROOT
BRANCH   1   3
ATOM      3  C   UNL     1       0.118  -8.248   5.647  0.00  0.00    +0.071 A 
ATOM      4  C   UNL     1       0.385  -8.268   4.258  0.00  0.00    +0.072 A 
ATOM      5  N   UNL     1       0.348  -9.508   3.856  0.00  0.00    -0.171 NA
ATOM      6  N   UNL     1       0.060 -10.332   4.950  0.00  0.00    -0.236 N 
ATOM      7  C   UNL     1      -0.075  -9.560   6.043  0.00  0.00    +0.053 A 
ATOM      8  C   UNL     1      -0.383 -10.035   7.439  0.00  0.00    +0.066 C 
ATOM      9  C   UNL     1       0.663  -7.065   3.393  0.00  0.00    +0.068 C 
BRANCH   6  10
ATOM     10  C   UNL     1      -0.063 -11.728   4.913  0.00  0.00    +0.066 A 
ATOM     11  C   UNL     1      -1.082 -12.355   5.617  0.00  0.00    +0.028 A 
ATOM     12  C   UNL     1      -1.200 -13.731   5.580  0.00  0.00    +0.003 A 
ATOM     13  C   UNL     1      -0.304 -14.483   4.842  0.00  0.00    +0.012 A 
ATOM     14  C   UNL     1       0.712 -13.861   4.141  0.00  0.00    +0.057 A 
ATOM     15  C   UNL     1       0.832 -12.485   4.169  0.00  0.00    +0.040 A 
BRANCH  14  16
ATOM     16  C   UNL     1       1.687 -14.684   3.338  0.00  0.00    +0.417 C 
ATOM     17  F   UNL     1       1.361 -16.040   3.458  0.00  0.00    -0.166 F 
ATOM     18  F   UNL     1       1.621 -14.306   1.993  0.00  0.00    -0.166 F 
ATOM     19  F   UNL     1       2.983 -14.472   3.819  0.00  0.00    -0.166 F 
ENDBRANCH  14  16
ENDBRANCH   6  10
ENDBRANCH   1   3
BRANCH   1  21
ATOM     20  N   UNL     1      -2.345  -6.948   6.358  0.00  0.00    -0.167 NA
ATOM     21  C   UNL     1      -1.238  -6.408   6.792  0.00  0.00    +0.321 C 
ATOM     22  O   UNL     1      -1.279  -5.256   7.501  0.00  0.00    -0.262 OA
BRANCH  20  25
ATOM     23  C   UNL     1      -5.698  -6.129   6.853  0.00  0.00    +0.177 A 
ATOM     24  N   UNL     1      -4.748  -6.876   6.333  0.00  0.00    -0.189 NA
ATOM     25  C   UNL     1      -3.550  -6.414   6.713  0.00  0.00    +0.272 A 
ATOM     26  N   UNL     1      -3.723  -5.358   7.486  0.00  0.00    -0.131 NA
ATOM     27  N   UNL     1      -5.108  -5.149   7.588  0.00  0.00    -0.255 N 
ATOM     28  H   UNL     1      -5.555  -4.447   8.086  0.00  0.00    +0.191 HD
BRANCH  23  34
ATOM     29  C   UNL     1     -10.236  -4.649   7.794  0.00  0.00    +0.065 C 
ATOM     30  C   UNL     1      -9.309  -5.620   7.109  0.00  0.00    +0.039 A 
ATOM     31  C   UNL     1      -9.839  -6.641   6.339  0.00  0.00    +0.023 A 
ATOM     32  C   UNL     1      -8.983  -7.533   5.709  0.00  0.00    +0.004 A 
ATOM     33  C   UNL     1      -7.619  -7.369   5.875  0.00  0.00    +0.031 A 
ATOM     34  C   UNL     1      -7.154  -6.319   6.665  0.00  0.00    +0.108 A 
ATOM     35  N   UNL     1      -8.007  -5.483   7.246  0.00  0.00    -0.249 NA
ENDBRANCH  23  34
ENDBRANCH  20  25
ENDBRANCH   1  21
TORSDOF 6
