REMARK  Name = ZINC36032684
REMARK  10 active torsions:
REMARK  status: ('A' for Active; 'I' for Inactive)
REMARK    1  A    between atoms: C_1  and  C_2
REMARK    2  A    between atoms: C_2  and  C_3
REMARK    3  A    between atoms: C_3  and  C_5
REMARK    4  A    between atoms: C_3  and  C_6
REMARK    5  A    between atoms: C_6  and  N_7
REMARK    6  A    between atoms: C_10  and  C_30
REMARK    7  A    between atoms: C_19  and  C_21
REMARK    8  A    between atoms: C_30  and  C_31
REMARK    9  A    between atoms: C_31  and  C_32
REMARK   10  A    between atoms: C_31  and  C_33
REMARK                            x       y       z     vdW  Elec       q    Type
REMARK                         _______ _______ _______ _____ _____    ______ ____
ROOT
ATOM      1  N   UNL     1      -4.499  -2.176  -1.909  0.00  0.00    -0.313 N 
ATOM      2  C   UNL     1      -5.812  -2.216  -1.603  0.00  0.00    +0.200 C 
ATOM      3  O   UNL     1      -6.282  -2.150  -0.487  0.00  0.00    -0.277 OA
ATOM      4  C   UNL     1      -6.601  -2.359  -2.887  0.00  0.00    +0.019 C 
ATOM      5  N   UNL     1      -5.647  -1.984  -3.959  0.00  0.00    +0.401 N 
ATOM      6  C   UNL     1      -4.332  -2.285  -3.361  0.00  0.00    +0.006 C 
ATOM      7  C   UNL     1      -3.296  -1.275  -3.851  0.00  0.00    +0.025 C 
ATOM      8  C   UNL     1      -1.944  -1.575  -3.197  0.00  0.00    +0.108 C 
ATOM      9  N   UNL     1      -1.597  -2.980  -3.452  0.00  0.00    -0.298 N 
ATOM     10  C   UNL     1      -2.562  -4.024  -3.083  0.00  0.00    +0.108 C 
ATOM     11  C   UNL     1      -3.910  -3.704  -3.738  0.00  0.00    +0.025 C 
ATOM     12  C   UNL     1      -0.416  -3.304  -4.014  0.00  0.00    +0.247 C 
ATOM     13  O   UNL     1       0.401  -2.437  -4.257  0.00  0.00    -0.270 OA
ATOM     14  H   UNL     1      -5.802  -2.543  -4.785  0.00  0.00    -0.082 HD
ATOM     15  H   UNL     1      -5.721  -1.001  -4.174  0.00  0.00    -0.082 HD
ENDROOT
BRANCH  12  16
ATOM     16  C   UNL     1      -0.113  -4.713  -4.335  0.00  0.00    +0.041 A 
ATOM     17  C   UNL     1      -0.017  -5.659  -3.312  0.00  0.00    +0.017 A 
ATOM     18  C   UNL     1       0.264  -6.974  -3.614  0.00  0.00    +0.050 A 
ATOM     19  C   UNL     1       0.453  -7.363  -4.933  0.00  0.00    +0.166 A 
ATOM     20  C   UNL     1       0.359  -6.423  -5.960  0.00  0.00    +0.167 A 
ATOM     21  C   UNL     1       0.071  -5.104  -5.664  0.00  0.00    +0.062 A 
ATOM     22  O   UNL     1       0.584  -7.053  -7.150  0.00  0.00    -0.453 OA
ATOM     23  C   UNL     1       1.218  -8.300  -6.810  0.00  0.00    +0.466 C 
ATOM     24  O   UNL     1       0.736  -8.579  -5.482  0.00  0.00    -0.453 OA
ENDBRANCH  12  16
BRANCH   1  25
ATOM     25  C   UNL     1      -3.409  -2.037  -0.940  0.00  0.00    +0.109 C 
BRANCH  25  26
ATOM     26  C   UNL     1      -3.288  -0.573  -0.515  0.00  0.00    +0.003 C 
ATOM     27  C   UNL     1      -3.427   0.329  -1.743  0.00  0.00    +0.009 C 
BRANCH  26  29
ATOM     28  C   UNL     1      -1.847   1.089   0.671  0.00  0.00    +0.004 C 
ATOM     29  C   UNL     1      -1.921  -0.342   0.135  0.00  0.00    +0.001 C 
ENDBRANCH  26  29
ENDBRANCH  25  26
ENDBRANCH   1  25
BRANCH   4  30
ATOM     30  C   UNL     1      -7.801  -1.411  -2.883  0.00  0.00    -0.004 C 
BRANCH  30  31
ATOM     31  C   UNL     1      -8.798  -1.855  -1.810  0.00  0.00    -0.018 C 
ATOM     32  C   UNL     1      -9.941  -0.842  -1.726  0.00  0.00    +0.007 C 
ATOM     33  C   UNL     1      -9.361  -3.230  -2.175  0.00  0.00    +0.007 C 
ENDBRANCH  30  31
ENDBRANCH   4  30
TORSDOF 6
