REMARK  Name = ZINC11566884
REMARK  8 active torsions:
REMARK  status: ('A' for Active; 'I' for Inactive)
REMARK    1  A    between atoms: C_1  and  C_2
REMARK    2  A    between atoms: C_3  and  C_8
REMARK    3  A    between atoms: C_5  and  C_7
REMARK    4  A    between atoms: C_9  and  N_21
REMARK    5  A    between atoms: N_10  and  C_17
REMARK    6  A    between atoms: C_17  and  C_18
REMARK    7  A    between atoms: C_18  and  O_19
REMARK    8  A    between atoms: O_19  and  C_20
REMARK                            x       y       z     vdW  Elec       q    Type
REMARK                         _______ _______ _______ _____ _____    ______ ____
ROOT
ATOM      1  C   UNL     1       1.219   1.333   2.676  0.00  0.00    +0.103 A 
ATOM      2  C   UNL     1       1.809   1.674   3.886  0.00  0.00    +0.115 A 
ATOM      3  N   UNL     1       3.179   1.676   3.985  0.00  0.00    -0.279 N 
ATOM      4  C   UNL     1       3.940   1.353   2.925  0.00  0.00    +0.331 A 
ATOM      5  O   UNL     1       5.151   1.362   3.037  0.00  0.00    -0.246 OA
ATOM      6  N   UNL     1       3.392   1.019   1.744  0.00  0.00    -0.274 N 
ATOM      7  H   UNL     1       3.984   0.787   0.972  0.00  0.00    +0.173 HD
ATOM      8  C   UNL     1       2.053   0.993   1.587  0.00  0.00    +0.265 A 
ATOM      9  O   UNL     1       1.567   0.685   0.513  0.00  0.00    -0.267 OA
ENDROOT
BRANCH   1  12
ATOM     10  C   UNL     1      -0.314   3.249   0.785  0.00  0.00    +0.054 C 
ATOM     11  C   UNL     1      -0.891   2.185   1.683  0.00  0.00    +0.015 A 
ATOM     12  C   UNL     1      -0.257   1.319   2.532  0.00  0.00    +0.090 A 
ATOM     13  N   UNL     1      -1.002   0.469   3.220  0.00  0.00    -0.244 NA
ATOM     14  C   UNL     1      -2.308   0.449   3.098  0.00  0.00    +0.076 A 
ATOM     15  S   UNL     1      -2.595   1.710   1.940  0.00  0.00    -0.077 S 
ATOM     16  C   UNL     1      -3.308  -0.439   3.793  0.00  0.00    +0.073 C 
ENDBRANCH   1  12
BRANCH   2  17
ATOM     17  N   UNL     1       1.034   2.004   4.968  0.00  0.00    -0.344 N 
ATOM     18  H   UNL     1       0.073   2.089   4.868  0.00  0.00    +0.144 HD
ATOM     19  H   UNL     1       1.447   2.151   5.833  0.00  0.00    +0.144 HD
ENDBRANCH   2  17
BRANCH   3  20
ATOM     20  C   UNL     1       3.815   2.034   5.255  0.00  0.00    +0.156 C 
BRANCH  20  21
ATOM     21  C   UNL     1       4.010   0.773   6.101  0.00  0.00    +0.181 C 
BRANCH  21  22
ATOM     22  O   UNL     1       4.933  -0.100   5.448  0.00  0.00    -0.381 OA
ATOM     23  C   UNL     1       5.186  -1.314   6.159  0.00  0.00    +0.194 C 
ENDBRANCH  21  22
ENDBRANCH  20  21
ENDBRANCH   3  20
TORSDOF 5
