REMARK  Name = ZINC32905589
REMARK  3 active torsions:
REMARK  status: ('A' for Active; 'I' for Inactive)
REMARK    1  A    between atoms: C_3  and  C_9
REMARK    2  A    between atoms: C_9  and  C_10
REMARK    3  A    between atoms: C_16  and  C_18
REMARK                            x       y       z     vdW  Elec       q    Type
REMARK                         _______ _______ _______ _____ _____    ______ ____
ROOT
ATOM      1  C   UNL     1      -2.885   1.266   1.438  0.00  0.00    +0.015 A 
ATOM      2  C   UNL     1      -3.624   1.946   2.349  0.00  0.00    +0.124 A 
ATOM      3  N   UNL     1      -3.804   1.409   3.539  0.00  0.00    -0.233 NA
ATOM      4  C   UNL     1      -3.282   0.237   3.846  0.00  0.00    +0.165 A 
ATOM      5  S   UNL     1      -2.465  -0.196   2.376  0.00  0.00    -0.057 S 
ATOM      6  N   UNL     1      -3.368  -0.471   5.038  0.00  0.00    -0.261 N 
ATOM      7  C   UNL     1      -4.062   0.036   6.075  0.00  0.00    +0.251 C 
ATOM      8  O   UNL     1      -4.614   1.115   5.968  0.00  0.00    -0.270 OA
ATOM      9  H   UNL     1      -2.869  -1.447   5.135  0.00  0.00    +0.157 HD
ENDROOT
BRANCH   7  10
ATOM     10  C   UNL     1      -4.154  -0.716   7.342  0.00  0.00    +0.055 A 
ATOM     11  C   UNL     1      -4.869  -0.195   8.430  0.00  0.00    +0.018 A 
ATOM     12  C   UNL     1      -4.929  -0.939   9.591  0.00  0.00    +0.049 A 
ATOM     13  C   UNL     1      -4.276  -2.166   9.648  0.00  0.00    +0.156 A 
ATOM     14  N   UNL     1      -3.604  -2.629   8.605  0.00  0.00    -0.235 NA
ATOM     15  C   UNL     1      -3.525  -1.955   7.477  0.00  0.00    +0.126 A 
ATOM     16  N   UNL     1      -4.329  -2.920  10.821  0.00  0.00    -0.202 N 
ATOM     17  C   UNL     1      -3.754  -4.120  11.038  0.00  0.00    +0.226 A 
ATOM     18  N   UNL     1      -4.038  -4.490  12.260  0.00  0.00    -0.222 NA
ATOM     19  C   UNL     1      -4.787  -3.559  12.852  0.00  0.00    +0.245 A 
ATOM     20  N   UNL     1      -4.987  -2.577  12.014  0.00  0.00    -0.152 NA
ENDBRANCH   7  10
BRANCH   1  21
ATOM     21  C   UNL     1      -2.524   1.637   0.023  0.00  0.00    +0.080 C 
BRANCH  21  24
ATOM     22  C   UNL     1      -0.059   4.497   0.027  0.00  0.00    +0.002 A 
ATOM     23  C   UNL     1      -1.247   3.789   0.034  0.00  0.00    +0.005 A 
ATOM     24  C   UNL     1      -1.229   2.408   0.021  0.00  0.00    -0.023 A 
ATOM     25  C   UNL     1      -0.021   1.732   0.012  0.00  0.00    +0.063 A 
ATOM     26  C   UNL     1       1.168   2.441   0.004  0.00  0.00    +0.060 A 
ATOM     27  C   UNL     1       1.148   3.824   0.012  0.00  0.00    +0.021 A 
ATOM     28 CL   UNL     1       2.683   1.594  -0.015  0.00  0.00    -0.082 Cl
ATOM     29 CL   UNL     1       0.002  -0.004   0.002  0.00  0.00    -0.082 Cl
ENDBRANCH  21  24
ENDBRANCH   1  21
TORSDOF 3
