REMARK  Name = ZINC23550816
REMARK  9 active torsions:
REMARK  status: ('A' for Active; 'I' for Inactive)
REMARK    1  A    between atoms: C_1  and  C_2
REMARK    2  A    between atoms: C_2  and  C_3
REMARK    3  A    between atoms: C_3  and  N_4
REMARK    4  A    between atoms: C_14  and  S_15
REMARK    5  A    between atoms: S_15  and  C_16
REMARK    6  A    between atoms: C_16  and  C_17
REMARK    7  A    between atoms: N_22  and  C_23
REMARK    8  A    between atoms: C_26  and  C_30
REMARK    9  A    between atoms: C_28  and  C_29
REMARK                            x       y       z     vdW  Elec       q    Type
REMARK                         _______ _______ _______ _____ _____    ______ ____
ROOT
ATOM      1  C   UNL     1      -3.801  -1.494  -0.004  0.00  0.00    +0.173 C 
ENDROOT
BRANCH   1   2
ATOM      2  C   UNL     1      -5.219  -2.005   0.021  0.00  0.00    +0.231 C 
ATOM      3  O   UNL     1      -5.434  -3.198   0.025  0.00  0.00    -0.274 OA
ATOM      4  N   UNL     1      -6.248  -1.134   0.038  0.00  0.00    -0.239 N 
ATOM      5  C   UNL     1      -7.516  -1.591   0.060  0.00  0.00    +0.310 C 
ATOM      6  O   UNL     1      -7.731  -2.787   0.065  0.00  0.00    -0.252 OA
ATOM      7  N   UNL     1      -8.545  -0.721   0.078  0.00  0.00    -0.269 N 
ATOM      8  H   UNL     1      -6.053  -0.052   0.035  0.00  0.00    +0.159 HD
ATOM      9  H   UNL     1      -8.352   0.358   0.168  0.00  0.00    +0.156 HD
BRANCH   7  10
ATOM     10  C   UNL     1      -9.860  -1.190  -0.017  0.00  0.00    +0.038 A 
ATOM     11  C   UNL     1     -10.120  -2.410  -0.627  0.00  0.00    +0.024 A 
ATOM     12  C   UNL     1     -11.419  -2.871  -0.720  0.00  0.00    +0.005 A 
ATOM     13  C   UNL     1     -12.460  -2.118  -0.206  0.00  0.00    -0.050 A 
ATOM     14  C   UNL     1     -12.204  -0.903   0.401  0.00  0.00    +0.008 A 
ATOM     15  C   UNL     1     -10.906  -0.440   0.502  0.00  0.00    -0.029 A 
ATOM     16  C   UNL     1     -10.627   0.882   1.170  0.00  0.00    +0.045 C 
ATOM     17  C   UNL     1     -13.875  -2.624  -0.308  0.00  0.00    +0.044 C 
ENDBRANCH   7  10
ENDBRANCH   1   2
BRANCH   1  18
ATOM     18  S   UNL     1      -2.656  -2.896  -0.024  0.00  0.00    -0.078 S 
BRANCH  18  29
ATOM     19  N   UNL     1       0.036  -2.764  -0.071  0.00  0.00    -0.287 N 
ATOM     20  C   UNL     1       1.238  -2.143  -0.092  0.00  0.00    +0.262 A 
ATOM     21  O   UNL     1       2.276  -2.779  -0.110  0.00  0.00    -0.267 OA
ATOM     22  C   UNL     1       1.244  -0.674  -0.093  0.00  0.00    +0.065 A 
ATOM     23  C   UNL     1       2.430   0.058  -0.114  0.00  0.00    +0.015 A 
ATOM     24  C   UNL     1       2.379   1.425  -0.113  0.00  0.00    +0.001 A 
ATOM     25  C   UNL     1       1.159   2.089  -0.091  0.00  0.00    +0.002 A 
ATOM     26  C   UNL     1      -0.018   1.396  -0.070  0.00  0.00    +0.028 A 
ATOM     27  C   UNL     1       0.001  -0.002  -0.071  0.00  0.00    +0.079 A 
ATOM     28  N   UNL     1      -1.137  -0.724  -0.050  0.00  0.00    -0.223 NA
ATOM     29  C   UNL     1      -1.119  -2.034  -0.051  0.00  0.00    +0.173 A 
BRANCH  19  30
ATOM     30  C   UNL     1      -0.028  -4.227  -0.069  0.00  0.00    +0.127 C 
BRANCH  30  32
ATOM     31  C   UNL     1      -0.091  -6.265   1.375  0.00  0.00    +0.005 C 
ATOM     32  C   UNL     1      -0.025  -4.736   1.373  0.00  0.00    +0.018 C 
ENDBRANCH  30  32
ENDBRANCH  19  30
ENDBRANCH  18  29
ENDBRANCH   1  18
TORSDOF 6
