REMARK  Name = ZINC32774802
REMARK  7 active torsions:
REMARK  status: ('A' for Active; 'I' for Inactive)
REMARK    1  A    between atoms: C_1  and  C_2
REMARK    2  A    between atoms: C_2  and  C_3
REMARK    3  A    between atoms: C_3  and  C_5
REMARK    4  A    between atoms: C_3  and  N_6
REMARK    5  A    between atoms: C_7  and  C_9
REMARK    6  A    between atoms: C_9  and  N_10
REMARK    7  A    between atoms: C_16  and  C_18
REMARK                            x       y       z     vdW  Elec       q    Type
REMARK                         _______ _______ _______ _____ _____    ______ ____
ROOT
ATOM      1  N   UNL     1       0.522   3.786   0.361  0.00  0.00    +0.387 N 
ATOM      2  C   UNL     1      -0.144   4.188  -0.885  0.00  0.00    -0.059 C 
ATOM      3  C   UNL     1      -0.365   5.704  -0.876  0.00  0.00    +0.089 C 
ATOM      4  N   UNL     1       0.924   6.363  -0.619  0.00  0.00    -0.302 N 
ATOM      5  C   UNL     1       1.716   5.917   0.537  0.00  0.00    +0.089 C 
ATOM      6  C   UNL     1       1.855   4.392   0.472  0.00  0.00    -0.059 C 
ATOM      7  C   UNL     1       1.369   7.350  -1.422  0.00  0.00    +0.260 C 
ATOM      8  O   UNL     1       2.386   7.948  -1.142  0.00  0.00    -0.271 OA
ATOM      9  H   UNL     1      -0.085   4.157   1.200  0.00  0.00    -0.081 HD
ENDROOT
BRANCH   7  10
ATOM     10  C   UNL     1       0.602   7.711  -2.668  0.00  0.00    +0.296 C 
ATOM     11  C   UNL     1       0.754   6.595  -3.711  0.00  0.00    +0.283 C 
ATOM     12  O   UNL     1       0.027   6.976  -4.884  0.00  0.00    -0.484 OA
ATOM     13  C   UNL     1       0.204   8.250  -5.327  0.00  0.00    +0.162 A 
ATOM     14  C   UNL     1      -0.169   8.579  -6.622  0.00  0.00    +0.049 A 
ATOM     15  C   UNL     1      -0.001   9.870  -7.085  0.00  0.00    +0.004 A 
ATOM     16  C   UNL     1       0.540  10.838  -6.259  0.00  0.00    +0.004 A 
ATOM     17  C   UNL     1       0.915  10.517  -4.968  0.00  0.00    +0.049 A 
ATOM     18  C   UNL     1       0.750   9.222  -4.498  0.00  0.00    +0.163 A 
ATOM     19  O   UNL     1       1.127   8.921  -3.225  0.00  0.00    -0.473 OA
ENDBRANCH   7  10
BRANCH   1  20
ATOM     20  C   UNL     1       0.598   2.323   0.469  0.00  0.00    +0.019 C 
BRANCH  20  22
ATOM     21  N   UNL     1      -0.969   0.424   0.711  0.00  0.00    -0.314 N 
ATOM     22  C   UNL     1      -0.792   1.756   0.597  0.00  0.00    +0.197 C 
ATOM     23  O   UNL     1      -1.752   2.497   0.594  0.00  0.00    -0.278 OA
ATOM     24  H   UNL     1      -0.099  -0.248   0.709  0.00  0.00    +0.149 HD
BRANCH  21  25
ATOM     25  C   UNL     1      -2.320  -0.127   0.836  0.00  0.00    +0.070 C 
ATOM     26  C   UNL     1      -2.751  -0.093   2.303  0.00  0.00    +0.028 C 
BRANCH  25  28
ATOM     27  C   UNL     1      -2.020  -1.595  -1.163  0.00  0.00    +0.005 C 
ATOM     28  C   UNL     1      -2.330  -1.573   0.335  0.00  0.00    +0.018 C 
ENDBRANCH  25  28
ENDBRANCH  21  25
ENDBRANCH  20  22
ENDBRANCH   1  20
TORSDOF 5
