REMARK  Name = ZINC24774238
REMARK  10 active torsions:
REMARK  status: ('A' for Active; 'I' for Inactive)
REMARK    1  A    between atoms: C_1  and  C_2
REMARK    2  A    between atoms: C_3  and  C_32
REMARK    3  A    between atoms: C_7  and  S_19
REMARK    4  A    between atoms: C_9  and  C_11
REMARK    5  A    between atoms: C_11  and  N_12
REMARK    6  A    between atoms: C_15  and  C_18
REMARK    7  A    between atoms: S_19  and  C_20
REMARK    8  A    between atoms: C_23  and  C_26
REMARK    9  A    between atoms: N_24  and  C_25
REMARK   10  A    between atoms: C_26  and  C_27
REMARK                            x       y       z     vdW  Elec       q    Type
REMARK                         _______ _______ _______ _____ _____    ______ ____
ROOT
ATOM      1  C   UNL     1      -1.221  -5.140  -7.107  0.00  0.00    +0.045 C 
ATOM      2  C   UNL     1       0.073  -5.161  -7.880  0.00  0.00    -0.029 A 
ATOM      3  C   UNL     1       0.070  -5.380  -9.203  0.00  0.00    -0.008 A 
ATOM      4  S   UNL     1       1.796  -5.310  -9.641  0.00  0.00    -0.074 S 
ATOM      5  C   UNL     1       2.476  -4.988  -8.036  0.00  0.00    +0.113 A 
ATOM      6  C   UNL     1       1.338  -4.949  -7.199  0.00  0.00    +0.043 A 
ATOM      7  C   UNL     1       1.600  -4.694  -5.825  0.00  0.00    +0.116 A 
ATOM      8  N   UNL     1       2.852  -4.525  -5.428  0.00  0.00    -0.227 NA
ATOM      9  C   UNL     1       3.870  -4.580  -6.267  0.00  0.00    +0.115 A 
ATOM     10  N   UNL     1       3.689  -4.808  -7.554  0.00  0.00    -0.227 NA
ATOM     11  C   UNL     1      -1.113  -5.627 -10.105  0.00  0.00    +0.052 C 
ENDROOT
BRANCH   9  12
ATOM     12  C   UNL     1       5.268  -4.377  -5.743  0.00  0.00    -0.001 C 
BRANCH  12  13
ATOM     13  N   UNL     1       5.835  -5.673  -5.347  0.00  0.00    +0.384 N 
ATOM     14  C   UNL     1       5.585  -6.693  -6.374  0.00  0.00    -0.078 C 
ATOM     15  C   UNL     1       6.059  -8.057  -5.866  0.00  0.00    -0.016 C 
ATOM     16  C   UNL     1       7.554  -7.986  -5.545  0.00  0.00    -0.018 C 
ATOM     17  C   UNL     1       7.793  -6.883  -4.509  0.00  0.00    -0.016 C 
ATOM     18  C   UNL     1       7.270  -5.554  -5.056  0.00  0.00    -0.078 C 
ATOM     19  C   UNL     1       8.020  -9.329  -4.980  0.00  0.00    +0.007 C 
ATOM     20  H   UNL     1       5.332  -5.997  -4.424  0.00  0.00    -0.081 HD
ENDBRANCH  12  13
ENDBRANCH   9  12
BRANCH   7  21
ATOM     21  S   UNL     1       0.277  -4.611  -4.665  0.00  0.00    -0.030 S 
BRANCH  21  22
ATOM     22  C   UNL     1       1.184  -4.291  -3.188  0.00  0.00    +0.197 A 
ATOM     23  N   UNL     1       2.486  -4.167  -3.084  0.00  0.00    -0.122 NA
ATOM     24  N   UNL     1       2.806  -3.938  -1.861  0.00  0.00    -0.133 NA
ATOM     25  C   UNL     1       1.736  -3.903  -1.118  0.00  0.00    +0.139 A 
ATOM     26  N   UNL     1       0.665  -4.132  -1.935  0.00  0.00    -0.309 N 
ATOM     27  C   UNL     1      -0.746  -4.192  -1.548  0.00  0.00    +0.152 C 
BRANCH  25  28
ATOM     28  C   UNL     1       1.688  -3.660   0.369  0.00  0.00    +0.118 C 
BRANCH  28  29
ATOM     29  C   UNL     1       1.557  -2.182   0.633  0.00  0.00    -0.003 A 
ATOM     30  C   UNL     1       0.434  -1.435   0.764  0.00  0.00    +0.011 A 
ATOM     31  C   UNL     1       0.555  -0.080   1.006  0.00  0.00    +0.008 A 
ATOM     32  C   UNL     1       1.793   0.462   1.106  0.00  0.00    +0.045 A 
ATOM     33  S   UNL     1       2.841  -0.961   0.854  0.00  0.00    -0.101 S 
ENDBRANCH  28  29
ENDBRANCH  25  28
ENDBRANCH  21  22
ENDBRANCH   7  21
TORSDOF 6
