REMARK  Name = ZINC57954167
REMARK  6 active torsions:
REMARK  status: ('A' for Active; 'I' for Inactive)
REMARK    1  A    between atoms: C_1  and  C_2
REMARK    2  A    between atoms: C_2  and  C_3
REMARK    3  A    between atoms: N_10  and  C_13
REMARK    4  A    between atoms: C_13  and  C_14
REMARK    5  A    between atoms: N_19  and  C_20
REMARK    6  A    between atoms: C_26  and  C_28
REMARK                            x       y       z     vdW  Elec       q    Type
REMARK                         _______ _______ _______ _____ _____    ______ ____
ROOT
ATOM      1  C   UNL     1       6.057  -1.103  -5.356  0.00  0.00    +0.240 C 
ATOM      2  O   UNL     1       5.472  -0.041  -5.386  0.00  0.00    -0.273 OA
ATOM      3  N   UNL     1       7.320  -1.189  -5.816  0.00  0.00    -0.239 N 
ATOM      4  C   UNL     1       7.934  -0.095  -6.309  0.00  0.00    +0.306 C 
ATOM      5  O   UNL     1       7.348   0.969  -6.339  0.00  0.00    -0.252 OA
ATOM      6  N   UNL     1       9.198  -0.181  -6.770  0.00  0.00    -0.296 N 
ATOM      7  H   UNL     1       7.788  -2.038  -5.793  0.00  0.00    +0.159 HD
ATOM      8  H   UNL     1       9.666  -1.031  -6.746  0.00  0.00    +0.151 HD
ENDROOT
BRANCH   6   9
ATOM      9  C   UNL     1       9.865   1.008  -7.305  0.00  0.00    +0.077 C 
ATOM     10  C   UNL     1       9.496   1.179  -8.780  0.00  0.00    +0.022 C 
ATOM     11  C   UNL     1      10.193   2.421  -9.340  0.00  0.00    +0.002 C 
ATOM     12  C   UNL     1      11.708   2.257  -9.210  0.00  0.00    +0.000 C 
ATOM     13  C   UNL     1      12.078   2.086  -7.735  0.00  0.00    +0.005 C 
ATOM     14  C   UNL     1      11.381   0.844  -7.175  0.00  0.00    +0.006 C 
ATOM     15  C   UNL     1      11.751   0.673  -5.700  0.00  0.00    +0.009 C 
ENDBRANCH   6   9
BRANCH   1  16
ATOM     16  C   UNL     1       5.370  -2.326  -4.805  0.00  0.00    +0.222 C 
BRANCH  16  24
ATOM     17  C   UNL     1       0.707  -0.490  -1.238  0.00  0.00    -0.008 A 
ATOM     18  C   UNL     1       2.014  -0.754  -1.403  0.00  0.00    +0.026 A 
ATOM     19  C   UNL     1       2.485  -1.218  -2.695  0.00  0.00    +0.072 A 
ATOM     20  C   UNL     1       1.489  -1.349  -3.679  0.00  0.00    +0.115 A 
ATOM     21  S   UNL     1       0.006  -0.860  -2.835  0.00  0.00    -0.073 S 
ATOM     22  N   UNL     1       1.768  -1.764  -4.911  0.00  0.00    -0.230 NA
ATOM     23  C   UNL     1       2.990  -2.069  -5.258  0.00  0.00    +0.203 A 
ATOM     24  N   UNL     1       4.016  -1.973  -4.373  0.00  0.00    -0.290 N 
ATOM     25  C   UNL     1       3.813  -1.560  -3.108  0.00  0.00    +0.263 A 
ATOM     26  O   UNL     1       4.745  -1.480  -2.327  0.00  0.00    -0.267 OA
BRANCH  17  28
ATOM     27  C   UNL     1      -0.019   1.526   0.010  0.00  0.00    +0.009 C 
ATOM     28  C   UNL     1       0.002  -0.004   0.002  0.00  0.00    +0.039 C 
ENDBRANCH  17  28
ENDBRANCH  16  24
ENDBRANCH   1  16
TORSDOF 4
