REMARK  Name = ZINC22191905
REMARK  10 active torsions:
REMARK  status: ('A' for Active; 'I' for Inactive)
REMARK    1  A    between atoms: C_1  and  C_2
REMARK    2  A    between atoms: C_4  and  S_28
REMARK    3  A    between atoms: C_6  and  N_9
REMARK    4  A    between atoms: C_7  and  C_8
REMARK    5  A    between atoms: C_10  and  C_12
REMARK    6  A    between atoms: C_14  and  C_23
REMARK    7  A    between atoms: N_16  and  C_17
REMARK    8  A    between atoms: S_28  and  N_31
REMARK    9  A    between atoms: N_31  and  C_32
REMARK   10  A    between atoms: N_31  and  C_33
REMARK                            x       y       z     vdW  Elec       q    Type
REMARK                         _______ _______ _______ _____ _____    ______ ____
ROOT
ATOM      1  N   UNL     1       3.715   2.572   1.223  0.00  0.00    -0.280 N 
ATOM      2  C   UNL     1       3.094   3.729   1.527  0.00  0.00    +0.267 C 
ATOM      3  O   UNL     1       3.486   4.403   2.460  0.00  0.00    -0.268 OA
ATOM      4  H   UNL     1       3.362   1.964   0.377  0.00  0.00    +0.155 HD
ENDROOT
BRANCH   1  10
ATOM      5  C   UNL     1       6.492  -1.100   2.947  0.00  0.00    +0.044 C 
ATOM      6  C   UNL     1       6.176   0.370   2.838  0.00  0.00    -0.044 A 
ATOM      7  C   UNL     1       6.966   1.296   3.493  0.00  0.00    +0.032 A 
ATOM      8  C   UNL     1       6.680   2.646   3.396  0.00  0.00    +0.107 A 
ATOM      9  C   UNL     1       5.602   3.072   2.644  0.00  0.00    +0.052 A 
ATOM     10  C   UNL     1       4.806   2.144   1.985  0.00  0.00    +0.039 A 
ATOM     11  C   UNL     1       5.094   0.789   2.089  0.00  0.00    -0.026 A 
ATOM     12  C   UNL     1       4.230  -0.223   1.380  0.00  0.00    +0.046 C 
BRANCH   8  13
ATOM     13  S   UNL     1       7.690   3.822   4.232  0.00  0.00    +0.060 S 
ATOM     14  O   UNL     1       8.957   3.208   4.422  0.00  0.00    -0.153 OA
ATOM     15  O   UNL     1       7.537   5.054   3.539  0.00  0.00    -0.153 OA
BRANCH  13  16
ATOM     16  N   UNL     1       7.039   4.043   5.739  0.00  0.00    -0.183 NA
ATOM     17  C   UNL     1       7.475   3.200   6.855  0.00  0.00    +0.131 C 
ATOM     18  C   UNL     1       6.029   5.081   5.955  0.00  0.00    +0.131 C 
ENDBRANCH  13  16
ENDBRANCH   8  13
ENDBRANCH   1  10
BRANCH   2  19
ATOM     19  C   UNL     1       1.942   4.177   0.729  0.00  0.00    +0.130 A 
ATOM     20  C   UNL     1       1.463   3.583  -0.419  0.00  0.00    +0.066 A 
ATOM     21  C   UNL     1       0.359   4.334  -0.856  0.00  0.00    +0.129 A 
ATOM     22  N   UNL     1       0.171   5.332  -0.014  0.00  0.00    -0.163 NA
ATOM     23  N   UNL     1       1.143   5.259   0.991  0.00  0.00    -0.227 N 
BRANCH  23  24
ATOM     24  C   UNL     1       1.280   6.140   2.070  0.00  0.00    +0.066 A 
ATOM     25  C   UNL     1       1.224   7.512   1.860  0.00  0.00    +0.028 A 
ATOM     26  C   UNL     1       1.359   8.379   2.927  0.00  0.00    +0.002 A 
ATOM     27  C   UNL     1       1.548   7.882   4.203  0.00  0.00    +0.000 A 
ATOM     28  C   UNL     1       1.603   6.516   4.416  0.00  0.00    +0.002 A 
ATOM     29  C   UNL     1       1.470   5.644   3.354  0.00  0.00    +0.028 A 
ENDBRANCH  23  24
BRANCH  21  30
ATOM     30  C   UNL     1      -0.455   4.053  -2.058  0.00  0.00    +0.155 A 
ATOM     31  C   UNL     1      -1.527   4.773  -2.482  0.00  0.00    +0.051 A 
ATOM     32  C   UNL     1      -1.992   4.155  -3.660  0.00  0.00    +0.042 A 
ATOM     33  C   UNL     1      -1.194   3.094  -3.890  0.00  0.00    +0.196 A 
ATOM     34  O   UNL     1      -0.267   3.035  -2.920  0.00  0.00    -0.461 OA
ENDBRANCH  21  30
ENDBRANCH   2  19
TORSDOF 6
