REMARK  Name = ZINC37220260
REMARK  5 active torsions:
REMARK  status: ('A' for Active; 'I' for Inactive)
REMARK    1  A    between atoms: C_1  and  C_2
REMARK    2  A    between atoms: C_3  and  C_7
REMARK    3  A    between atoms: C_7  and  C_9
REMARK    4  A    between atoms: C_7  and  N_10
REMARK    5  A    between atoms: N_10  and  C_11
REMARK                            x       y       z     vdW  Elec       q    Type
REMARK                         _______ _______ _______ _____ _____    ______ ____
ROOT
ATOM      1  C   UNL     1      -1.562  -0.438  -4.504  0.00  0.00    +0.030 A 
ATOM      2  C   UNL     1      -1.216   0.845  -4.908  0.00  0.00    +0.026 A 
ATOM      3  C   UNL     1      -1.790   1.396  -6.040  0.00  0.00    +0.049 A 
ATOM      4  C   UNL     1      -2.711   0.667  -6.772  0.00  0.00    +0.142 A 
ATOM      5  C   UNL     1      -3.060  -0.621  -6.369  0.00  0.00    +0.077 A 
ATOM      6  C   UNL     1      -2.481  -1.175  -5.240  0.00  0.00    +0.050 A 
ATOM      7  N   UNL     1      -3.996  -1.345  -7.121  0.00  0.00    -0.280 N 
ATOM      8  C   UNL     1      -4.299  -0.925  -8.369  0.00  0.00    +0.255 C 
ATOM      9  O   UNL     1      -5.128  -1.518  -9.026  0.00  0.00    -0.272 OA
ATOM     10  C   UNL     1      -3.603   0.284  -8.941  0.00  0.00    +0.325 C 
ATOM     11  O   UNL     1      -3.283   1.197  -7.888  0.00  0.00    -0.481 OA
ATOM     12  H   UNL     1      -4.419  -2.135  -6.751  0.00  0.00    +0.155 HD
ENDROOT
BRANCH   1  13
ATOM     13  N   UNL     1      -0.978  -0.991  -3.359  0.00  0.00    -0.337 N 
ATOM     14  H   UNL     1      -1.216  -1.889  -3.079  0.00  0.00    +0.147 HD
BRANCH  13  15
ATOM     15  C   UNL     1      -0.008  -0.215  -2.583  0.00  0.00    +0.106 C 
ATOM     16  C   UNL     1       1.384  -0.381  -3.194  0.00  0.00    +0.033 C 
BRANCH  15  19
ATOM     17  C   UNL     1      -0.018   1.503   0.010  0.00  0.00    +0.066 C 
ATOM     18  C   UNL     1       0.002  -0.004   0.002  0.00  0.00    +0.050 A 
ATOM     19  C   UNL     1       0.006  -0.708  -1.159  0.00  0.00    +0.032 A 
ATOM     20  S   UNL     1       0.032  -2.379  -0.531  0.00  0.00    -0.078 S 
ATOM     21  C   UNL     1       0.036  -2.009   1.111  0.00  0.00    +0.156 A 
ATOM     22  N   UNL     1       0.023  -0.699   1.122  0.00  0.00    -0.252 NA
ENDBRANCH  15  19
ENDBRANCH  13  15
ENDBRANCH   1  13
TORSDOF 3
