REMARK  Name = ZINC41717783
REMARK  8 active torsions:
REMARK  status: ('A' for Active; 'I' for Inactive)
REMARK    1  A    between atoms: C_1  and  C_2
REMARK    2  A    between atoms: C_2  and  C_18
REMARK    3  A    between atoms: N_8  and  C_9
REMARK    4  A    between atoms: C_9  and  C_10
REMARK    5  A    between atoms: C_10  and  C_11
REMARK    6  A    between atoms: C_10  and  C_12
REMARK    7  A    between atoms: C_10  and  C_13
REMARK    8  A    between atoms: C_14  and  O_17
REMARK                            x       y       z     vdW  Elec       q    Type
REMARK                         _______ _______ _______ _____ _____    ______ ____
ROOT
ATOM      1  C   UNL     1       0.421   1.520   0.399  0.00  0.00    +0.011 C 
ATOM      2  C   UNL     1       0.685   0.016   0.502  0.00  0.00    -0.027 C 
ATOM      3  C   UNL     1       1.247  -0.496  -0.830  0.00  0.00    +0.060 C 
ATOM      4  C   UNL     1       2.645   0.046  -0.998  0.00  0.00    +0.025 A 
ATOM      5  C   UNL     1       3.381   0.567   0.011  0.00  0.00    +0.002 A 
ATOM      6  C   UNL     1       4.614   0.965  -0.525  0.00  0.00    +0.025 A 
ATOM      7  C   UNL     1       4.591   0.674  -1.844  0.00  0.00    +0.086 A 
ATOM      8  N   UNL     1       3.383   0.109  -2.137  0.00  0.00    -0.350 N 
ATOM      9  C   UNL     1       2.911   0.673   1.439  0.00  0.00    +0.147 C 
ATOM     10  C   UNL     1       1.698  -0.249   1.619  0.00  0.00    +0.043 C 
ATOM     11  C   UNL     1      -0.623  -0.711   0.816  0.00  0.00    +0.011 C 
ENDROOT
BRANCH   9  12
ATOM     12  O   UNL     1       3.959   0.268   2.322  0.00  0.00    -0.387 OA
ATOM     13  H   UNL     1       4.763   0.800   2.248  0.00  0.00    +0.210 HD
ENDBRANCH   9  12
BRANCH   8  14
ATOM     14  C   UNL     1       2.954  -0.354  -3.459  0.00  0.00    +0.127 C 
BRANCH  14  15
ATOM     15  C   UNL     1       2.274   0.795  -4.206  0.00  0.00    -0.020 C 
ATOM     16  C   UNL     1       3.237   1.980  -4.304  0.00  0.00    +0.012 C 
ATOM     17  C   UNL     1       1.890   0.332  -5.613  0.00  0.00    +0.012 C 
ATOM     18  C   UNL     1       1.016   1.222  -3.448  0.00  0.00    +0.012 C 
ENDBRANCH  14  15
ENDBRANCH   8  14
TORSDOF 3
