REMARK  Name = ZINC39556100
REMARK  8 active torsions:
REMARK  status: ('A' for Active; 'I' for Inactive)
REMARK    1  A    between atoms: C_1  and  C_2
REMARK    2  A    between atoms: C_4  and  N_8
REMARK    3  A    between atoms: C_9  and  C_11
REMARK    4  A    between atoms: C_11  and  S_12
REMARK    5  A    between atoms: S_12  and  C_13
REMARK    6  A    between atoms: C_23  and  C_28
REMARK    7  A    between atoms: C_28  and  C_29
REMARK    8  A    between atoms: C_28  and  C_30
REMARK                            x       y       z     vdW  Elec       q    Type
REMARK                         _______ _______ _______ _____ _____    ______ ____
ROOT
ATOM      1  C   UNL     1      -2.879  -7.294  -3.447  0.00  0.00    +0.169 C 
ATOM      2  N   UNL     1      -2.755  -6.581  -4.533  0.00  0.00    -0.225 NA
ATOM      3  C   UNL     1      -3.096  -7.060  -5.755  0.00  0.00    +0.077 A 
ATOM      4  C   UNL     1      -2.955  -6.281  -6.906  0.00  0.00    +0.028 A 
ATOM      5  C   UNL     1      -3.310  -6.801  -8.131  0.00  0.00    +0.002 A 
ATOM      6  C   UNL     1      -3.808  -8.092  -8.237  0.00  0.00    +0.001 A 
ATOM      7  C   UNL     1      -3.956  -8.880  -7.114  0.00  0.00    +0.013 A 
ATOM      8  C   UNL     1      -3.602  -8.372  -5.869  0.00  0.00    +0.041 A 
ATOM      9  C   UNL     1      -3.742  -9.178  -4.637  0.00  0.00    +0.139 C 
ATOM     10  N   UNL     1      -4.176 -10.396  -4.471  0.00  0.00    -0.255 NA
ATOM     11  C   UNL     1      -4.104 -10.707  -3.036  0.00  0.00    +0.196 C 
ATOM     12  C   UNL     1      -3.549  -9.443  -2.415  0.00  0.00    +0.252 C 
ATOM     13  O   UNL     1      -3.320  -9.242  -1.242  0.00  0.00    -0.272 OA
ATOM     14  N   UNL     1      -3.357  -8.588  -3.445  0.00  0.00    -0.200 N 
ENDROOT
BRANCH  11  15
ATOM     15  C   UNL     1      -5.497 -11.014  -2.483  0.00  0.00    +0.016 C 
ATOM     16  C   UNL     1      -6.071 -12.239  -3.198  0.00  0.00    +0.010 C 
ATOM     17  C   UNL     1      -5.399 -11.298  -0.983  0.00  0.00    +0.010 C 
ENDBRANCH  11  15
BRANCH   1  18
ATOM     18  S   UNL     1      -2.407  -6.573  -1.910  0.00  0.00    -0.080 S 
BRANCH  18  19
ATOM     19  C   UNL     1      -1.851  -4.906  -2.361  0.00  0.00    +0.172 C 
BRANCH  19  21
ATOM     20  N   UNL     1      -0.957  -2.905  -1.213  0.00  0.00    -0.288 N 
ATOM     21  C   UNL     1      -1.413  -4.170  -1.120  0.00  0.00    +0.225 C 
ATOM     22  O   UNL     1      -1.470  -4.717  -0.039  0.00  0.00    -0.275 OA
ATOM     23  H   UNL     1      -0.911  -2.468  -2.078  0.00  0.00    +0.151 HD
BRANCH  20  27
ATOM     24  C   UNL     1      -0.018   1.503   0.010  0.00  0.00    +0.067 C 
ATOM     25  C   UNL     1       0.002  -0.004   0.002  0.00  0.00    +0.060 C 
ATOM     26  C   UNL     1      -1.086  -0.777   0.003  0.00  0.00    +0.045 C 
ATOM     27  C   UNL     1      -0.531  -2.190  -0.007  0.00  0.00    +0.239 C 
ATOM     28  N   UNL     1       0.926  -1.973  -0.013  0.00  0.00    -0.160 NA
ATOM     29  N   UNL     1       1.125  -0.756  -0.013  0.00  0.00    -0.157 NA
ENDBRANCH  20  27
ENDBRANCH  19  21
ENDBRANCH  18  19
ENDBRANCH   1  18
TORSDOF 5
