REMARK  Name = ZINC16887549
REMARK  4 active torsions:
REMARK  status: ('A' for Active; 'I' for Inactive)
REMARK    1  A    between atoms: C_5  and  O_8
REMARK    2  A    between atoms: C_6  and  O_7
REMARK    3  A    between atoms: C_14  and  O_22
REMARK    4  A    between atoms: C_17  and  C_18
REMARK                            x       y       z     vdW  Elec       q    Type
REMARK                         _______ _______ _______ _____ _____    ______ ____
ROOT
ATOM      1  C   UNL     1      -1.331   7.453  -0.126  0.00  0.00    +0.061 A 
ATOM      2  C   UNL     1      -1.270   6.048  -0.043  0.00  0.00    +0.029 A 
ATOM      3  C   UNL     1      -2.462   5.293  -0.035  0.00  0.00    +0.140 A 
ATOM      4  C   UNL     1      -3.684   5.949  -0.108  0.00  0.00    +0.096 A 
ATOM      5  C   UNL     1      -3.726   7.329  -0.189  0.00  0.00    +0.162 A 
ATOM      6  C   UNL     1      -2.542   8.078  -0.198  0.00  0.00    +0.159 A 
ATOM      7  O   UNL     1      -2.432   3.945   0.044  0.00  0.00    -0.455 OA
ATOM      8  C   UNL     1      -1.265   3.275   0.117  0.00  0.00    +0.140 A 
ATOM      9  C   UNL     1      -1.243   1.897   0.191  0.00  0.00    +0.101 A 
ATOM     10  C   UNL     1      -0.017   1.228   0.271  0.00  0.00    +0.224 A 
ATOM     11  O   UNL     1      -0.001   0.005   0.342  0.00  0.00    -0.284 OA
ATOM     12  C   UNL     1       1.204   1.941   0.266  0.00  0.00    +0.164 A 
ATOM     13  C   UNL     1       1.220   3.296   0.188  0.00  0.00    +0.061 A 
ATOM     14  C   UNL     1       0.002   4.008   0.112  0.00  0.00    +0.029 A 
ATOM     15  C   UNL     1      -0.020   5.400   0.031  0.00  0.00    +0.024 A 
ENDROOT
BRANCH  15  16
ATOM     16  C   UNL     1       1.262   6.192   0.023  0.00  0.00    +0.217 C 
ATOM     17 CL   UNL     1       2.576   5.202  -0.712  0.00  0.00    -0.078 Cl
ATOM     18 CL   UNL     1       1.032   7.698  -0.942  0.00  0.00    -0.078 Cl
ATOM     19 CL   UNL     1       1.710   6.626   1.715  0.00  0.00    -0.078 Cl
ENDBRANCH  15  16
BRANCH   6  20
ATOM     20  O   UNL     1      -2.599   9.434  -0.279  0.00  0.00    -0.503 OA
ATOM     21  H   UNL     1      -2.642   9.878   0.579  0.00  0.00    +0.292 HD
ENDBRANCH   6  20
BRANCH   5  22
ATOM     22  O   UNL     1      -4.924   7.963  -0.260  0.00  0.00    -0.503 OA
ATOM     23  H   UNL     1      -5.296   8.198   0.601  0.00  0.00    +0.292 HD
ENDBRANCH   5  22
BRANCH  12  24
ATOM     24  O   UNL     1       2.379   1.260   0.340  0.00  0.00    -0.503 OA
ATOM     25  H   UNL     1       2.745   1.012  -0.520  0.00  0.00    +0.292 HD
ENDBRANCH  12  24
TORSDOF 4
