REMARK  Name = ZINC08412412
REMARK  8 active torsions:
REMARK  status: ('A' for Active; 'I' for Inactive)
REMARK    1  A    between atoms: C_3  and  N_22
REMARK    2  A    between atoms: C_6  and  N_7
REMARK    3  A    between atoms: C_11  and  N_71
REMARK    4  A    between atoms: C_15  and  C_16
REMARK    5  A    between atoms: C_15  and  N_71
REMARK    6  A    between atoms: C_26  and  N_74
REMARK    7  A    between atoms: C_30  and  C_31
REMARK    8  A    between atoms: C_30  and  N_74
REMARK                            x       y       z     vdW  Elec       q    Type
REMARK                         _______ _______ _______ _____ _____    ______ ____
ROOT
ATOM      1  C   UNL     1       0.003   7.454   6.542  0.00  0.00    +0.026 A 
ATOM      2  C   UNL     1       0.520   8.586   7.137  0.00  0.00    +0.026 A 
ATOM      3  C   UNL     1       1.282   8.476   8.293  0.00  0.00    +0.044 A 
ATOM      4  C   UNL     1       1.520   7.228   8.851  0.00  0.00    +0.026 A 
ATOM      5  C   UNL     1       0.999   6.096   8.258  0.00  0.00    +0.026 A 
ATOM      6  C   UNL     1       0.237   6.205   7.103  0.00  0.00    +0.044 A 
ENDROOT
BRANCH   6   7
ATOM      7  N   UNL     1      -0.292   5.055   6.500  0.00  0.00    -0.212 N 
ATOM      8  C   UNL     1       0.474   4.128   5.911  0.00  0.00    +0.225 C 
ATOM      9  O   UNL     1       1.683   4.165   5.828  0.00  0.00    -0.275 OA
ATOM     10  C   UNL     1      -0.410   3.022   5.366  0.00  0.00    +0.090 C 
ATOM     11  C   UNL     1      -1.832   3.482   5.745  0.00  0.00    +0.026 C 
ATOM     12  C   UNL     1      -1.605   4.793   6.465  0.00  0.00    +0.213 C 
ATOM     13  O   UNL     1      -2.474   5.495   6.936  0.00  0.00    -0.277 OA
BRANCH  11  14
ATOM     14  N   UNL     1      -2.643   3.690   4.531  0.00  0.00    +0.387 N 
ATOM     15  H   UNL     1      -2.401   2.975   3.835  0.00  0.00    -0.085 HD
ATOM     16  H   UNL     1      -2.446   4.622   4.147  0.00  0.00    -0.085 HD
BRANCH  14  17
ATOM     17  C   UNL     1      -4.080   3.590   4.851  0.00  0.00    -0.078 C 
BRANCH  17  18
ATOM     18  C   UNL     1      -4.895   3.809   3.575  0.00  0.00    -0.028 C 
ATOM     19  C   UNL     1      -4.615   2.673   2.589  0.00  0.00    +0.002 C 
ATOM     20  C   UNL     1      -5.430   2.893   1.313  0.00  0.00    +0.000 C 
ATOM     21  C   UNL     1      -6.921   2.914   1.657  0.00  0.00    +0.000 C 
ATOM     22  C   UNL     1      -7.200   4.051   2.643  0.00  0.00    +0.000 C 
ATOM     23  C   UNL     1      -6.385   3.831   3.919  0.00  0.00    +0.002 C 
ENDBRANCH  17  18
ENDBRANCH  14  17
ENDBRANCH  11  14
ENDBRANCH   6   7
BRANCH   3  24
ATOM     24  N   UNL     1       1.811   9.627   8.896  0.00  0.00    -0.212 N 
ATOM     25  C   UNL     1       1.392  10.081  10.084  0.00  0.00    +0.225 C 
ATOM     26  O   UNL     1       0.529   9.570  10.765  0.00  0.00    -0.275 OA
ATOM     27  C   UNL     1       2.168  11.329  10.442  0.00  0.00    +0.090 C 
ATOM     28  C   UNL     1       3.111  11.526   9.238  0.00  0.00    +0.026 C 
ATOM     29  C   UNL     1       2.773  10.365   8.329  0.00  0.00    +0.213 C 
ATOM     30  O   UNL     1       3.292  10.139   7.257  0.00  0.00    -0.277 OA
BRANCH  28  31
ATOM     31  N   UNL     1       4.519  11.453   9.674  0.00  0.00    +0.387 N 
ATOM     32  H   UNL     1       4.792  10.468   9.771  0.00  0.00    -0.085 HD
ATOM     33  H   UNL     1       4.618  11.926  10.580  0.00  0.00    -0.085 HD
BRANCH  31  34
ATOM     34  C   UNL     1       5.396  12.107   8.685  0.00  0.00    -0.078 C 
BRANCH  34  35
ATOM     35  C   UNL     1       6.847  12.015   9.164  0.00  0.00    -0.028 C 
ATOM     36  C   UNL     1       7.011  12.822  10.453  0.00  0.00    +0.002 C 
ATOM     37  C   UNL     1       8.461  12.730  10.931  0.00  0.00    +0.000 C 
ATOM     38  C   UNL     1       9.390  13.294   9.854  0.00  0.00    +0.000 C 
ATOM     39  C   UNL     1       9.226  12.487   8.565  0.00  0.00    +0.000 C 
ATOM     40  C   UNL     1       7.775  12.579   8.087  0.00  0.00    +0.002 C 
ENDBRANCH  34  35
ENDBRANCH  31  34
ENDBRANCH  28  31
ENDBRANCH   3  24
TORSDOF 8
