REMARK  Name = ZINC39889985
REMARK  7 active torsions:
REMARK  status: ('A' for Active; 'I' for Inactive)
REMARK    1  A    between atoms: C_1  and  C_2
REMARK    2  A    between atoms: C_6  and  C_8
REMARK    3  A    between atoms: C_8  and  N_9
REMARK    4  A    between atoms: N_32  and  C_33
REMARK    5  A    between atoms: C_33  and  C_34
REMARK    6  A    between atoms: C_34  and  O_35
REMARK    7  A    between atoms: O_35  and  C_36
REMARK                            x       y       z     vdW  Elec       q    Type
REMARK                         _______ _______ _______ _____ _____    ______ ____
ROOT
ATOM      1  N   UNL     1       1.440  -3.073   2.903  0.00  0.00    -0.264 N 
ATOM      2  C   UNL     1       2.184  -4.181   2.538  0.00  0.00    +0.043 A 
ATOM      3  C   UNL     1       1.818  -5.272   1.748  0.00  0.00    +0.024 A 
ATOM      4  C   UNL     1       2.774  -6.255   1.542  0.00  0.00    +0.002 A 
ATOM      5  C   UNL     1       4.038  -6.170   2.088  0.00  0.00    +0.000 A 
ATOM      6  C   UNL     1       4.415  -5.088   2.877  0.00  0.00    +0.008 A 
ATOM      7  C   UNL     1       3.470  -4.108   3.089  0.00  0.00    +0.011 A 
ATOM      8  C   UNL     1       3.517  -2.833   3.868  0.00  0.00    +0.174 C 
ATOM      9  C   UNL     1       2.145  -2.224   3.681  0.00  0.00    +0.253 C 
ATOM     10  O   UNL     1       1.752  -1.175   4.144  0.00  0.00    -0.272 OA
ATOM     11  C   UNL     1       4.587  -1.911   3.399  0.00  0.00    +0.084 A 
ATOM     12  C   UNL     1       4.857  -1.322   2.083  0.00  0.00    +0.199 A 
ATOM     13  O   UNL     1       4.080  -1.398   1.147  0.00  0.00    -0.287 OA
ATOM     14  C   UNL     1       6.164  -0.624   1.998  0.00  0.00    +0.066 A 
ATOM     15  C   UNL     1       6.648  -0.178   0.768  0.00  0.00    +0.035 A 
ATOM     16  C   UNL     1       7.866   0.463   0.707  0.00  0.00    +0.042 A 
ATOM     17  C   UNL     1       8.606   0.663   1.866  0.00  0.00    +0.023 A 
ATOM     18  C   UNL     1       8.137   0.230   3.085  0.00  0.00    +0.048 A 
ATOM     19  C   UNL     1       6.906  -0.420   3.173  0.00  0.00    +0.140 A 
ATOM     20  O   UNL     1       6.464  -0.825   4.386  0.00  0.00    -0.450 OA
ATOM     21  C   UNL     1       5.396  -1.642   4.468  0.00  0.00    +0.200 A 
ATOM     22  C   UNL     1       4.882  -2.383   5.634  0.00  0.00    +0.284 C 
ATOM     23  O   UNL     1       5.377  -2.365   6.744  0.00  0.00    -0.267 OA
ATOM     24  N   UNL     1       3.780  -3.083   5.290  0.00  0.00    -0.271 N 
ATOM     25 CL   UNL     1       8.477   1.023  -0.819  0.00  0.00    -0.084 Cl
ENDROOT
BRANCH   1  26
ATOM     26  C   UNL     1       0.054  -2.845   2.489  0.00  0.00    +0.148 C 
BRANCH  26  32
ATOM     27  C   UNL     1      -0.018   1.503   0.010  0.00  0.00    +0.044 C 
ATOM     28  C   UNL     1       0.002  -0.004   0.002  0.00  0.00    -0.050 A 
ATOM     29  C   UNL     1       0.006  -0.689  -1.199  0.00  0.00    +0.003 A 
ATOM     30  C   UNL     1       0.025  -2.071  -1.207  0.00  0.00    +0.001 A 
ATOM     31  C   UNL     1       0.040  -2.768  -0.013  0.00  0.00    +0.005 A 
ATOM     32  C   UNL     1       0.037  -2.084   1.188  0.00  0.00    -0.029 A 
ATOM     33  C   UNL     1       0.023  -0.702   1.195  0.00  0.00    +0.008 A 
ENDBRANCH  26  32
ENDBRANCH   1  26
BRANCH  24  34
ATOM     34  C   UNL     1       2.988  -3.939   6.177  0.00  0.00    +0.138 C 
BRANCH  34  35
ATOM     35  C   UNL     1       3.539  -5.366   6.135  0.00  0.00    +0.178 C 
BRANCH  35  36
ATOM     36  O   UNL     1       4.862  -5.382   6.675  0.00  0.00    -0.381 OA
ATOM     37  C   UNL     1       5.472  -6.674   6.682  0.00  0.00    +0.194 C 
ENDBRANCH  35  36
ENDBRANCH  34  35
ENDBRANCH  24  34
TORSDOF 5
