REMARK  Name = ZINC12809453
REMARK  9 active torsions:
REMARK  status: ('A' for Active; 'I' for Inactive)
REMARK    1  A    between atoms: C_1  and  C_2
REMARK    2  A    between atoms: C_8  and  N_10
REMARK    3  A    between atoms: N_15  and  C_18
REMARK    4  A    between atoms: C_18  and  C_19
REMARK    5  A    between atoms: N_21  and  C_22
REMARK    6  A    between atoms: C_27  and  C_28
REMARK    7  A    between atoms: N_30  and  C_31
REMARK    8  A    between atoms: C_31  and  C_32
REMARK    9  A    between atoms: C_32  and  C_33
REMARK                            x       y       z     vdW  Elec       q    Type
REMARK                         _______ _______ _______ _____ _____    ______ ____
ROOT
ATOM      1  C   UNL     1       4.094   0.507  -1.448  0.00  0.00    +0.235 C 
ATOM      2  O   UNL     1       3.295   0.552  -2.359  0.00  0.00    -0.274 OA
ATOM      3  N   UNL     1       5.413   0.414  -1.711  0.00  0.00    -0.284 N 
ATOM      4  H   UNL     1       6.056   0.442  -0.986  0.00  0.00    +0.155 HD
ENDROOT
BRANCH   3   5
ATOM      5  C   UNL     1       5.852   0.276  -3.026  0.00  0.00    +0.046 A 
ATOM      6  C   UNL     1       5.179   0.919  -4.057  0.00  0.00    +0.024 A 
ATOM      7  C   UNL     1       5.619   0.784  -5.359  0.00  0.00    +0.002 A 
ATOM      8  C   UNL     1       6.725   0.002  -5.648  0.00  0.00    +0.001 A 
ATOM      9  C   UNL     1       7.402  -0.647  -4.638  0.00  0.00    +0.015 A 
ATOM     10  C   UNL     1       6.972  -0.517  -3.316  0.00  0.00    +0.058 A 
BRANCH  10  11
ATOM     11  C   UNL     1       7.692  -1.209  -2.230  0.00  0.00    +0.246 C 
ATOM     12  O   UNL     1       7.259  -1.174  -1.094  0.00  0.00    -0.270 OA
ATOM     13  N   UNL     1       8.830  -1.879  -2.497  0.00  0.00    -0.311 N 
ATOM     14  H   UNL     1       9.176  -1.907  -3.402  0.00  0.00    +0.149 HD
BRANCH  13  15
ATOM     15  C   UNL     1       9.545  -2.567  -1.418  0.00  0.00    +0.109 C 
BRANCH  15  16
ATOM     16  C   UNL     1      10.794  -3.244  -1.986  0.00  0.00    +0.054 C 
BRANCH  16  17
ATOM     17  C   UNL     1      11.530  -3.951  -0.876  0.00  0.00    -0.046 A 
ATOM     18  C   UNL     1      12.506  -3.284  -0.159  0.00  0.00    +0.004 A 
ATOM     19  C   UNL     1      13.177  -3.931   0.861  0.00  0.00    +0.000 A 
ATOM     20  C   UNL     1      12.880  -5.248   1.158  0.00  0.00    +0.000 A 
ATOM     21  C   UNL     1      11.908  -5.917   0.438  0.00  0.00    +0.000 A 
ATOM     22  C   UNL     1      11.233  -5.268  -0.580  0.00  0.00    +0.004 A 
ENDBRANCH  16  17
ENDBRANCH  15  16
ENDBRANCH  13  15
ENDBRANCH  10  11
ENDBRANCH   3   5
BRANCH   1  23
ATOM     23  C   UNL     1       3.613   0.555  -0.020  0.00  0.00    +0.214 C 
BRANCH  23  29
ATOM     24  N   UNL     1       0.021   0.036   0.035  0.00  0.00    -0.214 N 
ATOM     25  C   UNL     1       0.003   1.386   0.023  0.00  0.00    +0.310 C 
ATOM     26  O   UNL     1      -0.972   2.108   0.026  0.00  0.00    -0.264 OA
ATOM     27  C   UNL     1       1.443   1.805  -0.002  0.00  0.00    +0.310 C 
ATOM     28  O   UNL     1       1.879   2.937  -0.018  0.00  0.00    -0.264 OA
ATOM     29  N   UNL     1       2.151   0.655  -0.001  0.00  0.00    -0.209 N 
ATOM     30  C   UNL     1       1.298  -0.381   0.021  0.00  0.00    +0.319 C 
ATOM     31  O   UNL     1       1.637  -1.548   0.028  0.00  0.00    -0.252 OA
BRANCH  24  38
ATOM     32  C   UNL     1      -1.123  -0.810   2.558  0.00  0.00    +0.009 C 
ATOM     33  C   UNL     1      -1.979  -0.542   1.318  0.00  0.00    +0.007 C 
ATOM     34  C   UNL     1      -3.211  -1.449   1.344  0.00  0.00    +0.005 C 
ATOM     35  C   UNL     1      -4.067  -1.182   0.104  0.00  0.00    +0.000 C 
ATOM     36  C   UNL     1      -3.246  -1.472  -1.154  0.00  0.00    +0.002 C 
ATOM     37  C   UNL     1      -2.014  -0.565  -1.180  0.00  0.00    +0.023 C 
ATOM     38  C   UNL     1      -1.158  -0.832   0.060  0.00  0.00    +0.089 C 
ENDBRANCH  24  38
ENDBRANCH  23  29
ENDBRANCH   1  23
TORSDOF 8
