REMARK  Name = ZINC64228613
REMARK  9 active torsions:
REMARK  status: ('A' for Active; 'I' for Inactive)
REMARK    1  A    between atoms: C_1  and  C_2
REMARK    2  A    between atoms: C_5  and  C_8
REMARK    3  A    between atoms: C_8  and  C_9
REMARK    4  A    between atoms: C_8  and  N_25
REMARK    5  A    between atoms: C_9  and  N_10
REMARK    6  A    between atoms: C_16  and  C_19
REMARK    7  A    between atoms: C_21  and  C_24
REMARK    8  A    between atoms: N_25  and  C_26
REMARK    9  A    between atoms: N_25  and  C_27
REMARK                            x       y       z     vdW  Elec       q    Type
REMARK                         _______ _______ _______ _____ _____    ______ ____
ROOT
ATOM      1  N   UNL     1      -0.960  -6.530   0.099  0.00  0.00    -0.300 N 
ATOM      2  C   UNL     1      -1.994  -7.393   0.139  0.00  0.00    +0.302 C 
ATOM      3  O   UNL     1      -3.125  -6.979   0.305  0.00  0.00    -0.253 OA
ATOM      4  N   UNL     1      -1.774  -8.715  -0.004  0.00  0.00    -0.286 N 
ATOM      5  C   UNL     1      -2.900  -9.657  -0.080  0.00  0.00    +0.110 C 
ATOM      6  C   UNL     1      -2.700 -10.750   0.975  0.00  0.00    +0.032 C 
ATOM      7  C   UNL     1      -1.326 -11.395   0.782  0.00  0.00    +0.081 C 
ATOM      8  C   UNL     1      -0.234 -10.339   0.967  0.00  0.00    +0.032 C 
ATOM      9  C   UNL     1      -0.405  -9.241  -0.093  0.00  0.00    +0.110 C 
ATOM     10  H   UNL     1      -0.051  -6.864   0.039  0.00  0.00    +0.150 HD
ENDROOT
BRANCH   7  11
ATOM     11  C   UNL     1      -1.140 -12.494   1.796  0.00  0.00    +0.231 A 
ATOM     12  N   UNL     1      -0.925 -13.752   1.530  0.00  0.00    -0.196 NA
ATOM     13  C   UNL     1      -0.808 -14.449   2.666  0.00  0.00    +0.169 A 
ATOM     14  N   UNL     1      -0.947 -13.637   3.674  0.00  0.00    -0.062 NA
ATOM     15  O   UNL     1      -1.161 -12.345   3.127  0.00  0.00    -0.338 OA
ATOM     16  C   UNL     1      -0.556 -15.931   2.762  0.00  0.00    +0.091 C 
ENDBRANCH   7  11
BRANCH   1  17
ATOM     17  C   UNL     1      -1.208  -5.087   0.146  0.00  0.00    +0.095 C 
BRANCH  17  18
ATOM     18  C   UNL     1       0.112  -4.336  -0.044  0.00  0.00    -0.021 C 
BRANCH  18  23
ATOM     19  C   UNL     1       2.218  -5.448  -5.309  0.00  0.00    +0.044 C 
ATOM     20  C   UNL     1       1.669  -5.158  -3.936  0.00  0.00    -0.050 A 
ATOM     21  C   UNL     1       2.170  -5.828  -2.836  0.00  0.00    +0.003 A 
ATOM     22  C   UNL     1       1.666  -5.562  -1.576  0.00  0.00    +0.002 A 
ATOM     23  C   UNL     1       0.662  -4.626  -1.417  0.00  0.00    -0.059 A 
ATOM     24  C   UNL     1       0.161  -3.955  -2.517  0.00  0.00    +0.002 A 
ATOM     25  C   UNL     1       0.668  -4.218  -3.776  0.00  0.00    +0.003 A 
ENDBRANCH  18  23
BRANCH  18  26
ATOM     26  N   UNL     1      -0.121  -2.893   0.096  0.00  0.00    +0.382 N 
ATOM     27  C   UNL     1      -0.571  -2.599   1.463  0.00  0.00    -0.096 C 
ATOM     28  C   UNL     1       1.126  -2.166  -0.176  0.00  0.00    -0.096 C 
ATOM     29  H   UNL     1      -0.830  -2.601  -0.561  0.00  0.00    -0.082 HD
ENDBRANCH  18  26
ENDBRANCH  17  18
ENDBRANCH   1  17
TORSDOF 5
