REMARK  Name = ZINC12495749
REMARK  10 active torsions:
REMARK  status: ('A' for Active; 'I' for Inactive)
REMARK    1  A    between atoms: C_1  and  C_2
REMARK    2  A    between atoms: C_2  and  C_3
REMARK    3  A    between atoms: C_2  and  C_4
REMARK    4  A    between atoms: C_4  and  C_25
REMARK    5  A    between atoms: C_9  and  C_11
REMARK    6  A    between atoms: C_16  and  O_17
REMARK    7  A    between atoms: O_17  and  C_18
REMARK    8  A    between atoms: N_21  and  C_24
REMARK    9  A    between atoms: C_25  and  O_27
REMARK   10  A    between atoms: O_27  and  C_28
REMARK                            x       y       z     vdW  Elec       q    Type
REMARK                         _______ _______ _______ _____ _____    ______ ____
ROOT
ATOM      1  C   UNL     1       1.263   1.249   0.252  0.00  0.00    +0.046 C 
ATOM      2  C   UNL     1       1.215   2.342  -0.801  0.00  0.00    +0.086 C 
ATOM      3  C   UNL     1       0.281   1.617  -1.847  0.00  0.00    +0.077 C 
ATOM      4  C   UNL     1      -0.818   1.144  -0.984  0.00  0.00    -0.023 C 
ATOM      5  C   UNL     1       0.503   2.427  -3.027  0.00  0.00    +0.224 C 
ATOM      6  O   UNL     1      -0.304   2.694  -3.892  0.00  0.00    -0.275 OA
ATOM      7  N   UNL     1       1.812   2.835  -2.950  0.00  0.00    -0.245 N 
ATOM      8  C   UNL     1       2.365   2.603  -1.721  0.00  0.00    +0.225 C 
ATOM      9  O   UNL     1       3.543   2.610  -1.437  0.00  0.00    -0.275 OA
ATOM     10  C   UNL     1       2.537   3.450  -4.065  0.00  0.00    +0.141 C 
ATOM     11  N   UNL     1      -0.074   0.598   0.194  0.00  0.00    +0.396 N 
ATOM     12  H   UNL     1      -0.594   0.800   1.056  0.00  0.00    -0.083 HD
ATOM     13  H   UNL     1       0.039  -0.417   0.092  0.00  0.00    -0.083 HD
ENDROOT
BRANCH   4  14
ATOM     14  C   UNL     1      -1.613   0.065  -1.672  0.00  0.00    -0.019 A 
ATOM     15  C   UNL     1      -1.281  -1.263  -1.486  0.00  0.00    +0.005 A 
ATOM     16  C   UNL     1      -2.010  -2.254  -2.118  0.00  0.00    +0.000 A 
ATOM     17  C   UNL     1      -3.073  -1.918  -2.936  0.00  0.00    +0.004 A 
ATOM     18  C   UNL     1      -3.409  -0.592  -3.125  0.00  0.00    +0.046 A 
ATOM     19  C   UNL     1      -2.682   0.404  -2.489  0.00  0.00    +0.122 A 
BRANCH  19  20
ATOM     20  O   UNL     1      -3.013   1.710  -2.669  0.00  0.00    -0.495 OA
ATOM     21  C   UNL     1      -4.125   1.985  -3.523  0.00  0.00    +0.277 C 
ENDBRANCH  19  20
ENDBRANCH   4  14
BRANCH   1  23
ATOM     22  C   UNL     1       2.464  -0.793   1.045  0.00  0.00    +0.006 C 
ATOM     23  C   UNL     1       2.362   0.238  -0.081  0.00  0.00    -0.017 C 
ATOM     24  C   UNL     1       2.023  -0.472  -1.393  0.00  0.00    +0.006 C 
ENDBRANCH   1  23
BRANCH   1  25
ATOM     25  C   UNL     1       1.500   1.847   1.615  0.00  0.00    +0.297 C 
ATOM     26  O   UNL     1       2.095   2.893   1.720  0.00  0.00    -0.252 OA
BRANCH  25  27
ATOM     27  O   UNL     1       1.050   1.218   2.711  0.00  0.00    -0.469 OA
ATOM     28  C   UNL     1       1.314   1.852   3.990  0.00  0.00    +0.280 C 
ENDBRANCH  25  27
ENDBRANCH   1  25
TORSDOF 5
