REMARK  Name = ZINC51056820
REMARK  11 active torsions:
REMARK  status: ('A' for Active; 'I' for Inactive)
REMARK    1  A    between atoms: C_1  and  C_2
REMARK    2  A    between atoms: C_2  and  C_3
REMARK    3  A    between atoms: C_3  and  C_4
REMARK    4  A    between atoms: C_4  and  C_6
REMARK    5  A    between atoms: C_4  and  N_7
REMARK    6  A    between atoms: C_8  and  C_10
REMARK    7  A    between atoms: N_15  and  C_17
REMARK    8  A    between atoms: C_17  and  C_19
REMARK    9  A    between atoms: C_17  and  C_20
REMARK   10  A    between atoms: N_22  and  C_23
REMARK   11  A    between atoms: C_26  and  N_29
REMARK                            x       y       z     vdW  Elec       q    Type
REMARK                         _______ _______ _______ _____ _____    ______ ____
ROOT
ATOM      1  C   UNL     1       1.343  -4.951   0.720  0.00  0.00    +0.058 C 
ATOM      2  C   UNL     1       2.444  -3.943   1.059  0.00  0.00    +0.009 C 
ATOM      3  C   UNL     1       2.615  -3.880   2.580  0.00  0.00    -0.018 C 
ATOM      4  C   UNL     1       2.928  -5.281   3.111  0.00  0.00    -0.078 C 
ATOM      5  N   UNL     1       1.826  -6.191   2.778  0.00  0.00    +0.388 N 
ATOM      6  C   UNL     1       1.701  -6.312   1.320  0.00  0.00    -0.065 C 
ATOM      7  H   UNL     1       0.964  -5.829   3.158  0.00  0.00    -0.081 HD
ENDROOT
BRANCH   1   9
ATOM      8  N   UNL     1       0.910  -3.998  -1.521  0.00  0.00    -0.313 N 
ATOM      9  C   UNL     1       1.220  -5.078  -0.776  0.00  0.00    +0.215 C 
ATOM     10  O   UNL     1       1.399  -6.152  -1.311  0.00  0.00    -0.276 OA
ATOM     11  H   UNL     1       0.766  -3.139  -1.093  0.00  0.00    +0.149 HD
BRANCH   8  12
ATOM     12  C   UNL     1       0.790  -4.121  -2.975  0.00  0.00    +0.070 C 
ATOM     13  C   UNL     1      -0.622  -4.590  -3.333  0.00  0.00    +0.028 C 
BRANCH  12  14
ATOM     14  C   UNL     1       1.056  -2.762  -3.626  0.00  0.00    +0.022 C 
BRANCH  14  16
ATOM     15  C   UNL     1       2.774  -0.991  -4.023  0.00  0.00    +0.004 C 
ATOM     16  C   UNL     1       2.508  -2.350  -3.373  0.00  0.00    -0.002 C 
ENDBRANCH  14  16
ENDBRANCH  12  14
ENDBRANCH   8  12
ENDBRANCH   1   9
BRANCH   5  17
ATOM     17  C   UNL     1       2.094  -7.515   3.357  0.00  0.00    +0.016 C 
ATOM     18  C   UNL     1       2.279  -7.382   4.870  0.00  0.00    -0.004 C 
BRANCH  17  19
ATOM     19  C   UNL     1       0.933  -8.432   3.071  0.00  0.00    +0.203 C 
ATOM     20  O   UNL     1      -0.181  -7.975   2.928  0.00  0.00    -0.277 OA
ATOM     21  N   UNL     1       1.133  -9.762   2.975  0.00  0.00    -0.287 N 
ATOM     22  H   UNL     1       2.010 -10.135   3.156  0.00  0.00    +0.155 HD
BRANCH  21  23
ATOM     23  C   UNL     1       0.075 -10.604   2.615  0.00  0.00    +0.033 A 
ATOM     24  C   UNL     1       0.313 -11.718   1.820  0.00  0.00    +0.025 A 
ATOM     25  C   UNL     1      -0.733 -12.547   1.466  0.00  0.00    +0.034 A 
ATOM     26  C   UNL     1      -2.016 -12.270   1.902  0.00  0.00    +0.126 A 
ATOM     27  C   UNL     1      -2.256 -11.161   2.693  0.00  0.00    +0.034 A 
ATOM     28  C   UNL     1      -1.213 -10.331   3.056  0.00  0.00    +0.025 A 
BRANCH  26  29
ATOM     29  N   UNL     1      -3.135 -13.161   1.521  0.00  0.00    +0.056 N 
ATOM     30  O   UNL     1      -2.927 -14.130   0.829  0.00  0.00    -0.126 OA
ATOM     31  O   UNL     1      -4.256 -12.919   1.901  0.00  0.00    -0.126 OA
ENDBRANCH  26  29
ENDBRANCH  21  23
ENDBRANCH  17  19
ENDBRANCH   5  17
TORSDOF 8
