REMARK  Name = ZINC38005081
REMARK  4 active torsions:
REMARK  status: ('A' for Active; 'I' for Inactive)
REMARK    1  A    between atoms: C_1  and  C_2
REMARK    2  A    between atoms: C_2  and  C_3
REMARK    3  A    between atoms: C_4  and  C_17
REMARK    4  A    between atoms: C_8  and  C_16
REMARK                            x       y       z     vdW  Elec       q    Type
REMARK                         _______ _______ _______ _____ _____    ______ ____
ROOT
ATOM      1  C   UNL     1      -1.412  -0.526   0.013  0.00  0.00    +0.019 A 
ATOM      2  C   UNL     1      -2.018  -0.853  -1.147  0.00  0.00    +0.020 A 
ATOM      3  N   UNL     1      -3.286  -1.326  -1.198  0.00  0.00    -0.357 N 
ATOM      4  H   UNL     1      -3.675  -1.547  -2.059  0.00  0.00    +0.166 HD
ATOM      5  C   UNL     1      -4.038  -1.503  -0.057  0.00  0.00    +0.055 A 
ATOM      6  C   UNL     1      -5.340  -1.990  -0.122  0.00  0.00    -0.026 A 
ATOM      7  C   UNL     1      -6.069  -2.157   1.034  0.00  0.00    +0.007 A 
ATOM      8  C   UNL     1      -5.520  -1.844   2.270  0.00  0.00    +0.021 A 
ATOM      9  C   UNL     1      -4.232  -1.359   2.358  0.00  0.00    +0.054 A 
ATOM     10  C   UNL     1      -3.481  -1.185   1.194  0.00  0.00    +0.064 A 
ATOM     11  C   UNL     1      -2.100  -0.677   1.240  0.00  0.00    +0.194 A 
ATOM     12  O   UNL     1      -1.568  -0.391   2.300  0.00  0.00    -0.287 OA
ATOM     13 CL   UNL     1      -3.550  -0.968   3.906  0.00  0.00    -0.083 Cl
ATOM     14  C   UNL     1      -5.951  -2.334  -1.456  0.00  0.00    +0.046 C 
ATOM     15  C   UNL     1      -1.254  -0.686  -2.436  0.00  0.00    +0.064 C 
ENDROOT
BRANCH   1  17
ATOM     16  C   UNL     1      -0.019   1.526   0.010  0.00  0.00    +0.009 C 
ATOM     17  C   UNL     1       0.002  -0.004   0.002  0.00  0.00    +0.037 C 
ENDBRANCH   1  17
TORSDOF 1
