REMARK  Name = ZINC65355624
REMARK  2 active torsions:
REMARK  status: ('A' for Active; 'I' for Inactive)
REMARK    1  A    between atoms: C_4  and  C_9
REMARK    2  A    between atoms: C_5  and  C_7
REMARK                            x       y       z     vdW  Elec       q    Type
REMARK                         _______ _______ _______ _____ _____    ______ ____
ROOT
ATOM      1  C   UNL     1      -0.017   1.374   0.010  0.00  0.00    +0.001 A 
ATOM      2  C   UNL     1       1.168   2.093   0.002  0.00  0.00    +0.001 A 
ATOM      3  C   UNL     1       2.384   1.438  -0.013  0.00  0.00    +0.010 A 
ATOM      4  C   UNL     1       2.427   0.047  -0.021  0.00  0.00    +0.008 A 
ATOM      5  C   UNL     1       1.223  -0.685  -0.013  0.00  0.00    +0.023 A 
ATOM      6  C   UNL     1       0.002  -0.004   0.002  0.00  0.00    +0.012 A 
ENDROOT
BRANCH   4   7
ATOM      7  C   UNL     1       3.728  -0.659  -0.038  0.00  0.00    +0.047 A 
ATOM      8  C   UNL     1       3.899  -1.811   0.729  0.00  0.00    +0.030 A 
ATOM      9  C   UNL     1       5.119  -2.462   0.705  0.00  0.00    +0.054 A 
ATOM     10  C   UNL     1       6.135  -1.936  -0.089  0.00  0.00    +0.195 A 
ATOM     11  C   UNL     1       5.894  -0.784  -0.827  0.00  0.00    +0.134 A 
ATOM     12  N   UNL     1       4.720  -0.191  -0.786  0.00  0.00    -0.358 N 
ATOM     13  O   UNL     1       7.349  -2.544  -0.142  0.00  0.00    -0.286 OA
ATOM     14  H   UNL     1       4.576   0.610  -1.314  0.00  0.00    +0.165 HD
ENDBRANCH   4   7
BRANCH   5  15
ATOM     15  C   UNL     1       1.250  -2.154  -0.022  0.00  0.00    +0.259 C 
ATOM     16  O   UNL     1       0.212  -2.780  -0.015  0.00  0.00    -0.296 OA
ENDBRANCH   5  15
TORSDOF 2
