REMARK  Name = ZINC50900864
REMARK  4 active torsions:
REMARK  status: ('A' for Active; 'I' for Inactive)
REMARK    1  A    between atoms: N_11  and  C_15
REMARK    2  A    between atoms: C_15  and  N_16
REMARK    3  A    between atoms: C_20  and  C_23
REMARK    4  A    between atoms: N_25  and  C_26
REMARK                            x       y       z     vdW  Elec       q    Type
REMARK                         _______ _______ _______ _____ _____    ______ ____
ROOT
ATOM      1  C   UNL     1      -0.019   1.523   0.010  0.00  0.00    +0.000 C 
ATOM      2  C   UNL     1       1.413   2.083  -0.000  0.00  0.00    +0.000 C 
ATOM      3  C   UNL     1       2.247   1.276  -1.002  0.00  0.00    +0.003 C 
ATOM      4  C   UNL     1       1.978   1.647  -2.477  0.00  0.00    +0.035 C 
ATOM      5  C   UNL     1       0.651   1.013  -2.921  0.00  0.00    +0.112 C 
ATOM      6  C   UNL     1       0.552  -0.426  -2.412  0.00  0.00    +0.035 C 
ATOM      7  C   UNL     1      -0.526  -0.534  -1.337  0.00  0.00    +0.003 C 
ATOM      8  C   UNL     1       0.002  -0.004   0.002  0.00  0.00    +0.000 C 
ATOM      9  C   UNL     1       0.789   0.896  -4.454  0.00  0.00    +0.245 C 
ATOM     10  O   UNL     1       1.446   0.072  -5.039  0.00  0.00    -0.273 OA
ATOM     11  N   UNL     1       0.037   1.893  -4.949  0.00  0.00    -0.241 N 
ATOM     12  C   UNL     1      -0.689   2.467  -3.986  0.00  0.00    +0.308 C 
ATOM     13  O   UNL     1      -1.405   3.433  -4.136  0.00  0.00    -0.252 OA
ATOM     14  N   UNL     1      -0.535   1.819  -2.801  0.00  0.00    -0.285 N 
ATOM     15  H   UNL     1      -1.222   1.886  -2.124  0.00  0.00    +0.151 HD
ENDROOT
BRANCH  11  16
ATOM     16  C   UNL     1       0.013   2.295  -6.358  0.00  0.00    +0.043 C 
BRANCH  16  17
ATOM     17  N   UNL     1      -1.025   1.533  -7.067  0.00  0.00    +0.391 N 
ATOM     18  C   UNL     1      -0.671   0.109  -7.066  0.00  0.00    -0.077 C 
ATOM     19  C   UNL     1      -1.788  -0.698  -7.732  0.00  0.00    -0.018 C 
ATOM     20  C   UNL     1      -1.968  -0.216  -9.174  0.00  0.00    +0.009 C 
ATOM     21  C   UNL     1      -2.264   1.286  -9.166  0.00  0.00    +0.058 C 
ATOM     22  C   UNL     1      -1.129   2.020  -8.448  0.00  0.00    -0.064 C 
ATOM     23  H   UNL     1      -1.910   1.658  -6.599  0.00  0.00    -0.079 HD
BRANCH  21  24
ATOM     24  C   UNL     1      -2.368   1.786 -10.584  0.00  0.00    +0.215 C 
ATOM     25  O   UNL     1      -1.612   2.647 -10.981  0.00  0.00    -0.276 OA
ATOM     26  N   UNL     1      -3.302   1.275 -11.412  0.00  0.00    -0.312 N 
ATOM     27  H   UNL     1      -3.906   0.586 -11.094  0.00  0.00    +0.149 HD
BRANCH  26  28
ATOM     28  C   UNL     1      -3.403   1.761 -12.790  0.00  0.00    +0.073 C 
ATOM     29  C   UNL     1      -4.804   2.035 -13.341  0.00  0.00    +0.024 C 
ATOM     30  C   UNL     1      -4.016   0.818 -13.828  0.00  0.00    +0.024 C 
ENDBRANCH  26  28
ENDBRANCH  21  24
ENDBRANCH  16  17
ENDBRANCH  11  16
TORSDOF 4
