REMARK  Name = ZINC10525517
REMARK  9 active torsions:
REMARK  status: ('A' for Active; 'I' for Inactive)
REMARK    1  A    between atoms: C_1  and  C_2
REMARK    2  A    between atoms: C_6  and  S_8
REMARK    3  A    between atoms: S_8  and  C_9
REMARK    4  A    between atoms: C_9  and  C_10
REMARK    5  A    between atoms: N_27  and  C_35
REMARK    6  A    between atoms: N_30  and  C_31
REMARK    7  A    between atoms: C_31  and  C_32
REMARK    8  A    between atoms: C_32  and  C_33
REMARK    9  A    between atoms: C_32  and  C_34
REMARK                            x       y       z     vdW  Elec       q    Type
REMARK                         _______ _______ _______ _____ _____    ______ ____
ROOT
ATOM      1  C   UNL     1      -4.440   3.290   6.034  0.00  0.00    +0.088 C 
ATOM      2  C   UNL     1      -3.793   3.087   4.688  0.00  0.00    +0.130 A 
ATOM      3  N   UNL     1      -2.475   3.064   4.617  0.00  0.00    -0.214 NA
ATOM      4  C   UNL     1      -1.866   2.887   3.453  0.00  0.00    +0.154 A 
ATOM      5  C   UNL     1      -2.650   2.725   2.295  0.00  0.00    +0.114 A 
ATOM      6  C   UNL     1      -4.047   2.757   2.416  0.00  0.00    +0.115 A 
ATOM      7  N   UNL     1      -4.567   2.940   3.632  0.00  0.00    -0.225 NA
ATOM      8  C   UNL     1      -1.971   2.536   1.009  0.00  0.00    +0.268 A 
ATOM      9  O   UNL     1      -2.606   2.396  -0.019  0.00  0.00    -0.267 OA
ATOM     10  N   UNL     1      -0.619   2.515   1.001  0.00  0.00    -0.263 N 
ATOM     11  C   UNL     1       0.085   2.675   2.132  0.00  0.00    +0.333 A 
ATOM     12  O   UNL     1       1.299   2.653   2.070  0.00  0.00    -0.246 OA
ATOM     13  N   UNL     1      -0.493   2.857   3.333  0.00  0.00    -0.277 N 
ATOM     14  C   UNL     1       0.090   2.322  -0.267  0.00  0.00    +0.157 C 
ENDROOT
BRANCH   6  15
ATOM     15  S   UNL     1      -5.085   2.560   1.006  0.00  0.00    -0.100 S 
BRANCH  15  16
ATOM     16  C   UNL     1      -6.711   2.691   1.792  0.00  0.00    +0.112 C 
BRANCH  16  17
ATOM     17  C   UNL     1      -7.787   2.547   0.747  0.00  0.00    -0.019 A 
ATOM     18  C   UNL     1      -8.130   3.662   0.033  0.00  0.00    +0.097 A 
ATOM     19  C   UNL     1      -8.978   3.543  -1.084  0.00  0.00    +0.338 A 
ATOM     20  O   UNL     1      -9.311   4.537  -1.702  0.00  0.00    -0.245 OA
ATOM     21  O   UNL     1      -9.421   2.337  -1.471  0.00  0.00    -0.422 OA
ATOM     22  C   UNL     1      -9.191   1.240  -0.720  0.00  0.00    +0.140 A 
ATOM     23  C   UNL     1      -8.446   1.333   0.471  0.00  0.00    +0.029 A 
ATOM     24  C   UNL     1      -8.466   0.176   1.365  0.00  0.00    -0.007 A 
ATOM     25  C   UNL     1      -8.120   0.225   2.716  0.00  0.00    +0.009 A 
ATOM     26  C   UNL     1      -8.019  -0.924   3.448  0.00  0.00    +0.001 A 
ATOM     27  C   UNL     1      -8.258  -2.165   2.869  0.00  0.00    +0.001 A 
ATOM     28  C   UNL     1      -8.672  -2.249   1.574  0.00  0.00    +0.008 A 
ATOM     29  C   UNL     1      -8.864  -1.077   0.827  0.00  0.00    -0.017 A 
ATOM     30  C   UNL     1      -9.455  -1.133  -0.449  0.00  0.00    +0.012 A 
ATOM     31  C   UNL     1      -9.643  -0.004  -1.173  0.00  0.00    +0.047 A 
ENDBRANCH  16  17
ENDBRANCH  15  16
ENDBRANCH   6  15
BRANCH  13  32
ATOM     32  C   UNL     1       0.343   3.023   4.524  0.00  0.00    +0.131 C 
BRANCH  32  33
ATOM     33  C   UNL     1       0.649   4.508   4.729  0.00  0.00    +0.003 C 
ATOM     34  C   UNL     1      -0.649   5.258   5.038  0.00  0.00    +0.009 C 
ATOM     35  C   UNL     1       1.623   4.671   5.898  0.00  0.00    +0.009 C 
ENDBRANCH  32  33
ENDBRANCH  13  32
TORSDOF 5
