REMARK  Name = ZINC40852104
REMARK  4 active torsions:
REMARK  status: ('A' for Active; 'I' for Inactive)
REMARK    1  A    between atoms: C_1  and  O_2
REMARK    2  A    between atoms: O_2  and  C_3
REMARK    3  A    between atoms: C_6  and  N_9
REMARK    4  A    between atoms: C_16  and  N_23
REMARK                            x       y       z     vdW  Elec       q    Type
REMARK                         _______ _______ _______ _____ _____    ______ ____
ROOT
ATOM      1  N   UNL     1       2.512  -2.502   4.252  0.00  0.00    -0.224 N 
ATOM      2  C   UNL     1       2.468  -3.821   4.342  0.00  0.00    +0.263 C 
ATOM      3  O   UNL     1       1.854  -4.498   3.542  0.00  0.00    -0.269 OA
ATOM      4  C   UNL     1       3.212  -4.429   5.479  0.00  0.00    +0.090 C 
ATOM      5  C   UNL     1       3.350  -5.757   5.831  0.00  0.00    +0.065 C 
ATOM      6  C   UNL     1       2.910  -6.942   5.064  0.00  0.00    +0.012 A 
ATOM      7  C   UNL     1       2.268  -7.100   3.839  0.00  0.00    +0.043 A 
ATOM      8  C   UNL     1       1.983  -8.368   3.375  0.00  0.00    +0.127 A 
ATOM      9  C   UNL     1       2.335  -9.478   4.126  0.00  0.00    +0.034 A 
ATOM     10  C   UNL     1       2.972  -9.332   5.342  0.00  0.00    +0.026 A 
ATOM     11  C   UNL     1       3.269  -8.063   5.827  0.00  0.00    +0.042 A 
ATOM     12  N   UNL     1       3.891  -7.643   6.997  0.00  0.00    -0.281 N 
ATOM     13  C   UNL     1       3.974  -6.303   7.054  0.00  0.00    +0.250 C 
ATOM     14  O   UNL     1       4.472  -5.654   7.954  0.00  0.00    -0.270 OA
ATOM     15  S   UNL     1       3.877  -2.966   6.262  0.00  0.00    -0.060 S 
ATOM     16  C   UNL     1       3.198  -1.755   5.139  0.00  0.00    +0.125 C 
ATOM     17  S   UNL     1       3.376  -0.053   5.181  0.00  0.00    -0.027 S 
ATOM     18  H   UNL     1       4.228  -8.241   7.682  0.00  0.00    +0.155 HD
ENDROOT
BRANCH   1  22
ATOM     19  C   UNL     1       0.489  -0.609   1.133  0.00  0.00    +0.120 A 
ATOM     20  C   UNL     1       1.876  -0.594   1.171  0.00  0.00    +0.047 A 
ATOM     21  C   UNL     1       2.546  -1.220   2.203  0.00  0.00    +0.027 A 
ATOM     22  C   UNL     1       1.831  -1.865   3.203  0.00  0.00    +0.043 A 
ATOM     23  C   UNL     1       0.444  -1.881   3.165  0.00  0.00    +0.027 A 
ATOM     24  C   UNL     1      -0.225  -1.249   2.135  0.00  0.00    +0.047 A 
BRANCH  19  26
ATOM     25  C   UNL     1       0.628   0.646  -0.882  0.00  0.00    +0.277 C 
ATOM     26  O   UNL     1      -0.170   0.007   0.116  0.00  0.00    -0.495 OA
ENDBRANCH  19  26
ENDBRANCH   1  22
BRANCH   8  27
ATOM     27  N   UNL     1       1.300  -8.543   2.074  0.00  0.00    +0.056 N 
ATOM     28  O   UNL     1       0.992  -7.575   1.418  0.00  0.00    -0.126 OA
ATOM     29  O   UNL     1       1.050  -9.653   1.667  0.00  0.00    -0.126 OA
ENDBRANCH   8  27
TORSDOF 3
