REMARK  Name = ZINC09832057
REMARK  11 active torsions:
REMARK  status: ('A' for Active; 'I' for Inactive)
REMARK    1  A    between atoms: C_1  and  C_2
REMARK    2  A    between atoms: C_2  and  O_3
REMARK    3  A    between atoms: O_3  and  C_4
REMARK    4  A    between atoms: N_12  and  C_13
REMARK    5  A    between atoms: C_13  and  C_15
REMARK    6  A    between atoms: C_18  and  S_21
REMARK    7  A    between atoms: S_21  and  N_24
REMARK    8  A    between atoms: N_24  and  C_25
REMARK    9  A    between atoms: N_24  and  C_26
REMARK   10  A    between atoms: C_26  and  C_27
REMARK   11  A    between atoms: N_33  and  C_34
REMARK                            x       y       z     vdW  Elec       q    Type
REMARK                         _______ _______ _______ _____ _____    ______ ____
ROOT
ATOM      1  C   UNL     1      -3.541  -9.153  -0.704  0.00  0.00    +0.039 A 
ATOM      2  C   UNL     1      -4.896  -9.469  -0.798  0.00  0.00    +0.015 A 
ATOM      3  C   UNL     1      -5.281 -10.731  -1.204  0.00  0.00    +0.029 A 
ATOM      4  C   UNL     1      -4.326 -11.682  -1.516  0.00  0.00    +0.106 A 
ATOM      5  C   UNL     1      -2.980 -11.374  -1.424  0.00  0.00    +0.029 A 
ATOM      6  C   UNL     1      -2.583 -10.114  -1.026  0.00  0.00    +0.015 A 
ENDROOT
BRANCH   4   7
ATOM      7  S   UNL     1      -4.825 -13.290  -2.033  0.00  0.00    +0.061 S 
ATOM      8  O   UNL     1      -3.743 -14.164  -1.742  0.00  0.00    -0.153 OA
ATOM      9  O   UNL     1      -6.132 -13.496  -1.513  0.00  0.00    -0.153 OA
BRANCH   7  10
ATOM     10  N   UNL     1      -4.972 -13.251  -3.682  0.00  0.00    -0.177 NA
ATOM     11  C   UNL     1      -3.821 -13.574  -4.528  0.00  0.00    +0.131 C 
BRANCH  10  12
ATOM     12  C   UNL     1      -6.254 -12.894  -4.295  0.00  0.00    +0.140 C 
BRANCH  12  13
ATOM     13  C   UNL     1      -6.263 -11.399  -4.624  0.00  0.00    +0.134 C 
ATOM     14  C   UNL     1      -7.652 -10.989  -5.158  0.00  0.00    +0.035 C 
ATOM     15  C   UNL     1      -7.288  -9.987  -6.287  0.00  0.00    +0.031 C 
ATOM     16  C   UNL     1      -5.969 -10.606  -6.816  0.00  0.00    +0.160 C 
ATOM     17  O   UNL     1      -5.303 -11.122  -5.650  0.00  0.00    -0.375 OA
ENDBRANCH  12  13
ENDBRANCH  10  12
ENDBRANCH   7  10
ENDBRANCH   4   7
BRANCH   1  18
ATOM     18  C   UNL     1      -3.121  -7.801  -0.269  0.00  0.00    +0.269 C 
ATOM     19  O   UNL     1      -1.936  -7.526  -0.192  0.00  0.00    -0.268 OA
BRANCH  18  28
ATOM     20  C   UNL     1      -6.150  -6.547   5.892  0.00  0.00    +0.122 A 
ATOM     21  C   UNL     1      -5.147  -7.507   5.957  0.00  0.00    +0.048 A 
ATOM     22  C   UNL     1      -4.431  -7.864   4.838  0.00  0.00    +0.030 A 
ATOM     23  C   UNL     1      -4.697  -7.266   3.598  0.00  0.00    +0.058 A 
ATOM     24  C   UNL     1      -5.714  -6.301   3.559  0.00  0.00    +0.042 A 
ATOM     25  C   UNL     1      -6.434  -5.945   4.674  0.00  0.00    +0.062 A 
ATOM     26  S   UNL     1      -5.734  -5.804   1.856  0.00  0.00    -0.052 S 
ATOM     27  C   UNL     1      -4.505  -6.796   1.281  0.00  0.00    +0.166 A 
ATOM     28  N   UNL     1      -4.042  -6.882   0.039  0.00  0.00    -0.152 NA
ATOM     29  N   UNL     1      -4.093  -7.489   2.373  0.00  0.00    -0.324 N 
ATOM     30  C   UNL     1      -3.012  -8.471   2.256  0.00  0.00    +0.151 C 
BRANCH  20  31
ATOM     31  O   UNL     1      -6.848  -6.206   7.008  0.00  0.00    -0.492 OA
BRANCH  31  33
ATOM     32  C   UNL     1      -7.381  -6.360   9.360  0.00  0.00    +0.048 C 
ATOM     33  C   UNL     1      -6.495  -6.871   8.223  0.00  0.00    +0.225 C 
ENDBRANCH  31  33
ENDBRANCH  20  31
ENDBRANCH  18  28
ENDBRANCH   1  18
TORSDOF 8
