REMARK  Name = ZINC66783171
REMARK  4 active torsions:
REMARK  status: ('A' for Active; 'I' for Inactive)
REMARK    1  A    between atoms: C_1  and  C_2
REMARK    2  A    between atoms: C_6  and  C_7
REMARK    3  A    between atoms: N_9  and  N_10
REMARK    4  A    between atoms: C_11  and  C_13
REMARK                            x       y       z     vdW  Elec       q    Type
REMARK                         _______ _______ _______ _____ _____    ______ ____
ROOT
ATOM      1  N   UNL     1       0.058  -0.732   4.900  0.00  0.00    -0.229 N 
ATOM      2  C   UNL     1       0.080  -1.625   5.909  0.00  0.00    +0.280 C 
ATOM      3  O   UNL     1       0.094  -2.816   5.667  0.00  0.00    -0.267 OA
ATOM      4  H   UNL     1       0.047   0.219   5.094  0.00  0.00    +0.173 HD
ENDROOT
BRANCH   2   5
ATOM      5  C   UNL     1       0.087  -1.155   7.313  0.00  0.00    +0.149 A 
ATOM      6  C   UNL     1       0.115  -2.081   8.362  0.00  0.00    +0.038 A 
ATOM      7  C   UNL     1       0.120  -1.593   9.658  0.00  0.00    +0.051 A 
ATOM      8  C   UNL     1       0.097  -0.211   9.838  0.00  0.00    +0.161 A 
ATOM      9  N   UNL     1       0.071   0.594   8.783  0.00  0.00    -0.130 NA
ATOM     10  N   UNL     1       0.071   0.145   7.580  0.00  0.00    -0.143 NA
ATOM     11  N   UNL     1       0.101   0.326  11.125  0.00  0.00    -0.289 N 
ATOM     12  C   UNL     1      -0.021   1.652  11.457  0.00  0.00    +0.114 A 
ATOM     13  C   UNL     1       0.033   1.724  12.800  0.00  0.00    +0.130 A 
ATOM     14  N   UNL     1       0.184   0.481  13.282  0.00  0.00    -0.244 NA
ATOM     15  C   UNL     1       0.221  -0.366  12.290  0.00  0.00    +0.205 A 
ENDBRANCH   2   5
BRANCH   1  18
ATOM     16  C   UNL     1       0.030  -0.283   2.562  0.00  0.00    +0.267 C 
ATOM     17  O   UNL     1       0.016   0.910   2.805  0.00  0.00    -0.268 OA
ATOM     18  N   UNL     1       0.052  -1.176   3.571  0.00  0.00    -0.230 N 
ATOM     19  H   UNL     1       0.063  -2.126   3.378  0.00  0.00    +0.173 HD
BRANCH  16  25
ATOM     20  C   UNL     1      -0.018   1.503   0.010  0.00  0.00    +0.045 C 
ATOM     21  C   UNL     1       0.002  -0.004   0.002  0.00  0.00    -0.031 A 
ATOM     22  C   UNL     1       0.007  -0.729  -1.166  0.00  0.00    +0.011 A 
ATOM     23  C   UNL     1       0.026  -2.083  -1.101  0.00  0.00    +0.046 A 
ATOM     24  S   UNL     1       0.038  -2.416   0.545  0.00  0.00    -0.092 S 
ATOM     25  C   UNL     1       0.023  -0.748   1.172  0.00  0.00    +0.078 A 
ENDBRANCH  16  25
ENDBRANCH   1  18
TORSDOF 3
