REMARK  Name = ZINC12323339
REMARK  6 active torsions:
REMARK  status: ('A' for Active; 'I' for Inactive)
REMARK    1  A    between atoms: C_1  and  N_46
REMARK    2  A    between atoms: C_2  and  N_46
REMARK    3  A    between atoms: C_3  and  C_4
REMARK    4  A    between atoms: C_3  and  N_46
REMARK    5  A    between atoms: C_4  and  N_5
REMARK    6  A    between atoms: C_19  and  C_21
REMARK                            x       y       z     vdW  Elec       q    Type
REMARK                         _______ _______ _______ _____ _____    ______ ____
ROOT
ATOM      1  N   UNL     1      -5.273   3.284   0.067  0.00  0.00    -0.315 N 
ATOM      2  C   UNL     1      -3.959   2.871   0.053  0.00  0.00    +0.219 A 
ATOM      3  N   UNL     1      -3.691   1.585   0.043  0.00  0.00    -0.207 NA
ATOM      4  C   UNL     1      -2.443   1.129   0.029  0.00  0.00    +0.116 A 
ATOM      5  C   UNL     1      -1.336   1.987   0.020  0.00  0.00    +0.055 A 
ATOM      6  C   UNL     1      -0.016   1.340   0.009  0.00  0.00    -0.024 A 
ATOM      7  C   UNL     1       0.002  -0.004   0.002  0.00  0.00    -0.004 A 
ATOM      8  S   UNL     1      -1.709  -0.486   0.012  0.00  0.00    -0.073 S 
ATOM      9  C   UNL     1       1.403  -0.553  -0.011  0.00  0.00    +0.043 C 
ATOM     10  C   UNL     1       2.288   0.634   0.429  0.00  0.00    +0.010 C 
ATOM     11  C   UNL     1       1.431   1.841  -0.002  0.00  0.00    +0.037 C 
ATOM     12  C   UNL     1      -1.653   3.428   0.037  0.00  0.00    +0.170 A 
ATOM     13  N   UNL     1      -2.965   3.807   0.051  0.00  0.00    -0.181 N 
ATOM     14  N   UNL     1      -2.965   5.210   0.060  0.00  0.00    -0.139 NA
ATOM     15  C   UNL     1      -1.703   5.596   0.052  0.00  0.00    +0.218 A 
ATOM     16  N   UNL     1      -0.910   4.516   0.038  0.00  0.00    -0.203 NA
ATOM     17  H   UNL     1      -5.483   4.231   0.075  0.00  0.00    +0.149 HD
ENDROOT
BRANCH  15  18
ATOM     18  C   UNL     1      -1.238   6.999   0.056  0.00  0.00    +0.173 A 
ATOM     19  C   UNL     1      -2.031   8.102   0.070  0.00  0.00    +0.053 A 
ATOM     20  C   UNL     1      -1.173   9.220   0.069  0.00  0.00    +0.042 A 
ATOM     21  C   UNL     1       0.089   8.748   0.055  0.00  0.00    +0.196 A 
ATOM     22  O   UNL     1       0.046   7.406   0.053  0.00  0.00    -0.460 OA
ENDBRANCH  15  18
BRANCH   1  23
ATOM     23  C   UNL     1      -6.352   2.294   0.070  0.00  0.00    +0.086 C 
BRANCH  23  24
ATOM     24  C   UNL     1      -7.703   3.012   0.087  0.00  0.00    -0.061 C 
BRANCH  24  27
ATOM     25  C   UNL     1     -10.084   2.657   0.344  0.00  0.00    -0.097 C 
ATOM     26  C   UNL     1      -8.808   1.261  -1.168  0.00  0.00    -0.097 C 
ATOM     27  N   UNL     1      -8.780   2.001   0.112  0.00  0.00    +0.377 N 
ATOM     28  H   UNL     1      -8.599   1.339   0.875  0.00  0.00    -0.083 HD
ENDBRANCH  24  27
ENDBRANCH  23  24
ENDBRANCH   1  23
TORSDOF 4
