REMARK  Name = ZINC52840905
REMARK  8 active torsions:
REMARK  status: ('A' for Active; 'I' for Inactive)
REMARK    1  A    between atoms: C_1  and  C_2
REMARK    2  A    between atoms: C_2  and  C_4
REMARK    3  A    between atoms: C_2  and  N_9
REMARK    4  A    between atoms: N_6  and  C_7
REMARK    5  A    between atoms: N_6  and  C_8
REMARK    6  A    between atoms: N_9  and  C_10
REMARK    7  A    between atoms: C_13  and  N_17
REMARK    8  A    between atoms: C_15  and  N_16
REMARK                            x       y       z     vdW  Elec       q    Type
REMARK                         _______ _______ _______ _____ _____    ______ ____
ROOT
ATOM      1  C   UNL     1       2.049  -0.797  -1.199  0.00  0.00    +0.049 A 
ATOM      2  C   UNL     1       2.828  -0.344  -0.146  0.00  0.00    +0.027 A 
ATOM      3  C   UNL     1       4.204  -0.474  -0.198  0.00  0.00    +0.034 A 
ATOM      4  C   UNL     1       4.806  -1.056  -1.298  0.00  0.00    +0.128 A 
ATOM      5  C   UNL     1       4.037  -1.510  -2.353  0.00  0.00    +0.057 A 
ATOM      6  C   UNL     1       2.656  -1.389  -2.307  0.00  0.00    +0.048 A 
ENDROOT
BRANCH   6   7
ATOM      7  N   UNL     1       1.874  -1.855  -3.371  0.00  0.00    -0.356 N 
ATOM      8  H   UNL     1       0.909  -1.766  -3.339  0.00  0.00    +0.142 HD
ATOM      9  H   UNL     1       2.298  -2.266  -4.140  0.00  0.00    +0.142 HD
ENDBRANCH   6   7
BRANCH   4  10
ATOM     10  N   UNL     1       6.279  -1.191  -1.347  0.00  0.00    +0.056 N 
ATOM     11  O   UNL     1       6.954  -0.794  -0.426  0.00  0.00    -0.126 OA
ATOM     12  O   UNL     1       6.808  -1.700  -2.308  0.00  0.00    -0.126 OA
ENDBRANCH   4  10
BRANCH   1  13
ATOM     13  N   UNL     1       0.655  -0.667  -1.149  0.00  0.00    -0.332 N 
ATOM     14  H   UNL     1       0.111  -0.988  -1.885  0.00  0.00    +0.147 HD
BRANCH  13  16
ATOM     15  C   UNL     1       0.009   1.475  -0.161  0.00  0.00    +0.038 C 
ATOM     16  C   UNL     1       0.020  -0.045   0.015  0.00  0.00    +0.154 C 
BRANCH  16  17
ATOM     17  C   UNL     1      -1.396  -0.546   0.142  0.00  0.00    +0.235 C 
ATOM     18  O   UNL     1      -1.965  -1.007  -0.824  0.00  0.00    -0.274 OA
ATOM     19  N   UNL     1      -2.030  -0.481   1.330  0.00  0.00    -0.306 N 
ATOM     20  C   UNL     1      -3.364  -1.066   1.481  0.00  0.00    +0.131 C 
ATOM     21  C   UNL     1      -1.384   0.174   2.470  0.00  0.00    +0.131 C 
ENDBRANCH  16  17
ENDBRANCH  13  16
ENDBRANCH   1  13
TORSDOF 5
