REMARK  Name = ZINC12494112
REMARK  6 active torsions:
REMARK  status: ('A' for Active; 'I' for Inactive)
REMARK    1  A    between atoms: C_1  and  C_2
REMARK    2  A    between atoms: C_15  and  S_17
REMARK    3  A    between atoms: S_17  and  C_18
REMARK    4  A    between atoms: C_18  and  C_19
REMARK    5  A    between atoms: C_22  and  C_30
REMARK    6  A    between atoms: C_27  and  C_29
REMARK                            x       y       z     vdW  Elec       q    Type
REMARK                         _______ _______ _______ _____ _____    ______ ____
ROOT
ATOM      1  C   UNL     1      -2.750   3.675  -2.909  0.00  0.00    +0.008 C 
ATOM      2  C   UNL     1      -2.247   2.238  -2.757  0.00  0.00    -0.009 C 
ATOM      3  C   UNL     1      -3.437   1.274  -2.751  0.00  0.00    +0.008 C 
ATOM      4  C   UNL     1      -2.970  -0.126  -2.353  0.00  0.00    +0.037 C 
ATOM      5  C   UNL     1      -1.803  -0.531  -3.250  0.00  0.00    -0.023 A 
ATOM      6  C   UNL     1      -1.107   0.403  -3.936  0.00  0.00    -0.004 A 
ATOM      7  S   UNL     1       0.133  -0.502  -4.828  0.00  0.00    -0.073 S 
ATOM      8  C   UNL     1      -0.284  -2.128  -4.282  0.00  0.00    +0.117 A 
ATOM      9  C   UNL     1      -1.382  -1.913  -3.417  0.00  0.00    +0.075 A 
ATOM     10  C   UNL     1      -1.963  -3.066  -2.796  0.00  0.00    +0.261 A 
ATOM     11  O   UNL     1      -2.912  -2.983  -2.035  0.00  0.00    -0.267 OA
ATOM     12  N   UNL     1      -1.393  -4.254  -3.107  0.00  0.00    -0.301 N 
ATOM     13  H   UNL     1      -1.756  -5.060  -2.708  0.00  0.00    +0.171 HD
ATOM     14  C   UNL     1      -0.334  -4.369  -3.954  0.00  0.00    +0.170 A 
ATOM     15  N   UNL     1       0.228  -3.323  -4.545  0.00  0.00    -0.216 NA
ATOM     16  C   UNL     1      -1.334   1.883  -3.939  0.00  0.00    +0.046 C 
ENDROOT
BRANCH  14  17
ATOM     17  S   UNL     1       0.319  -5.974  -4.278  0.00  0.00    -0.078 S 
BRANCH  17  18
ATOM     18  C   UNL     1       1.656  -5.545  -5.420  0.00  0.00    +0.173 C 
BRANCH  18  19
ATOM     19  C   UNL     1       2.376  -6.799  -5.845  0.00  0.00    +0.226 C 
ATOM     20  O   UNL     1       2.162  -7.845  -5.269  0.00  0.00    -0.275 OA
ATOM     21  N   UNL     1       3.257  -6.758  -6.864  0.00  0.00    -0.295 N 
ATOM     22  C   UNL     1       3.904  -5.495  -7.244  0.00  0.00    +0.073 C 
ATOM     23  C   UNL     1       5.425  -5.707  -7.248  0.00  0.00    +0.022 C 
ATOM     24  C   UNL     1       5.767  -6.887  -8.161  0.00  0.00    +0.004 C 
ATOM     25  C   UNL     1       5.105  -8.158  -7.623  0.00  0.00    +0.022 C 
ATOM     26  C   UNL     1       3.584  -7.975  -7.619  0.00  0.00    +0.073 C 
ATOM     27  C   UNL     1       2.924  -9.184  -6.955  0.00  0.00    +0.028 C 
ATOM     28  C   UNL     1       3.539  -4.407  -6.232  0.00  0.00    +0.028 C 
ENDBRANCH  18  19
ENDBRANCH  17  18
ENDBRANCH  14  17
TORSDOF 3
