REMARK  Name = ZINC39636802
REMARK  5 active torsions:
REMARK  status: ('A' for Active; 'I' for Inactive)
REMARK    1  A    between atoms: C_3  and  C_11
REMARK    2  A    between atoms: C_5  and  C_7
REMARK    3  A    between atoms: C_11  and  N_12
REMARK    4  A    between atoms: C_13  and  C_15
REMARK    5  A    between atoms: C_26  and  C_28
REMARK                            x       y       z     vdW  Elec       q    Type
REMARK                         _______ _______ _______ _____ _____    ______ ____
ROOT
ATOM      1  C   UNL     1       5.877   3.333   2.404  0.00  0.00    +0.100 C 
ATOM      2  C   UNL     1       5.888   2.084   3.313  0.00  0.00    +0.121 C 
ATOM      3  N   UNL     1       7.319   1.716   3.425  0.00  0.00    -0.296 N 
ATOM      4  C   UNL     1       8.027   3.014   3.531  0.00  0.00    +0.115 C 
ATOM      5  C   UNL     1       7.281   3.943   2.552  0.00  0.00    -0.004 C 
ATOM      6  C   UNL     1       7.992   3.966   1.202  0.00  0.00    -0.010 C 
ATOM      7  C   UNL     1       9.363   4.628   1.364  0.00  0.00    -0.082 C 
ATOM      8  N   UNL     1       9.192   5.994   1.873  0.00  0.00    +0.379 N 
ATOM      9  C   UNL     1       8.591   5.958   3.212  0.00  0.00    -0.082 C 
ATOM     10  C   UNL     1       7.188   5.352   3.128  0.00  0.00    -0.010 C 
ATOM     11  C   UNL     1       7.856   0.480   3.430  0.00  0.00    +0.248 C 
ATOM     12  O   UNL     1       9.047   0.335   3.626  0.00  0.00    -0.270 OA
ATOM     13  H   UNL     1      10.091   6.449   1.922  0.00  0.00    -0.086 HD
ATOM     14  H   UNL     1       8.590   6.511   1.250  0.00  0.00    -0.086 HD
ENDROOT
BRANCH  11  15
ATOM     15  C   UNL     1       6.997  -0.700   3.197  0.00  0.00    +0.057 A 
ATOM     16  C   UNL     1       5.688  -0.721   3.683  0.00  0.00    +0.014 A 
ATOM     17  C   UNL     1       4.891  -1.825   3.462  0.00  0.00    +0.002 A 
ATOM     18  C   UNL     1       5.385  -2.911   2.761  0.00  0.00    +0.021 A 
ATOM     19  C   UNL     1       6.681  -2.899   2.277  0.00  0.00    +0.060 A 
ATOM     20  C   UNL     1       7.489  -1.796   2.485  0.00  0.00    +0.071 A 
ATOM     21 CL   UNL     1       9.113  -1.778   1.871  0.00  0.00    -0.081 Cl
ATOM     22 CL   UNL     1       7.292  -4.267   1.400  0.00  0.00    -0.082 Cl
ENDBRANCH  11  15
BRANCH   1  24
ATOM     23  N   UNL     1       5.042   3.808   0.124  0.00  0.00    -0.311 N 
ATOM     24  C   UNL     1       5.625   2.937   0.972  0.00  0.00    +0.218 C 
ATOM     25  O   UNL     1       5.947   1.835   0.582  0.00  0.00    -0.275 OA
ATOM     26  H   UNL     1       4.785   4.690   0.436  0.00  0.00    +0.149 HD
BRANCH  23  27
ATOM     27  C   UNL     1       4.797   3.423  -1.268  0.00  0.00    +0.139 C 
BRANCH  27  30
ATOM     28  C   UNL     1       4.315   6.563  -3.308  0.00  0.00    +0.001 A 
ATOM     29  C   UNL     1       4.917   5.514  -2.638  0.00  0.00    +0.005 A 
ATOM     30  C   UNL     1       4.141   4.567  -1.998  0.00  0.00    -0.030 A 
ATOM     31  C   UNL     1       2.763   4.668  -2.026  0.00  0.00    +0.017 A 
ATOM     32  C   UNL     1       2.160   5.717  -2.695  0.00  0.00    +0.055 A 
ATOM     33  C   UNL     1       2.937   6.664  -3.337  0.00  0.00    +0.012 A 
BRANCH  32  34
ATOM     34  C   UNL     1       0.658   5.827  -2.727  0.00  0.00    +0.417 C 
ATOM     35  F   UNL     1       0.222   6.582  -1.633  0.00  0.00    -0.166 F 
ATOM     36  F   UNL     1       0.261   6.454  -3.914  0.00  0.00    -0.166 F 
ATOM     37  F   UNL     1       0.095   4.548  -2.665  0.00  0.00    -0.166 F 
ENDBRANCH  32  34
ENDBRANCH  27  30
ENDBRANCH  23  27
ENDBRANCH   1  24
TORSDOF 5
