REMARK  Name = ZINC00930986
REMARK  6 active torsions:
REMARK  status: ('A' for Active; 'I' for Inactive)
REMARK    1  A    between atoms: C_9  and  C_12
REMARK    2  A    between atoms: N_14  and  C_15
REMARK    3  A    between atoms: N_14  and  C_24
REMARK    4  A    between atoms: C_24  and  C_26
REMARK    5  A    between atoms: C_24  and  C_31
REMARK    6  A    between atoms: N_33  and  C_34
REMARK                            x       y       z     vdW  Elec       q    Type
REMARK                         _______ _______ _______ _____ _____    ______ ____
ROOT
ATOM      1  C   UNL     1       2.963   3.002   0.069  0.00  0.00    +0.265 C 
ATOM      2  O   UNL     1       1.815   3.331   0.283  0.00  0.00    -0.271 OA
ATOM      3  N   UNL     1       3.340   1.720   0.243  0.00  0.00    -0.252 N 
ENDROOT
BRANCH   1  12
ATOM      4  C   UNL     1       5.367   8.412  -2.221  0.00  0.00    +0.004 A 
ATOM      5  C   UNL     1       4.446   8.691  -1.228  0.00  0.00    +0.004 A 
ATOM      6  C   UNL     1       3.792   7.660  -0.579  0.00  0.00    +0.049 A 
ATOM      7  C   UNL     1       4.058   6.343  -0.923  0.00  0.00    +0.163 A 
ATOM      8  C   UNL     1       4.986   6.063  -1.920  0.00  0.00    +0.162 A 
ATOM      9  C   UNL     1       5.638   7.102  -2.567  0.00  0.00    +0.049 A 
ATOM     10  O   UNL     1       5.265   4.778  -2.270  0.00  0.00    -0.484 OA
ATOM     11  C   UNL     1       4.322   3.781  -1.863  0.00  0.00    +0.283 C 
ATOM     12  C   UNL     1       3.967   4.028  -0.390  0.00  0.00    +0.296 C 
ATOM     13  O   UNL     1       3.404   5.339  -0.279  0.00  0.00    -0.472 OA
ENDBRANCH   1  12
BRANCH   3  14
ATOM     14  C   UNL     1       2.379   0.738   0.517  0.00  0.00    +0.041 A 
ATOM     15  C   UNL     1       2.778  -0.551   0.845  0.00  0.00    +0.027 A 
ATOM     16  C   UNL     1       1.831  -1.520   1.115  0.00  0.00    +0.051 A 
ATOM     17  C   UNL     1       0.482  -1.210   1.059  0.00  0.00    +0.166 A 
ATOM     18  C   UNL     1       0.079   0.083   0.730  0.00  0.00    +0.168 A 
ATOM     19  C   UNL     1       1.029   1.054   0.460  0.00  0.00    +0.073 A 
ATOM     20  O   UNL     1      -1.285   0.130   0.737  0.00  0.00    -0.453 OA
ATOM     21  C   UNL     1      -1.719  -1.241   0.680  0.00  0.00    +0.466 C 
ATOM     22  O   UNL     1      -0.631  -1.971   1.277  0.00  0.00    -0.453 OA
ENDBRANCH   3  14
BRANCH   3  23
ATOM     23  C   UNL     1       4.755   1.353   0.145  0.00  0.00    +0.204 C 
BRANCH  23  24
ATOM     24  C   UNL     1       4.940   0.356  -0.970  0.00  0.00    +0.019 A 
ATOM     25  C   UNL     1       6.060   0.059  -1.672  0.00  0.00    +0.013 A 
ATOM     26  C   UNL     1       5.996  -0.905  -2.660  0.00  0.00    +0.008 A 
ATOM     27  C   UNL     1       4.811  -1.517  -2.905  0.00  0.00    +0.045 A 
ATOM     28  S   UNL     1       3.737  -0.734  -1.714  0.00  0.00    -0.099 S 
ENDBRANCH  23  24
BRANCH  23  29
ATOM     29  C   UNL     1       5.206   0.741   1.446  0.00  0.00    +0.239 C 
ATOM     30  O   UNL     1       4.423   0.623   2.365  0.00  0.00    -0.273 OA
ATOM     31  N   UNL     1       6.480   0.325   1.589  0.00  0.00    -0.311 N 
ATOM     32  H   UNL     1       7.107   0.420   0.855  0.00  0.00    +0.149 HD
BRANCH  31  33
ATOM     33  C   UNL     1       6.919  -0.270   2.854  0.00  0.00    +0.073 C 
ATOM     34  C   UNL     1       7.327   0.840   3.825  0.00  0.00    +0.022 C 
ATOM     35  C   UNL     1       7.785   0.219   5.146  0.00  0.00    +0.002 C 
ATOM     36  C   UNL     1       8.981  -0.700   4.890  0.00  0.00    +0.000 C 
ATOM     37  C   UNL     1       8.573  -1.810   3.919  0.00  0.00    +0.002 C 
ATOM     38  C   UNL     1       8.115  -1.188   2.598  0.00  0.00    +0.022 C 
ENDBRANCH  31  33
ENDBRANCH  23  29
ENDBRANCH   3  23
TORSDOF 6
