REMARK  Name = ZINC63502519
REMARK  7 active torsions:
REMARK  status: ('A' for Active; 'I' for Inactive)
REMARK    1  A    between atoms: C_1  and  C_2
REMARK    2  A    between atoms: C_6  and  N_8
REMARK    3  A    between atoms: C_13  and  C_15
REMARK    4  A    between atoms: C_16  and  C_18
REMARK    5  A    between atoms: C_23  and  C_30
REMARK    6  A    between atoms: C_35  and  N_36
REMARK    7  A    between atoms: C_37  and  C_39
REMARK                            x       y       z     vdW  Elec       q    Type
REMARK                         _______ _______ _______ _____ _____    ______ ____
ROOT
ATOM      1  C   UNL     1       1.220  -3.731   7.002  0.00  0.00    +0.039 A 
ATOM      2  C   UNL     1       1.092  -2.279   7.026  0.00  0.00    +0.015 A 
ATOM      3  C   UNL     1       1.097  -1.599   8.191  0.00  0.00    +0.028 A 
ATOM      4  C   UNL     1       1.234  -2.336   9.457  0.00  0.00    +0.058 A 
ATOM      5  N   UNL     1       1.240  -1.691  10.591  0.00  0.00    -0.369 N 
ATOM      6  C   UNL     1       1.379  -2.460  11.837  0.00  0.00    +0.198 C 
ATOM      7  C   UNL     1       1.508  -3.963  11.730  0.00  0.00    +0.244 C 
ATOM      8  O   UNL     1       1.625  -4.644  12.728  0.00  0.00    -0.273 OA
ATOM      9  N   UNL     1       1.490  -4.530  10.520  0.00  0.00    -0.282 N 
ATOM     10  C   UNL     1       1.364  -3.813   9.417  0.00  0.00    +0.057 A 
ATOM     11  C   UNL     1       1.345  -4.462   8.158  0.00  0.00    +0.038 A 
ATOM     12  H   UNL     1       1.155  -0.725  10.612  0.00  0.00    +0.161 HD
ATOM     13  H   UNL     1       1.573  -5.494  10.449  0.00  0.00    +0.155 HD
ENDROOT
BRANCH   1  21
ATOM     14  N   UNL     1       4.056  -3.697   3.003  0.00  0.00    -0.324 N 
ATOM     15  C   UNL     1       3.208  -4.886   2.837  0.00  0.00    +0.124 C 
ATOM     16  C   UNL     1       1.793  -4.550   3.324  0.00  0.00    +0.127 C 
ATOM     17  N   UNL     1       1.889  -3.927   4.652  0.00  0.00    -0.294 N 
ATOM     18  C   UNL     1       2.737  -2.738   4.817  0.00  0.00    +0.130 C 
ATOM     19  C   UNL     1       4.156  -3.078   4.332  0.00  0.00    +0.088 C 
ATOM     20  C   UNL     1       4.816  -4.056   5.306  0.00  0.00    +0.029 C 
ATOM     21  C   UNL     1       1.210  -4.436   5.699  0.00  0.00    +0.247 C 
ATOM     22  O   UNL     1       0.590  -5.474   5.574  0.00  0.00    -0.270 OA
BRANCH  14  28
ATOM     23  C   UNL     1       6.931  -0.176   1.135  0.00  0.00    +0.044 C 
ATOM     24  C   UNL     1       6.162  -1.463   0.983  0.00  0.00    -0.049 A 
ATOM     25  C   UNL     1       6.153  -2.123  -0.232  0.00  0.00    +0.003 A 
ATOM     26  C   UNL     1       5.449  -3.304  -0.375  0.00  0.00    +0.002 A 
ATOM     27  C   UNL     1       4.752  -3.829   0.696  0.00  0.00    +0.023 A 
ATOM     28  C   UNL     1       4.760  -3.169   1.918  0.00  0.00    +0.030 A 
ATOM     29  C   UNL     1       5.473  -1.985   2.060  0.00  0.00    +0.026 A 
ENDBRANCH  14  28
ENDBRANCH   1  21
BRANCH   6  30
ATOM     30  C   UNL     1       2.597  -1.946  12.561  0.00  0.00    +0.005 A 
ATOM     31  C   UNL     1       3.564  -1.240  11.873  0.00  0.00    +0.008 A 
ATOM     32  C   UNL     1       4.681  -0.768  12.536  0.00  0.00    +0.000 A 
ATOM     33  C   UNL     1       4.834  -1.000  13.891  0.00  0.00    +0.002 A 
ATOM     34  C   UNL     1       3.871  -1.705  14.585  0.00  0.00    +0.023 A 
ATOM     35  C   UNL     1       2.745  -2.176  13.923  0.00  0.00    +0.039 A 
BRANCH  35  36
ATOM     36  N   UNL     1       1.764  -2.886  14.624  0.00  0.00    -0.285 N 
ATOM     37  C   UNL     1       2.115  -3.683  15.653  0.00  0.00    +0.214 C 
ATOM     38  O   UNL     1       3.269  -3.721  16.024  0.00  0.00    -0.276 OA
ATOM     39  C   UNL     1       1.074  -4.528  16.341  0.00  0.00    +0.109 C 
ATOM     40  H   UNL     1       0.832  -2.805  14.370  0.00  0.00    +0.155 HD
ENDBRANCH  35  36
ENDBRANCH   6  30
TORSDOF 4
