REMARK  Name = ZINC40579527
REMARK  5 active torsions:
REMARK  status: ('A' for Active; 'I' for Inactive)
REMARK    1  A    between atoms: C_1  and  C_2
REMARK    2  A    between atoms: C_2  and  C_3
REMARK    3  A    between atoms: N_15  and  C_18
REMARK    4  A    between atoms: C_18  and  C_19
REMARK    5  A    between atoms: C_19  and  C_20
REMARK                            x       y       z     vdW  Elec       q    Type
REMARK                         _______ _______ _______ _____ _____    ______ ____
ROOT
ATOM      1  C   UNL     1       0.208  -0.557  -1.310  0.00  0.00    +0.135 C 
ATOM      2  C   UNL     1       0.655  -2.023  -1.327  0.00  0.00    +0.141 C 
ATOM      3  N   UNL     1       1.346  -2.283  -2.600  0.00  0.00    -0.281 N 
ATOM      4  C   UNL     1       2.418  -1.361  -3.006  0.00  0.00    +0.137 C 
ATOM      5  C   UNL     1       1.885   0.073  -2.907  0.00  0.00    +0.179 C 
ATOM      6  O   UNL     1       1.327   0.281  -1.607  0.00  0.00    -0.373 OA
ATOM      7  C   UNL     1       1.007  -3.336  -3.370  0.00  0.00    +0.305 C 
ATOM      8  O   UNL     1       0.014  -3.987  -3.108  0.00  0.00    -0.252 OA
ATOM      9  N   UNL     1       1.768  -3.666  -4.432  0.00  0.00    -0.289 N 
ATOM     10  C   UNL     1       3.161  -3.206  -4.537  0.00  0.00    +0.091 C 
ATOM     11  C   UNL     1       4.050  -4.415  -4.848  0.00  0.00    -0.059 C 
ATOM     12  N   UNL     1       3.546  -5.096  -6.047  0.00  0.00    +0.382 N 
ATOM     13  C   UNL     1       2.209  -5.645  -5.785  0.00  0.00    -0.059 C 
ATOM     14  C   UNL     1       1.231  -4.502  -5.517  0.00  0.00    +0.091 C 
ATOM     15  H   UNL     1       3.494  -4.438  -6.809  0.00  0.00    -0.082 HD
ENDROOT
BRANCH   1  17
ATOM     16  C   UNL     1      -0.897   1.219   0.056  0.00  0.00    +0.006 C 
ATOM     17  C   UNL     1      -0.340  -0.205   0.075  0.00  0.00    +0.030 C 
ENDBRANCH   1  17
BRANCH  12  18
ATOM     18  C   UNL     1       4.459  -6.188  -6.408  0.00  0.00    -0.067 C 
BRANCH  18  19
ATOM     19  C   UNL     1       4.004  -6.819  -7.726  0.00  0.00    +0.106 C 
BRANCH  19  20
ATOM     20  C   UNL     1       4.942  -7.939  -8.097  0.00  0.00    +0.354 C 
ATOM     21  O   UNL     1       5.886  -8.208  -7.374  0.00  0.00    -0.246 OA
ATOM     22  O   UNL     1       4.755  -8.576  -9.119  0.00  0.00    -0.246 OA
ENDBRANCH  19  20
ENDBRANCH  18  19
ENDBRANCH  12  18
TORSDOF 4
