REMARK  Name = ZINC12402772
REMARK  9 active torsions:
REMARK  status: ('A' for Active; 'I' for Inactive)
REMARK    1  A    between atoms: C_1  and  C_2
REMARK    2  A    between atoms: C_3  and  C_34
REMARK    3  A    between atoms: C_4  and  C_25
REMARK    4  A    between atoms: C_10  and  C_20
REMARK    5  A    between atoms: C_12  and  C_16
REMARK    6  A    between atoms: C_16  and  O_18
REMARK    7  A    between atoms: O_18  and  C_19
REMARK    8  A    between atoms: C_34  and  O_36
REMARK    9  A    between atoms: O_36  and  C_37
REMARK                            x       y       z     vdW  Elec       q    Type
REMARK                         _______ _______ _______ _____ _____    ______ ____
ROOT
ATOM      1  C   UNL     1      -5.282   2.134  -2.215  0.00  0.00    +0.061 C 
ATOM      2  C   UNL     1      -4.439   2.557  -1.040  0.00  0.00    +0.031 C 
ATOM      3  C   UNL     1      -3.423   3.418  -1.222  0.00  0.00    +0.153 C 
ATOM      4  C   UNL     1      -2.557   3.854  -0.076  0.00  0.00    +0.073 C 
ATOM      5  C   UNL     1      -3.230   3.576   1.245  0.00  0.00    +0.026 C 
ATOM      6  C   UNL     1      -4.254   2.701   1.326  0.00  0.00    +0.049 C 
ATOM      7  N   UNL     1      -4.713   2.063   0.205  0.00  0.00    -0.260 NA
ATOM      8  C   UNL     1      -4.919   2.403   2.647  0.00  0.00    +0.065 C 
ATOM      9  C   UNL     1      -4.858   3.641   3.544  0.00  0.00    +0.053 C 
ATOM     10  C   UNL     1      -3.389   4.033   3.734  0.00  0.00    +0.176 C 
ATOM     11  C   UNL     1      -2.761   4.252   2.385  0.00  0.00    +0.176 C 
ATOM     12  O   UNL     1      -1.832   5.028   2.279  0.00  0.00    -0.291 OA
ENDROOT
BRANCH   4  13
ATOM     13  C   UNL     1      -1.246   3.113  -0.129  0.00  0.00    -0.035 A 
ATOM     14  C   UNL     1      -1.230   1.732  -0.060  0.00  0.00    +0.008 A 
ATOM     15  C   UNL     1      -0.030   1.049  -0.102  0.00  0.00    +0.050 A 
ATOM     16  C   UNL     1       1.161   1.746  -0.226  0.00  0.00    +0.166 A 
ATOM     17  C   UNL     1       1.145   3.136  -0.302  0.00  0.00    +0.167 A 
ATOM     18  C   UNL     1      -0.061   3.815  -0.252  0.00  0.00    +0.053 A 
ATOM     19  O   UNL     1       2.430   3.582  -0.418  0.00  0.00    -0.453 OA
ATOM     20  C   UNL     1       3.200   2.434  -0.824  0.00  0.00    +0.466 C 
ATOM     21  O   UNL     1       2.456   1.320  -0.295  0.00  0.00    -0.453 OA
ENDBRANCH   4  13
BRANCH   9  22
ATOM     22  C   UNL     1      -5.476   3.329   4.882  0.00  0.00    -0.006 A 
ATOM     23  C   UNL     1      -6.541   3.909   5.487  0.00  0.00    +0.011 A 
ATOM     24  C   UNL     1      -6.937   3.453   6.730  0.00  0.00    +0.008 A 
ATOM     25  C   UNL     1      -6.249   2.438   7.308  0.00  0.00    +0.045 A 
ATOM     26  S   UNL     1      -5.002   2.091   6.078  0.00  0.00    -0.101 S 
ENDBRANCH   9  22
BRANCH  10  27
ATOM     27  C   UNL     1      -3.306   5.301   4.544  0.00  0.00    +0.318 C 
ATOM     28  O   UNL     1      -4.317   5.839   4.929  0.00  0.00    -0.250 OA
BRANCH  27  29
ATOM     29  O   UNL     1      -2.109   5.834   4.836  0.00  0.00    -0.467 OA
ATOM     30  C   UNL     1      -2.105   7.056   5.619  0.00  0.00    +0.280 C 
ENDBRANCH  27  29
ENDBRANCH  10  27
BRANCH   3  31
ATOM     31  C   UNL     1      -3.164   3.921  -2.519  0.00  0.00    +0.316 C 
ATOM     32  O   UNL     1      -3.787   3.493  -3.473  0.00  0.00    -0.250 OA
BRANCH  31  33
ATOM     33  O   UNL     1      -2.225   4.873  -2.698  0.00  0.00    -0.467 OA
ATOM     34  C   UNL     1      -2.015   5.335  -4.034  0.00  0.00    +0.280 C 
ENDBRANCH  31  33
ENDBRANCH   3  31
TORSDOF 6
