REMARK  Name = ZINC01688071
REMARK  3 active torsions:
REMARK  status: ('A' for Active; 'I' for Inactive)
REMARK    1  A    between atoms: C_1  and  C_2
REMARK    2  A    between atoms: C_3  and  N_12
REMARK    3  A    between atoms: C_7  and  N_8
REMARK                            x       y       z     vdW  Elec       q    Type
REMARK                         _______ _______ _______ _____ _____    ______ ____
ROOT
ATOM      1  C   UNL     1      -2.466  -0.030   0.572  0.00  0.00    +0.048 C 
ATOM      2  C   UNL     1      -1.171  -0.739   0.271  0.00  0.00    +0.000 A 
ATOM      3  C   UNL     1       0.023  -0.029   0.254  0.00  0.00    +0.031 A 
ATOM      4  C   UNL     1       1.215  -0.687  -0.018  0.00  0.00    +0.037 A 
ATOM      5  C   UNL     1       1.209  -2.044  -0.277  0.00  0.00    +0.017 A 
ATOM      6  C   UNL     1       0.018  -2.747  -0.265  0.00  0.00    +0.047 A 
ATOM      7  C   UNL     1      -1.171  -2.094   0.006  0.00  0.00    +0.132 A 
ATOM      8  I   UNL     1       3.007  -3.039  -0.688  0.00  0.00    -0.044 I 
ENDROOT
BRANCH   7   9
ATOM      9  N   UNL     1      -2.443  -2.850   0.018  0.00  0.00    +0.057 N 
ATOM     10  O   UNL     1      -2.472  -3.986   0.458  0.00  0.00    -0.126 OA
ATOM     11  O   UNL     1      -3.461  -2.337  -0.411  0.00  0.00    -0.126 OA
ENDBRANCH   7   9
BRANCH   3  12
ATOM     12  N   UNL     1       0.025   1.343   0.517  0.00  0.00    -0.358 N 
ATOM     13  H   UNL     1       0.860   1.837   0.509  0.00  0.00    +0.142 HD
ATOM     14  H   UNL     1      -0.809   1.803   0.703  0.00  0.00    +0.142 HD
ENDBRANCH   3  12
TORSDOF 2
