REMARK  Name = ZINC17098209
REMARK  9 active torsions:
REMARK  status: ('A' for Active; 'I' for Inactive)
REMARK    1  A    between atoms: C_1  and  C_2
REMARK    2  A    between atoms: C_3  and  C_26
REMARK    3  A    between atoms: C_4  and  N_17
REMARK    4  A    between atoms: C_6  and  C_7
REMARK    5  A    between atoms: N_9  and  C_10
REMARK    6  A    between atoms: C_18  and  C_20
REMARK    7  A    between atoms: C_24  and  C_25
REMARK    8  A    between atoms: C_26  and  O_28
REMARK    9  A    between atoms: O_28  and  C_29
REMARK                            x       y       z     vdW  Elec       q    Type
REMARK                         _______ _______ _______ _____ _____    ______ ____
ROOT
ATOM      1  C   UNL     1       0.103  -1.853   8.484  0.00  0.00    +0.046 C 
ATOM      2  C   UNL     1       0.089  -1.070   7.197  0.00  0.00    -0.015 A 
ATOM      3  C   UNL     1       0.096  -1.711   5.966  0.00  0.00    +0.091 A 
ATOM      4  C   UNL     1       0.084  -0.913   4.817  0.00  0.00    +0.087 A 
ATOM      5  S   UNL     1       0.070   0.696   5.463  0.00  0.00    -0.068 S 
ATOM      6  C   UNL     1       0.071   0.298   7.201  0.00  0.00    +0.080 A 
ENDROOT
BRANCH   6   7
ATOM      7  C   UNL     1       0.060   1.209   8.347  0.00  0.00    +0.255 C 
ATOM      8  O   UNL     1       0.068   0.762   9.479  0.00  0.00    -0.269 OA
ATOM      9  N   UNL     1       0.042   2.542   8.148  0.00  0.00    -0.281 N 
ATOM     10  H   UNL     1       0.103   2.899   7.248  0.00  0.00    +0.155 HD
BRANCH   9  11
ATOM     11  C   UNL     1      -0.066   3.410   9.240  0.00  0.00    +0.034 A 
ATOM     12  C   UNL     1      -0.775   4.598   9.117  0.00  0.00    +0.025 A 
ATOM     13  C   UNL     1      -0.884   5.451  10.197  0.00  0.00    +0.022 A 
ATOM     14  C   UNL     1      -0.278   5.128  11.399  0.00  0.00    +0.041 A 
ATOM     15  C   UNL     1       0.434   3.948  11.523  0.00  0.00    +0.022 A 
ATOM     16  C   UNL     1       0.542   3.089  10.447  0.00  0.00    +0.025 A 
ATOM     17 CL   UNL     1      -0.411   6.206  12.753  0.00  0.00    -0.084 Cl
ENDBRANCH   9  11
ENDBRANCH   6   7
BRANCH   4  18
ATOM     18  N   UNL     1       0.087  -1.309   3.495  0.00  0.00    -0.275 N 
ATOM     19  C   UNL     1       0.073  -0.384   2.515  0.00  0.00    +0.252 C 
ATOM     20  O   UNL     1       0.057   0.799   2.795  0.00  0.00    -0.270 OA
ATOM     21  H   UNL     1       0.099  -2.252   3.272  0.00  0.00    +0.156 HD
BRANCH  19  22
ATOM     22  C   UNL     1       0.076  -0.807   1.104  0.00  0.00    +0.078 A 
ATOM     23  C   UNL     1       0.094  -2.184   0.588  0.00  0.00    +0.054 A 
ATOM     24  C   UNL     1       0.090  -2.077  -0.749  0.00  0.00    +0.196 A 
ATOM     25  O   UNL     1       0.066  -0.778  -1.087  0.00  0.00    -0.467 OA
ATOM     26  C   UNL     1       0.064  -0.002   0.001  0.00  0.00    +0.114 A 
ATOM     27  C   UNL     1       0.044   1.505   0.010  0.00  0.00    +0.087 C 
ENDBRANCH  19  22
ENDBRANCH   4  18
BRANCH   3  28
ATOM     28  C   UNL     1       0.116  -3.175   5.874  0.00  0.00    +0.342 C 
ATOM     29  O   UNL     1       1.177  -3.767   5.834  0.00  0.00    -0.245 OA
BRANCH  28  30
ATOM     30  O   UNL     1      -1.043  -3.863   5.832  0.00  0.00    -0.464 OA
ATOM     31  C   UNL     1      -0.948  -5.309   5.740  0.00  0.00    +0.280 C 
ENDBRANCH  28  30
ENDBRANCH   3  28
TORSDOF 6
