REMARK  Name = ZINC01374098
REMARK  13 active torsions:
REMARK  status: ('A' for Active; 'I' for Inactive)
REMARK    1  A    between atoms: C_1  and  C_2
REMARK    2  A    between atoms: C_2  and  C_3
REMARK    3  A    between atoms: C_3  and  C_5
REMARK    4  A    between atoms: C_3  and  N_14
REMARK    5  A    between atoms: N_9  and  C_10
REMARK    6  A    between atoms: C_10  and  C_11
REMARK    7  A    between atoms: C_10  and  C_12
REMARK    8  A    between atoms: C_10  and  C_13
REMARK    9  A    between atoms: N_14  and  C_15
REMARK   10  A    between atoms: N_14  and  C_25
REMARK   11  A    between atoms: C_15  and  C_16
REMARK   12  A    between atoms: C_25  and  C_26
REMARK   13  A    between atoms: C_31  and  C_38
REMARK                            x       y       z     vdW  Elec       q    Type
REMARK                         _______ _______ _______ _____ _____    ______ ____
ROOT
ATOM      1  N   UNL     1       0.297   0.710  -2.893  0.00  0.00    -0.284 NA
ENDROOT
BRANCH   1   2
ATOM      2  C   UNL     1       0.804  -0.091  -1.771  0.00  0.00    +0.127 C 
BRANCH   2   3
ATOM      3  C   UNL     1      -0.270  -0.222  -0.722  0.00  0.00    +0.169 A 
ATOM      4  N   UNL     1      -1.139   0.695  -0.372  0.00  0.00    -0.112 NA
ATOM      5  N   UNL     1      -1.887   0.203   0.554  0.00  0.00    -0.023 NA
ATOM      6  N   UNL     1      -1.518  -1.005   0.804  0.00  0.00    -0.043 NA
ATOM      7  N   UNL     1      -0.528  -1.306   0.034  0.00  0.00    -0.222 N 
BRANCH   7   8
ATOM      8  C   UNL     1       0.185  -2.585  -0.008  0.00  0.00    +0.059 C 
ATOM      9  C   UNL     1       1.685  -2.338   0.163  0.00  0.00    +0.036 C 
ATOM     10  C   UNL     1      -0.316  -3.485   1.123  0.00  0.00    +0.036 C 
ATOM     11  C   UNL     1      -0.069  -3.267  -1.353  0.00  0.00    +0.036 C 
ENDBRANCH   7   8
ENDBRANCH   2   3
BRANCH   2  13
ATOM     12  C   UNL     1       3.150   0.652  -2.204  0.00  0.00    +0.006 C 
ATOM     13  C   UNL     1       2.028   0.598  -1.165  0.00  0.00    +0.023 C 
ENDBRANCH   2  13
ENDBRANCH   1   2
BRANCH   1  14
ATOM     14  C   UNL     1       0.893   0.273  -4.163  0.00  0.00    +0.120 C 
BRANCH  14  15
ATOM     15  C   UNL     1       0.234  -1.005  -4.614  0.00  0.00    -0.030 A 
ATOM     16  C   UNL     1       0.822  -2.223  -4.326  0.00  0.00    +0.009 A 
ATOM     17  C   UNL     1       0.222  -3.398  -4.737  0.00  0.00    +0.050 A 
ATOM     18  C   UNL     1      -0.972  -3.358  -5.439  0.00  0.00    +0.166 A 
ATOM     19  C   UNL     1      -1.565  -2.132  -5.729  0.00  0.00    +0.167 A 
ATOM     20  C   UNL     1      -0.960  -0.958  -5.309  0.00  0.00    +0.054 A 
ATOM     21  O   UNL     1      -2.719  -2.358  -6.421  0.00  0.00    -0.453 OA
ATOM     22  C   UNL     1      -2.618  -3.710  -6.906  0.00  0.00    +0.466 C 
ATOM     23  O   UNL     1      -1.755  -4.353  -5.949  0.00  0.00    -0.453 OA
ENDBRANCH  14  15
ENDBRANCH   1  14
BRANCH   1  24
ATOM     24  C   UNL     1       0.532   2.142  -2.667  0.00  0.00    +0.126 C 
BRANCH  24  25
ATOM     25  C   UNL     1      -0.472   2.664  -1.671  0.00  0.00    +0.031 A 
ATOM     26  C   UNL     1      -0.073   2.987  -0.416  0.00  0.00    +0.020 A 
ATOM     27  C   UNL     1      -1.073   3.493   0.527  0.00  0.00    -0.001 A 
ATOM     28  C   UNL     1      -0.722   3.843   1.835  0.00  0.00    +0.010 A 
ATOM     29  C   UNL     1      -1.678   4.312   2.690  0.00  0.00    +0.004 A 
ATOM     30  C   UNL     1      -2.996   4.443   2.273  0.00  0.00    -0.048 A 
ATOM     31  C   UNL     1      -3.365   4.103   0.990  0.00  0.00    +0.029 A 
ATOM     32  C   UNL     1      -2.408   3.624   0.100  0.00  0.00    +0.049 A 
ATOM     33  N   UNL     1      -2.749   3.278  -1.190  0.00  0.00    -0.322 N 
ATOM     34  H   UNL     1      -3.669   3.370  -1.482  0.00  0.00    +0.169 HD
ATOM     35  C   UNL     1      -1.823   2.820  -2.050  0.00  0.00    +0.254 A 
ATOM     36  O   UNL     1      -2.159   2.529  -3.185  0.00  0.00    -0.268 OA
ATOM     37  C   UNL     1      -4.034   4.961   3.235  0.00  0.00    +0.044 C 
ENDBRANCH  24  25
ENDBRANCH   1  24
TORSDOF 8
