REMARK  Name = ZINC66817057
REMARK  7 active torsions:
REMARK  status: ('A' for Active; 'I' for Inactive)
REMARK    1  A    between atoms: C_1  and  C_2
REMARK    2  A    between atoms: C_2  and  N_3
REMARK    3  A    between atoms: C_4  and  C_22
REMARK    4  A    between atoms: C_5  and  C_9
REMARK    5  A    between atoms: C_6  and  C_8
REMARK    6  A    between atoms: C_9  and  N_10
REMARK    7  A    between atoms: N_15  and  C_16
REMARK                            x       y       z     vdW  Elec       q    Type
REMARK                         _______ _______ _______ _____ _____    ______ ____
ROOT
ATOM      1  N   UNL     1       1.041  -0.371  -5.540  0.00  0.00    -0.308 N 
ATOM      2  C   UNL     1       0.908  -0.493  -6.912  0.00  0.00    +0.240 A 
ATOM      3  N   UNL     1       0.641  -1.595  -7.577  0.00  0.00    -0.092 NA
ATOM      4  N   UNL     1       0.585  -1.359  -8.838  0.00  0.00    -0.021 NA
ATOM      5  N   UNL     1       0.808  -0.110  -9.071  0.00  0.00    -0.038 NA
ATOM      6  N   UNL     1       1.021   0.504  -7.824  0.00  0.00    -0.181 N 
ATOM      7  H   UNL     1       1.236   0.493  -5.147  0.00  0.00    +0.149 HD
ENDROOT
BRANCH   6   8
ATOM      8  C   UNL     1       1.295   1.857  -7.578  0.00  0.00    +0.071 A 
ATOM      9  C   UNL     1       0.803   2.469  -6.432  0.00  0.00    +0.028 A 
ATOM     10  C   UNL     1       1.075   3.802  -6.192  0.00  0.00    +0.002 A 
ATOM     11  C   UNL     1       1.835   4.527  -7.091  0.00  0.00    +0.000 A 
ATOM     12  C   UNL     1       2.326   3.921  -8.232  0.00  0.00    +0.002 A 
ATOM     13  C   UNL     1       2.063   2.587  -8.475  0.00  0.00    +0.028 A 
ENDBRANCH   6   8
BRANCH   1  14
ATOM     14  C   UNL     1       0.889  -1.549  -4.683  0.00  0.00    +0.143 C 
BRANCH  14  17
ATOM     15  N   UNL     1       0.688  -0.476  -1.203  0.00  0.00    -0.268 N 
ATOM     16  C   UNL     1       0.110  -0.737  -2.395  0.00  0.00    +0.041 A 
ATOM     17  C   UNL     1       1.081  -1.150  -3.242  0.00  0.00    +0.013 A 
ATOM     18  C   UNL     1       2.293  -1.141  -2.545  0.00  0.00    +0.065 A 
ATOM     19  N   UNL     1       2.060  -0.732  -1.324  0.00  0.00    -0.176 NA
ATOM     20  C   UNL     1       3.638  -1.529  -3.105  0.00  0.00    +0.068 C 
ATOM     21  C   UNL     1      -1.354  -0.595  -2.722  0.00  0.00    +0.065 C 
BRANCH  15  23
ATOM     22  C   UNL     1      -0.019   1.526   0.010  0.00  0.00    +0.029 C 
ATOM     23  C   UNL     1       0.002  -0.004   0.002  0.00  0.00    +0.140 C 
ENDBRANCH  15  23
ENDBRANCH  14  17
ENDBRANCH   1  14
TORSDOF 4
