REMARK  Name = ZINC09279697
REMARK  10 active torsions:
REMARK  status: ('A' for Active; 'I' for Inactive)
REMARK    1  A    between atoms: C_1  and  C_2
REMARK    2  A    between atoms: N_7  and  S_9
REMARK    3  A    between atoms: S_9  and  C_12
REMARK    4  A    between atoms: C_15  and  C_18
REMARK    5  A    between atoms: C_18  and  N_20
REMARK    6  A    between atoms: N_22  and  C_33
REMARK    7  A    between atoms: C_26  and  N_30
REMARK    8  A    between atoms: C_33  and  C_34
REMARK    9  A    between atoms: C_34  and  O_35
REMARK   10  A    between atoms: O_35  and  C_36
REMARK                            x       y       z     vdW  Elec       q    Type
REMARK                         _______ _______ _______ _____ _____    ______ ____
ROOT
ATOM      1  C   UNL     1      -2.268  -0.334  -0.051  0.00  0.00    +0.269 C 
ATOM      2  O   UNL     1      -2.451   0.870  -0.026  0.00  0.00    -0.268 OA
ENDROOT
BRANCH   1   3
ATOM      3  N   UNL     1      -1.022  -0.821  -0.044  0.00  0.00    -0.152 NA
ATOM      4  C   UNL     1       0.015   0.009  -0.009  0.00  0.00    +0.167 A 
ATOM      5  N   UNL     1       1.340  -0.297   0.003  0.00  0.00    -0.319 N 
ATOM      6  C   UNL     1       2.284   0.712   0.041  0.00  0.00    +0.058 A 
ATOM      7  C   UNL     1       3.683   0.596   0.058  0.00  0.00    +0.029 A 
ATOM      8  C   UNL     1       4.481   1.715   0.097  0.00  0.00    +0.035 A 
ATOM      9  C   UNL     1       3.933   2.987   0.119  0.00  0.00    +0.127 A 
ATOM     10  C   UNL     1       2.557   3.131   0.102  0.00  0.00    +0.050 A 
ATOM     11  C   UNL     1       1.758   2.012   0.063  0.00  0.00    +0.041 A 
ATOM     12  S   UNL     1       0.004   1.743   0.032  0.00  0.00    -0.052 S 
BRANCH   9  13
ATOM     13  N   UNL     1       4.810   4.179   0.160  0.00  0.00    +0.056 N 
ATOM     14  O   UNL     1       6.020   4.044   0.174  0.00  0.00    -0.126 OA
ATOM     15  O   UNL     1       4.321   5.294   0.179  0.00  0.00    -0.126 OA
ENDBRANCH   9  13
BRANCH   5  16
ATOM     16  C   UNL     1       1.768  -1.698  -0.024  0.00  0.00    +0.152 C 
BRANCH  16  17
ATOM     17  C   UNL     1       0.800  -2.542   0.808  0.00  0.00    +0.181 C 
BRANCH  17  18
ATOM     18  O   UNL     1       1.290  -3.882   0.893  0.00  0.00    -0.381 OA
ATOM     19  C   UNL     1       0.456  -4.758   1.654  0.00  0.00    +0.194 C 
ENDBRANCH  17  18
ENDBRANCH  16  17
ENDBRANCH   5  16
ENDBRANCH   1   3
BRANCH   1  23
ATOM     20  C   UNL     1      -5.585  -2.989  -0.162  0.00  0.00    +0.106 A 
ATOM     21  C   UNL     1      -5.797  -1.622  -0.133  0.00  0.00    +0.029 A 
ATOM     22  C   UNL     1      -4.724  -0.755  -0.097  0.00  0.00    +0.015 A 
ATOM     23  C   UNL     1      -3.424  -1.260  -0.089  0.00  0.00    +0.039 A 
ATOM     24  C   UNL     1      -3.216  -2.638  -0.124  0.00  0.00    +0.015 A 
ATOM     25  C   UNL     1      -4.298  -3.495  -0.155  0.00  0.00    +0.029 A 
BRANCH  20  26
ATOM     26  S   UNL     1      -6.960  -4.089  -0.209  0.00  0.00    +0.061 S 
ATOM     27  O   UNL     1      -6.508  -5.328   0.320  0.00  0.00    -0.153 OA
ATOM     28  O   UNL     1      -8.064  -3.384   0.342  0.00  0.00    -0.153 OA
BRANCH  26  34
ATOM     29  C   UNL     1      -5.495  -6.067  -4.648  0.00  0.00    +0.009 C 
ATOM     30  C   UNL     1      -6.038  -4.911  -3.805  0.00  0.00    +0.002 C 
ATOM     31  C   UNL     1      -7.082  -4.136  -4.613  0.00  0.00    +0.006 C 
ATOM     32  C   UNL     1      -7.601  -2.960  -3.783  0.00  0.00    +0.017 C 
ATOM     33  C   UNL     1      -8.275  -3.496  -2.511  0.00  0.00    +0.109 C 
ATOM     34  N   UNL     1      -7.318  -4.358  -1.803  0.00  0.00    -0.176 NA
ATOM     35  C   UNL     1      -6.690  -5.466  -2.535  0.00  0.00    +0.112 C 
ENDBRANCH  26  34
ENDBRANCH  20  26
ENDBRANCH   1  23
TORSDOF 8
