REMARK  Name = ZINC09068472
REMARK  6 active torsions:
REMARK  status: ('A' for Active; 'I' for Inactive)
REMARK    1  A    between atoms: C_4  and  N_7
REMARK    2  A    between atoms: C_9  and  C_14
REMARK    3  A    between atoms: C_14  and  N_15
REMARK    4  A    between atoms: C_16  and  C_18
REMARK    5  A    between atoms: C_19  and  C_20
REMARK    6  A    between atoms: C_23  and  N_26
REMARK                            x       y       z     vdW  Elec       q    Type
REMARK                         _______ _______ _______ _____ _____    ______ ____
ROOT
ATOM      1  N   UNL     1      -1.002   0.911   4.282  0.00  0.00    -0.308 N 
ATOM      2  C   UNL     1      -1.832   0.097   4.963  0.00  0.00    +0.237 C 
ATOM      3  O   UNL     1      -1.559  -1.082   5.091  0.00  0.00    -0.271 OA
ATOM      4  H   UNL     1      -1.219   1.851   4.181  0.00  0.00    +0.149 HD
ENDROOT
BRANCH   2   5
ATOM      5  C   UNL     1      -3.063   0.631   5.550  0.00  0.00    +0.068 C 
ATOM      6  C   UNL     1      -3.959  -0.204   6.112  0.00  0.00    +0.013 C 
BRANCH   6   7
ATOM      7  C   UNL     1      -3.827  -1.659   5.927  0.00  0.00    -0.025 A 
ATOM      8  C   UNL     1      -3.523  -2.182   4.666  0.00  0.00    +0.010 A 
ATOM      9  C   UNL     1      -3.394  -3.545   4.502  0.00  0.00    +0.033 A 
ATOM     10  C   UNL     1      -3.577  -4.395   5.579  0.00  0.00    +0.126 A 
ATOM     11  C   UNL     1      -3.884  -3.885   6.829  0.00  0.00    +0.033 A 
ATOM     12  C   UNL     1      -4.010  -2.524   7.010  0.00  0.00    +0.010 A 
BRANCH  10  13
ATOM     13  N   UNL     1      -3.444  -5.858   5.393  0.00  0.00    +0.056 N 
ATOM     14  O   UNL     1      -3.604  -6.609   6.338  0.00  0.00    -0.126 OA
ATOM     15  O   UNL     1      -3.174  -6.310   4.295  0.00  0.00    -0.126 OA
ENDBRANCH  10  13
ENDBRANCH   6   7
ENDBRANCH   2   5
BRANCH   1  16
ATOM     16  C   UNL     1       0.230   0.377   3.695  0.00  0.00    +0.150 C 
BRANCH  16  19
ATOM     17  N   UNL     1       2.112   1.212   0.916  0.00  0.00    -0.234 N 
ATOM     18  C   UNL     1       2.286   0.965   2.356  0.00  0.00    +0.163 C 
ATOM     19  C   UNL     1       0.985   1.501   2.983  0.00  0.00    +0.213 C 
ATOM     20  O   UNL     1       0.219   1.988   1.838  0.00  0.00    -0.444 OA
ATOM     21  C   UNL     1       0.920   1.791   0.716  0.00  0.00    +0.408 C 
ATOM     22  O   UNL     1       0.514   2.108  -0.384  0.00  0.00    -0.226 OA
BRANCH  17  26
ATOM     23  C   UNL     1       4.877   0.269  -2.055  0.00  0.00    +0.000 A 
ATOM     24  C   UNL     1       3.677   0.866  -2.394  0.00  0.00    +0.002 A 
ATOM     25  C   UNL     1       2.758   1.180  -1.411  0.00  0.00    +0.023 A 
ATOM     26  C   UNL     1       3.041   0.895  -0.082  0.00  0.00    +0.040 A 
ATOM     27  C   UNL     1       4.249   0.300   0.256  0.00  0.00    +0.023 A 
ATOM     28  C   UNL     1       5.162  -0.016  -0.732  0.00  0.00    +0.002 A 
ENDBRANCH  17  26
ENDBRANCH  16  19
ENDBRANCH   1  16
TORSDOF 6
