REMARK  Name = ZINC05528391
REMARK  6 active torsions:
REMARK  status: ('A' for Active; 'I' for Inactive)
REMARK    1  A    between atoms: N_8  and  N_9
REMARK    2  A    between atoms: C_10  and  C_12
REMARK    3  A    between atoms: C_12  and  S_13
REMARK    4  A    between atoms: S_13  and  C_14
REMARK    5  A    between atoms: C_14  and  C_15
REMARK    6  A    between atoms: C_18  and  N_21
REMARK                            x       y       z     vdW  Elec       q    Type
REMARK                         _______ _______ _______ _____ _____    ______ ____
ROOT
ATOM      1  N   UNL     1      -3.232  -1.936   0.023  0.00  0.00    -0.206 N 
ATOM      2  C   UNL     1      -4.565  -1.737   0.037  0.00  0.00    +0.242 C 
ATOM      3  O   UNL     1      -5.010  -0.609   0.046  0.00  0.00    -0.273 OA
ATOM      4  H   UNL     1      -2.829  -2.960   0.015  0.00  0.00    +0.177 HD
ENDROOT
BRANCH   1  12
ATOM      5  C   UNL     1       1.173   2.087   0.002  0.00  0.00    +0.001 A 
ATOM      6  C   UNL     1       2.379   1.407  -0.012  0.00  0.00    +0.002 A 
ATOM      7  C   UNL     1       2.408   0.027  -0.020  0.00  0.00    +0.024 A 
ATOM      8  C   UNL     1       1.220  -0.696  -0.013  0.00  0.00    +0.043 A 
ATOM      9  C   UNL     1       0.002  -0.004   0.002  0.00  0.00    +0.028 A 
ATOM     10  C   UNL     1      -0.017   1.386   0.010  0.00  0.00    +0.012 A 
ATOM     11  C   UNL     1      -1.064  -1.033   0.007  0.00  0.00    +0.152 C 
ATOM     12  N   UNL     1      -2.360  -0.840   0.020  0.00  0.00    -0.175 NA
ATOM     13  C   UNL     1      -0.347  -2.325  -0.006  0.00  0.00    +0.269 C 
ATOM     14  O   UNL     1      -0.859  -3.428  -0.008  0.00  0.00    -0.268 OA
ATOM     15  N   UNL     1       0.971  -2.064  -0.018  0.00  0.00    -0.280 N 
ATOM     16  H   UNL     1       1.810  -2.776  -0.030  0.00  0.00    +0.155 HD
ENDBRANCH   1  12
BRANCH   2  17
ATOM     17  C   UNL     1      -5.503  -2.917   0.040  0.00  0.00    +0.166 C 
BRANCH  17  18
ATOM     18  S   UNL     1      -7.218  -2.326   0.059  0.00  0.00    -0.147 S 
BRANCH  18  19
ATOM     19  C   UNL     1      -8.206  -3.847   0.061  0.00  0.00    +0.104 C 
BRANCH  19  20
ATOM     20  C   UNL     1      -9.671  -3.494   0.077  0.00  0.00    -0.037 A 
ATOM     21  C   UNL     1     -10.333  -3.344   1.281  0.00  0.00    +0.006 A 
ATOM     22  C   UNL     1     -11.676  -3.015   1.295  0.00  0.00    +0.033 A 
ATOM     23  C   UNL     1     -12.359  -2.847   0.105  0.00  0.00    +0.126 A 
ATOM     24  C   UNL     1     -11.698  -3.003  -1.099  0.00  0.00    +0.033 A 
ATOM     25  C   UNL     1     -10.354  -3.326  -1.113  0.00  0.00    +0.006 A 
BRANCH  23  26
ATOM     26  N   UNL     1     -13.798  -2.502   0.121  0.00  0.00    +0.056 N 
ATOM     27  O   UNL     1     -14.400  -2.354  -0.928  0.00  0.00    -0.126 OA
ATOM     28  O   UNL     1     -14.380  -2.364   1.182  0.00  0.00    -0.126 OA
ENDBRANCH  23  26
ENDBRANCH  19  20
ENDBRANCH  18  19
ENDBRANCH  17  18
ENDBRANCH   2  17
TORSDOF 6
