REMARK  Name = ZINC39926558
REMARK  6 active torsions:
REMARK  status: ('A' for Active; 'I' for Inactive)
REMARK    1  A    between atoms: C_4  and  N_7
REMARK    2  A    between atoms: C_8  and  S_24
REMARK    3  A    between atoms: S_24  and  C_25
REMARK    4  A    between atoms: C_25  and  C_26
REMARK    5  A    between atoms: N_28  and  N_29
REMARK    6  A    between atoms: C_30  and  C_31
REMARK                            x       y       z     vdW  Elec       q    Type
REMARK                         _______ _______ _______ _____ _____    ______ ____
ROOT
ATOM      1  N   UNL     1       3.652  -0.629  -0.068  0.00  0.00    -0.246 N 
ATOM      2  C   UNL     1       3.541  -2.074   0.046  0.00  0.00    +0.210 C 
ATOM      3  N   UNL     1       4.556  -2.737   0.870  0.00  0.00    -0.277 NA
ATOM      4  C   UNL     1       5.496  -1.781   1.433  0.00  0.00    +0.135 C 
ATOM      5  C   UNL     1       5.992  -0.927   0.227  0.00  0.00    +0.130 C 
ATOM      6  C   UNL     1       4.869   0.002  -0.096  0.00  0.00    +0.231 C 
ATOM      7  O   UNL     1       5.015   1.179  -0.350  0.00  0.00    -0.274 OA
ATOM      8  C   UNL     1       7.360  -0.406   0.443  0.00  0.00    -0.046 C 
ATOM      9  C   UNL     1       8.132  -1.133   1.264  0.00  0.00    -0.013 C 
ATOM     10  S   UNL     1       7.119  -2.507   1.880  0.00  0.00    -0.110 S 
ATOM     11  C   UNL     1       9.565  -0.870   1.620  0.00  0.00    +0.042 C 
ATOM     12  C   UNL     1      10.136   0.169   0.648  0.00  0.00    +0.005 C 
ATOM     13  C   UNL     1       9.142   1.330   0.540  0.00  0.00    +0.005 C 
ATOM     14  C   UNL     1       7.895   0.865  -0.210  0.00  0.00    +0.032 C 
ATOM     15  H   UNL     1       4.128  -3.292   1.595  0.00  0.00    +0.126 HD
ENDROOT
BRANCH   1  19
ATOM     16  C   UNL     1       0.180   1.658  -0.331  0.00  0.00    +0.000 A 
ATOM     17  C   UNL     1       0.689   1.317   0.908  0.00  0.00    +0.002 A 
ATOM     18  C   UNL     1       1.840   0.559   0.999  0.00  0.00    +0.023 A 
ATOM     19  C   UNL     1       2.486   0.139  -0.156  0.00  0.00    +0.039 A 
ATOM     20  C   UNL     1       1.972   0.482  -1.400  0.00  0.00    +0.023 A 
ATOM     21  C   UNL     1       0.820   1.240  -1.484  0.00  0.00    +0.002 A 
ENDBRANCH   1  19
BRANCH   2  22
ATOM     22  S   UNL     1       3.625  -2.780  -1.623  0.00  0.00    -0.113 S 
BRANCH  22  23
ATOM     23  C   UNL     1       3.025  -4.479  -1.411  0.00  0.00    +0.169 C 
BRANCH  23  24
ATOM     24  C   UNL     1       3.094  -5.204  -2.731  0.00  0.00    +0.242 C 
ATOM     25  O   UNL     1       3.506  -4.631  -3.717  0.00  0.00    -0.273 OA
ATOM     26  N   UNL     1       2.696  -6.489  -2.815  0.00  0.00    -0.206 N 
ATOM     27  H   UNL     1       2.366  -6.947  -2.026  0.00  0.00    +0.177 HD
BRANCH  26  28
ATOM     28  N   UNL     1       2.760  -7.163  -4.042  0.00  0.00    -0.188 NA
ATOM     29  C   UNL     1       2.373  -8.411  -4.124  0.00  0.00    +0.136 C 
BRANCH  29  30
ATOM     30  C   UNL     1       2.437  -9.085  -5.351  0.00  0.00    +0.000 C 
ATOM     31  C   UNL     1       2.063 -10.402  -5.609  0.00  0.00    +0.004 A 
ATOM     32  C   UNL     1       1.536 -11.423  -4.788  0.00  0.00    +0.010 A 
ATOM     33  C   UNL     1       1.259 -12.640  -5.320  0.00  0.00    +0.001 A 
ATOM     34  C   UNL     1       1.483 -12.916  -6.672  0.00  0.00    +0.002 A 
ATOM     35  C   UNL     1       1.986 -11.986  -7.519  0.00  0.00    +0.026 A 
ATOM     36  C   UNL     1       2.301 -10.688  -7.035  0.00  0.00    +0.043 A 
ATOM     37  N   UNL     1       2.792  -9.627  -7.641  0.00  0.00    -0.380 N 
ATOM     38  C   UNL     1       2.920  -8.533  -6.675  0.00  0.00    +0.150 C 
ATOM     39  H   UNL     1       3.027  -9.577  -8.581  0.00  0.00    +0.160 HD
ENDBRANCH  29  30
ENDBRANCH  26  28
ENDBRANCH  23  24
ENDBRANCH  22  23
ENDBRANCH   2  22
TORSDOF 6
