REMARK  Name = ZINC34786101
REMARK  7 active torsions:
REMARK  status: ('A' for Active; 'I' for Inactive)
REMARK    1  A    between atoms: C_1  and  C_2
REMARK    2  A    between atoms: C_2  and  C_3
REMARK    3  A    between atoms: C_4  and  C_23
REMARK    4  A    between atoms: C_6  and  N_10
REMARK    5  A    between atoms: C_7  and  C_8
REMARK    6  A    between atoms: N_16  and  C_19
REMARK    7  A    between atoms: C_19  and  C_20
REMARK                            x       y       z     vdW  Elec       q    Type
REMARK                         _______ _______ _______ _____ _____    ______ ____
ROOT
ATOM      1  N   UNL     1       2.625  -2.101   5.360  0.00  0.00    -0.263 N 
ATOM      2  C   UNL     1       1.325  -1.998   5.703  0.00  0.00    +0.307 C 
ATOM      3  O   UNL     1       0.525  -1.527   4.919  0.00  0.00    -0.252 OA
ATOM      4  N   UNL     1       0.914  -2.418   6.916  0.00  0.00    -0.283 N 
ATOM      5  C   UNL     1      -0.514  -2.422   7.268  0.00  0.00    +0.124 C 
ATOM      6  C   UNL     1      -0.877  -3.809   7.812  0.00  0.00    +0.104 C 
ATOM      7  N   UNL     1       0.035  -4.155   8.910  0.00  0.00    -0.291 NA
ATOM      8  C   UNL     1       1.423  -4.252   8.440  0.00  0.00    +0.104 C 
ATOM      9  C   UNL     1       1.879  -2.890   7.920  0.00  0.00    +0.124 C 
ATOM     10  H   UNL     1       3.276  -2.407   6.011  0.00  0.00    +0.157 HD
ENDROOT
BRANCH   1  14
ATOM     11  C   UNL     1       4.461  -1.409   2.170  0.00  0.00    -0.018 A 
ATOM     12  C   UNL     1       3.329  -1.033   1.545  0.00  0.00    -0.007 A 
ATOM     13  S   UNL     1       2.085  -1.222   2.803  0.00  0.00    -0.077 S 
ATOM     14  C   UNL     1       3.032  -1.769   4.075  0.00  0.00    +0.091 A 
ATOM     15  C   UNL     1       4.313  -1.818   3.548  0.00  0.00    +0.084 A 
ATOM     16  C   UNL     1       3.158  -0.564   0.123  0.00  0.00    +0.052 C 
BRANCH  11  18
ATOM     17  C   UNL     1       6.028  -2.768   0.811  0.00  0.00    +0.009 C 
ATOM     18  C   UNL     1       5.798  -1.409   1.474  0.00  0.00    +0.034 C 
ENDBRANCH  11  18
BRANCH  15  19
ATOM     19  C   UNL     1       5.433  -2.248   4.330  0.00  0.00    +0.102 C 
ATOM     20  N   UNL     1       6.322  -2.588   4.950  0.00  0.00    -0.191 NA
ENDBRANCH  15  19
ENDBRANCH   1  14
BRANCH   7  21
ATOM     21  C   UNL     1      -0.385  -5.398   9.571  0.00  0.00    +0.180 C 
BRANCH  21  22
ATOM     22  C   UNL     1       0.416  -5.591  10.833  0.00  0.00    +0.225 C 
ATOM     23  O   UNL     1       1.254  -4.774  11.150  0.00  0.00    -0.275 OA
ATOM     24  N   UNL     1       0.201  -6.672  11.608  0.00  0.00    -0.328 N 
ATOM     25  H   UNL     1      -0.470  -7.325  11.355  0.00  0.00    +0.145 HD
ATOM     26  H   UNL     1       0.716  -6.797  12.421  0.00  0.00    +0.145 HD
ENDBRANCH  21  22
ENDBRANCH   7  21
TORSDOF 5
