REMARK  Name = ZINC59991024
REMARK  9 active torsions:
REMARK  status: ('A' for Active; 'I' for Inactive)
REMARK    1  A    between atoms: C_1  and  C_2
REMARK    2  A    between atoms: N_7  and  C_9
REMARK    3  A    between atoms: C_9  and  C_10
REMARK    4  A    between atoms: C_9  and  C_11
REMARK    5  A    between atoms: C_9  and  C_12
REMARK    6  A    between atoms: C_12  and  N_13
REMARK    7  A    between atoms: C_14  and  C_16
REMARK    8  A    between atoms: C_16  and  N_17
REMARK    9  A    between atoms: C_18  and  C_20
REMARK                            x       y       z     vdW  Elec       q    Type
REMARK                         _______ _______ _______ _____ _____    ______ ____
ROOT
ATOM      1  N   UNL     1       2.186  -4.461   1.142  0.00  0.00    -0.315 N 
ATOM      2  C   UNL     1       2.321  -5.782   0.914  0.00  0.00    +0.230 C 
ATOM      3  O   UNL     1       1.925  -6.582   1.736  0.00  0.00    -0.274 OA
ATOM      4  H   UNL     1       2.502  -3.821   0.485  0.00  0.00    +0.149 HD
ENDROOT
BRANCH   1   5
ATOM      5  C   UNL     1       1.562  -3.991   2.382  0.00  0.00    +0.092 C 
BRANCH   5   6
ATOM      6  C   UNL     1       1.534  -2.461   2.390  0.00  0.00    -0.055 C 
ATOM      7  C   UNL     1       2.963  -1.924   2.303  0.00  0.00    -0.008 C 
ATOM      8  C   UNL     1       0.882  -1.970   3.685  0.00  0.00    -0.008 C 
BRANCH   6  14
ATOM      9  C   UNL     1      -0.019   1.526   0.010  0.00  0.00    +0.005 C 
ATOM     10  C   UNL     1       0.002  -0.004   0.002  0.00  0.00    -0.031 C 
ATOM     11  C   UNL     1      -1.434  -0.535   0.015  0.00  0.00    -0.001 C 
ATOM     12  C   UNL     1      -1.402  -2.064   0.086  0.00  0.00    -0.018 C 
ATOM     13  C   UNL     1      -0.613  -2.496   1.324  0.00  0.00    -0.078 C 
ATOM     14  N   UNL     1       0.758  -1.980   1.239  0.00  0.00    +0.384 N 
ATOM     15  C   UNL     1       0.740  -0.512   1.242  0.00  0.00    -0.075 C 
ATOM     16  H   UNL     1       1.188  -2.307   0.386  0.00  0.00    -0.081 HD
ENDBRANCH   6  14
ENDBRANCH   5   6
ENDBRANCH   1   5
BRANCH   2  17
ATOM     17  C   UNL     1       2.962  -6.266  -0.361  0.00  0.00    +0.200 C 
BRANCH  17  18
ATOM     18  N   UNL     1       2.990  -7.730  -0.369  0.00  0.00    -0.306 N 
ATOM     19  C   UNL     1       3.522  -8.389  -1.417  0.00  0.00    +0.220 C 
ATOM     20  O   UNL     1       3.978  -7.768  -2.355  0.00  0.00    -0.275 OA
ATOM     21  H   UNL     1       2.625  -8.226   0.381  0.00  0.00    +0.149 HD
BRANCH  19  22
ATOM     22  C   UNL     1       3.550  -9.895  -1.426  0.00  0.00    +0.048 C 
ATOM     23  C   UNL     1       2.120 -10.433  -1.339  0.00  0.00    +0.019 C 
ATOM     24  C   UNL     1       2.149 -11.963  -1.347  0.00  0.00    -0.009 C 
ATOM     25  C   UNL     1       2.800 -12.453  -2.642  0.00  0.00    +0.007 C 
ATOM     26  C   UNL     1       4.230 -11.916  -2.729  0.00  0.00    -0.009 C 
ATOM     27  C   UNL     1       4.201 -10.386  -2.720  0.00  0.00    +0.019 C 
ATOM     28  C   UNL     1       5.037 -12.417  -1.530  0.00  0.00    +0.007 C 
ATOM     29  C   UNL     1       4.386 -11.927  -0.235  0.00  0.00    -0.009 C 
ATOM     30  C   UNL     1       2.956 -12.464  -0.148  0.00  0.00    +0.007 C 
ATOM     31  C   UNL     1       4.357 -10.397  -0.227  0.00  0.00    +0.019 C 
ENDBRANCH  19  22
ENDBRANCH  17  18
ENDBRANCH   2  17
TORSDOF 6
