REMARK  Name = ZINC25145467
REMARK  8 active torsions:
REMARK  status: ('A' for Active; 'I' for Inactive)
REMARK    1  A    between atoms: C_1  and  N_2
REMARK    2  A    between atoms: C_3  and  S_7
REMARK    3  A    between atoms: S_7  and  C_8
REMARK    4  A    between atoms: C_8  and  C_9
REMARK    5  A    between atoms: N_11  and  C_12
REMARK    6  A    between atoms: C_15  and  C_18
REMARK    7  A    between atoms: N_20  and  C_21
REMARK    8  A    between atoms: C_26  and  C_29
REMARK                            x       y       z     vdW  Elec       q    Type
REMARK                         _______ _______ _______ _____ _____    ______ ____
ROOT
ATOM      1  C   UNL     1      -0.015   1.391   0.003  0.00  0.00    +0.033 A 
ATOM      2  C   UNL     1       1.176   2.111  -0.015  0.00  0.00    +0.024 A 
ATOM      3  C   UNL     1       2.383   1.448  -0.037  0.00  0.00    +0.015 A 
ATOM      4  C   UNL     1       2.410   0.050  -0.042  0.00  0.00    +0.037 A 
ATOM      5  C   UNL     1       1.212  -0.669  -0.024  0.00  0.00    +0.015 A 
ATOM      6  C   UNL     1       0.009   0.000  -0.002  0.00  0.00    +0.024 A 
ENDROOT
BRANCH   1   9
ATOM      7  C   UNL     1      -1.354   3.226   0.696  0.00  0.00    +0.227 C 
ATOM      8  O   UNL     1      -0.381   3.725   1.220  0.00  0.00    -0.275 OA
ATOM      9  N   UNL     1      -1.235   2.066   0.019  0.00  0.00    -0.285 N 
ATOM     10  H   UNL     1      -2.099   1.652  -0.520  0.00  0.00    +0.155 HD
BRANCH   7  11
ATOM     11  C   UNL     1      -2.697   3.902   0.800  0.00  0.00    +0.173 C 
BRANCH  11  12
ATOM     12  S   UNL     1      -2.532   5.426   1.762  0.00  0.00    -0.075 S 
BRANCH  12  15
ATOM     13  C   UNL     1      -3.927   8.114   3.075  0.00  0.00    +0.177 C 
ATOM     14  N   UNL     1      -4.678   7.121   2.302  0.00  0.00    -0.223 N 
ATOM     15  C   UNL     1      -4.200   5.993   1.727  0.00  0.00    +0.210 A 
ATOM     16  N   UNL     1      -5.213   5.403   1.131  0.00  0.00    -0.102 NA
ATOM     17  N   UNL     1      -6.291   6.079   1.303  0.00  0.00    -0.022 NA
ATOM     18  N   UNL     1      -6.051   7.136   1.999  0.00  0.00    -0.043 NA
ENDBRANCH  12  15
ENDBRANCH  11  12
ENDBRANCH   7  11
ENDBRANCH   1   9
BRANCH   4  19
ATOM     19  C   UNL     1       3.701  -0.664  -0.066  0.00  0.00    +0.244 C 
ATOM     20  O   UNL     1       3.724  -1.880  -0.070  0.00  0.00    -0.270 OA
ATOM     21  N   UNL     1       4.856   0.031  -0.083  0.00  0.00    -0.308 N 
ATOM     22  H   UNL     1       4.836   1.131  -0.079  0.00  0.00    +0.149 HD
BRANCH  21  23
ATOM     23  C   UNL     1       6.138  -0.678  -0.107  0.00  0.00    +0.074 C 
ATOM     24  C   UNL     1       6.499  -1.030  -1.551  0.00  0.00    +0.022 C 
ATOM     25  C   UNL     1       6.610   0.253  -2.377  0.00  0.00    +0.002 C 
ATOM     26  C   UNL     1       7.700   1.149  -1.783  0.00  0.00    +0.012 C 
ATOM     27  C   UNL     1       7.338   1.501  -0.338  0.00  0.00    +0.095 C 
ATOM     28  C   UNL     1       7.227   0.217   0.487  0.00  0.00    +0.034 C 
BRANCH  27  29
ATOM     29  C   UNL     1       8.428   2.396   0.256  0.00  0.00    +0.393 C 
ATOM     30  F   UNL     1       9.652   1.719   0.233  0.00  0.00    -0.170 F 
ATOM     31  F   UNL     1       8.530   3.570  -0.499  0.00  0.00    -0.170 F 
ATOM     32  F   UNL     1       8.098   2.719   1.577  0.00  0.00    -0.170 F 
ENDBRANCH  27  29
ENDBRANCH  21  23
ENDBRANCH   4  19
TORSDOF 7
