REMARK  Name = ZINC17306264
REMARK  16 active torsions:
REMARK  status: ('A' for Active; 'I' for Inactive)
REMARK    1  A    between atoms: C_1  and  C_2
REMARK    2  A    between atoms: C_2  and  O_3
REMARK    3  A    between atoms: O_3  and  C_4
REMARK    4  A    between atoms: C_4  and  C_6
REMARK    5  A    between atoms: C_7  and  C_34
REMARK    6  A    between atoms: C_8  and  C_30
REMARK    7  A    between atoms: C_10  and  N_11
REMARK    8  A    between atoms: C_12  and  C_14
REMARK    9  A    between atoms: C_14  and  N_61
REMARK   10  A    between atoms: C_15  and  N_61
REMARK   11  A    between atoms: C_16  and  C_18
REMARK   12  A    between atoms: C_16  and  C_19
REMARK   13  A    between atoms: C_16  and  N_61
REMARK   14  A    between atoms: C_22  and  N_25
REMARK   15  A    between atoms: C_30  and  O_32
REMARK   16  A    between atoms: O_32  and  C_33
REMARK                            x       y       z     vdW  Elec       q    Type
REMARK                         _______ _______ _______ _____ _____    ______ ____
ROOT
ATOM      1  N   UNL     1      -0.288   1.272  -2.443  0.00  0.00    -0.281 N 
ATOM      2  C   UNL     1      -0.742   1.585  -1.213  0.00  0.00    +0.201 C 
ATOM      3  O   UNL     1      -1.736   2.268  -1.089  0.00  0.00    -0.278 OA
ATOM      4  H   UNL     1       0.507   0.726  -2.543  0.00  0.00    +0.155 HD
ENDROOT
BRANCH   1   9
ATOM      5  C   UNL     1      -0.647   1.516  -4.910  0.00  0.00    +0.091 A 
ATOM      6  C   UNL     1      -1.480   2.086  -5.861  0.00  0.00    -0.014 A 
ATOM      7  C   UNL     1      -2.547   2.819  -5.414  0.00  0.00    +0.102 A 
ATOM      8  S   UNL     1      -2.388   2.704  -3.642  0.00  0.00    -0.066 S 
ATOM      9  C   UNL     1      -0.956   1.730  -3.562  0.00  0.00    +0.087 A 
ATOM     10  C   UNL     1      -1.219   1.906  -7.334  0.00  0.00    +0.046 C 
BRANCH   5  11
ATOM     11  C   UNL     1       0.518   0.716  -5.304  0.00  0.00    +0.342 C 
ATOM     12  O   UNL     1       0.405  -0.484  -5.466  0.00  0.00    -0.245 OA
BRANCH  11  13
ATOM     13  O   UNL     1       1.714   1.312  -5.485  0.00  0.00    -0.461 OA
BRANCH  13  15
ATOM     14  C   UNL     1       4.087   1.306  -6.032  0.00  0.00    +0.048 C 
ATOM     15  C   UNL     1       2.823   0.459  -5.875  0.00  0.00    +0.229 C 
ENDBRANCH  13  15
ENDBRANCH  11  13
ENDBRANCH   5  11
BRANCH   7  16
ATOM     16  C   UNL     1      -3.567   3.517  -6.196  0.00  0.00    +0.346 C 
ATOM     17  O   UNL     1      -3.527   3.488  -7.411  0.00  0.00    -0.244 OA
BRANCH  16  18
ATOM     18  O   UNL     1      -4.551   4.194  -5.569  0.00  0.00    -0.464 OA
ATOM     19  C   UNL     1      -5.513   4.853  -6.395  0.00  0.00    +0.280 C 
ENDBRANCH  16  18
ENDBRANCH   7  16
ENDBRANCH   1   9
BRANCH   2  20
ATOM     20  C   UNL     1      -0.013   1.086   0.008  0.00  0.00    +0.019 C 
BRANCH  20  22
ATOM     21  C   UNL     1      -2.034   0.955   1.335  0.00  0.00    -0.095 C 
ATOM     22  N   UNL     1      -0.704   1.588   1.214  0.00  0.00    +0.388 N 
ATOM     23  H   UNL     1      -0.824   2.604   1.131  0.00  0.00    -0.081 HD
BRANCH  22  24
ATOM     24  C   UNL     1       0.104   1.297   2.417  0.00  0.00    -0.041 C 
ATOM     25  C   UNL     1       1.447   2.022   2.300  0.00  0.00    -0.008 C 
BRANCH  24  26
ATOM     26  C   UNL     1      -0.631   1.796   3.634  0.00  0.00    -0.061 A 
ATOM     27  C   UNL     1      -1.317   2.995   3.583  0.00  0.00    +0.004 A 
ATOM     28  C   UNL     1      -1.997   3.452   4.695  0.00  0.00    +0.028 A 
ATOM     29  C   UNL     1      -1.982   2.711   5.869  0.00  0.00    +0.067 A 
ATOM     30  C   UNL     1      -1.288   1.510   5.919  0.00  0.00    +0.028 A 
ATOM     31  C   UNL     1      -0.615   1.055   4.802  0.00  0.00    +0.004 A 
BRANCH  29  32
ATOM     32  N   UNL     1      -2.667   3.175   7.001  0.00  0.00    -0.220 N 
ATOM     33  C   UNL     1      -3.375   4.316   7.105  0.00  0.00    +0.225 A 
ATOM     34  N   UNL     1      -3.859   4.383   8.319  0.00  0.00    -0.222 NA
ATOM     35  C   UNL     1      -3.478   3.314   9.017  0.00  0.00    +0.245 A 
ATOM     36  N   UNL     1      -2.747   2.545   8.253  0.00  0.00    -0.154 NA
ENDBRANCH  29  32
ENDBRANCH  24  26
ENDBRANCH  22  24
ENDBRANCH  20  22
ENDBRANCH   2  20
TORSDOF 11
