REMARK  Name = ZINC09823794
REMARK  8 active torsions:
REMARK  status: ('A' for Active; 'I' for Inactive)
REMARK    1  A    between atoms: C_1  and  C_2
REMARK    2  A    between atoms: C_5  and  N_8
REMARK    3  A    between atoms: C_10  and  C_15
REMARK    4  A    between atoms: N_17  and  C_18
REMARK    5  A    between atoms: C_18  and  C_19
REMARK    6  A    between atoms: C_19  and  N_20
REMARK    7  A    between atoms: N_27  and  C_30
REMARK    8  A    between atoms: C_30  and  C_31
REMARK                            x       y       z     vdW  Elec       q    Type
REMARK                         _______ _______ _______ _____ _____    ______ ____
ROOT
ATOM      1  C   UNL     1       7.715   8.585  -0.664  0.00  0.00    +0.164 C 
ENDROOT
BRANCH   1   2
ATOM      2  N   UNL     1       8.254   9.704  -1.440  0.00  0.00    -0.245 N 
ATOM      3  C   UNL     1       8.862   9.613  -2.651  0.00  0.00    +0.165 A 
ATOM      4  C   UNL     1       9.214  10.920  -3.023  0.00  0.00    +0.103 A 
ATOM      5  C   UNL     1       8.798  11.775  -1.986  0.00  0.00    +0.150 A 
ATOM      6  N   UNL     1       8.234  11.052  -1.058  0.00  0.00    -0.177 NA
ATOM      7  C   UNL     1       9.890  11.114  -4.306  0.00  0.00    +0.265 A 
ATOM      8  O   UNL     1      10.225  12.223  -4.682  0.00  0.00    -0.267 OA
ATOM      9  N   UNL     1      10.130  10.014  -5.058  0.00  0.00    -0.294 N 
ATOM     10  C   UNL     1       9.748   8.788  -4.619  0.00  0.00    +0.204 A 
ATOM     11  N   UNL     1       9.146   8.598  -3.482  0.00  0.00    -0.218 NA
BRANCH   9  12
ATOM     12  C   UNL     1      10.804  10.148  -6.352  0.00  0.00    +0.161 C 
BRANCH  12  13
ATOM     13  C   UNL     1      12.293  10.031  -6.157  0.00  0.00    -0.028 A 
ATOM     14  C   UNL     1      13.049  11.163  -5.912  0.00  0.00    +0.007 A 
ATOM     15  C   UNL     1      14.415  11.056  -5.728  0.00  0.00    +0.020 A 
ATOM     16  C   UNL     1      15.027   9.817  -5.799  0.00  0.00    +0.041 A 
ATOM     17  C   UNL     1      14.271   8.686  -6.049  0.00  0.00    +0.020 A 
ATOM     18  C   UNL     1      12.904   8.793  -6.228  0.00  0.00    +0.007 A 
ATOM     19 CL   UNL     1      16.743   9.682  -5.573  0.00  0.00    -0.084 Cl
ENDBRANCH  12  13
ENDBRANCH   9  12
ENDBRANCH   1   2
BRANCH   1  20
ATOM     20  C   UNL     1       6.250   8.360  -1.042  0.00  0.00    +0.127 C 
BRANCH  20  23
ATOM     21  C   UNL     1       4.429   6.859  -0.433  0.00  0.00    +0.218 C 
ATOM     22  O   UNL     1       3.722   7.442  -1.227  0.00  0.00    -0.275 OA
ATOM     23  N   UNL     1       5.711   7.240  -0.266  0.00  0.00    -0.313 N 
ATOM     24  H   UNL     1       6.277   6.774   0.369  0.00  0.00    +0.149 HD
BRANCH  21  27
ATOM     25  N   UNL     1       2.356   3.889   0.001  0.00  0.00    -0.271 N 
ATOM     26  C   UNL     1       2.446   5.350  -0.104  0.00  0.00    +0.127 C 
ATOM     27  C   UNL     1       3.876   5.707   0.365  0.00  0.00    +0.101 C 
ATOM     28  C   UNL     1       4.642   4.400   0.057  0.00  0.00    +0.110 C 
ATOM     29  C   UNL     1       3.575   3.329   0.083  0.00  0.00    +0.221 C 
ATOM     30  O   UNL     1       3.788   2.138   0.166  0.00  0.00    -0.275 OA
BRANCH  25  35
ATOM     31  C   UNL     1      -2.513   0.977   0.020  0.00  0.00    +0.044 C 
ATOM     32  C   UNL     1      -1.220   1.750   0.017  0.00  0.00    -0.050 A 
ATOM     33  C   UNL     1      -0.013   1.076  -0.007  0.00  0.00    +0.005 A 
ATOM     34  C   UNL     1       1.174   1.782  -0.015  0.00  0.00    +0.024 A 
ATOM     35  C   UNL     1       1.155   3.170   0.008  0.00  0.00    +0.036 A 
ATOM     36  C   UNL     1      -0.059   3.844   0.038  0.00  0.00    +0.024 A 
ATOM     37  C   UNL     1      -1.243   3.132   0.045  0.00  0.00    +0.005 A 
ENDBRANCH  25  35
ENDBRANCH  21  27
ENDBRANCH  20  23
ENDBRANCH   1  20
TORSDOF 7
