REMARK  Name = ZINC63243108
REMARK  7 active torsions:
REMARK  status: ('A' for Active; 'I' for Inactive)
REMARK    1  A    between atoms: C_1  and  C_2
REMARK    2  A    between atoms: C_4  and  C_25
REMARK    3  A    between atoms: C_5  and  S_21
REMARK    4  A    between atoms: C_7  and  C_8
REMARK    5  A    between atoms: N_10  and  N_11
REMARK    6  A    between atoms: C_12  and  C_14
REMARK    7  A    between atoms: S_21  and  N_24
REMARK                            x       y       z     vdW  Elec       q    Type
REMARK                         _______ _______ _______ _____ _____    ______ ____
ROOT
ATOM      1  C   UNL     1       0.242   0.021   2.482  0.00  0.00    +0.260 C 
ATOM      2  O   UNL     1       0.139   1.232   2.503  0.00  0.00    -0.269 OA
ATOM      3  N   UNL     1       0.460  -0.658   3.626  0.00  0.00    -0.230 N 
ATOM      4  H   UNL     1       0.542  -1.624   3.608  0.00  0.00    +0.173 HD
ENDROOT
BRANCH   1  11
ATOM      5  C   UNL     1      -0.501   1.454   0.081  0.00  0.00    +0.044 C 
ATOM      6  C   UNL     1      -0.229  -0.027   0.036  0.00  0.00    -0.038 A 
ATOM      7  C   UNL     1      -0.329  -0.713  -1.158  0.00  0.00    +0.009 A 
ATOM      8  C   UNL     1      -0.080  -2.073  -1.200  0.00  0.00    -0.024 A 
ATOM      9  C   UNL     1       0.270  -2.755  -0.049  0.00  0.00    +0.109 A 
ATOM     10  C   UNL     1       0.373  -2.082   1.151  0.00  0.00    +0.042 A 
ATOM     11  C   UNL     1       0.128  -0.708   1.200  0.00  0.00    +0.043 A 
ATOM     12  C   UNL     1      -0.191  -2.815  -2.507  0.00  0.00    +0.046 C 
BRANCH   9  13
ATOM     13  S   UNL     1       0.585  -4.487  -0.114  0.00  0.00    +0.056 S 
ATOM     14  O   UNL     1       1.478  -4.697  -1.199  0.00  0.00    -0.153 OA
ATOM     15  O   UNL     1       0.888  -4.896   1.213  0.00  0.00    -0.153 OA
BRANCH  13  16
ATOM     16  N   UNL     1      -0.839  -5.228  -0.523  0.00  0.00    -0.204 NA
ATOM     17  H   UNL     1      -0.827  -6.060  -1.022  0.00  0.00    +0.144 HD
ATOM     18  H   UNL     1      -1.685  -4.830  -0.263  0.00  0.00    +0.144 HD
ENDBRANCH  13  16
ENDBRANCH   9  13
ENDBRANCH   1  11
BRANCH   3  19
ATOM     19  N   UNL     1       0.567   0.033   4.840  0.00  0.00    -0.230 N 
ATOM     20  C   UNL     1       0.785  -0.645   5.984  0.00  0.00    +0.262 C 
ATOM     21  O   UNL     1       0.888  -1.856   5.962  0.00  0.00    -0.269 OA
ATOM     22  H   UNL     1       0.485   1.000   4.857  0.00  0.00    +0.173 HD
BRANCH  20  23
ATOM     23  C   UNL     1       0.898   0.084   7.265  0.00  0.00    +0.056 A 
ATOM     24  C   UNL     1       1.130  -0.610   8.460  0.00  0.00    +0.017 A 
ATOM     25  C   UNL     1       1.228   0.118   9.631  0.00  0.00    +0.041 A 
ATOM     26  C   UNL     1       1.095   1.497   9.586  0.00  0.00    +0.129 A 
ATOM     27  N   UNL     1       0.877   2.123   8.444  0.00  0.00    -0.243 NA
ATOM     28  C   UNL     1       0.782   1.473   7.302  0.00  0.00    +0.125 A 
ATOM     29 CL   UNL     1       1.218   2.415  11.054  0.00  0.00    -0.062 Cl
ENDBRANCH  20  23
ENDBRANCH   3  19
TORSDOF 5
