REMARK  Name = ZINC63818194
REMARK  5 active torsions:
REMARK  status: ('A' for Active; 'I' for Inactive)
REMARK    1  A    between atoms: C_4  and  C_7
REMARK    2  A    between atoms: C_4  and  C_21
REMARK    3  A    between atoms: C_7  and  C_8
REMARK    4  A    between atoms: N_10  and  C_11
REMARK    5  A    between atoms: C_21  and  N_22
REMARK                            x       y       z     vdW  Elec       q    Type
REMARK                         _______ _______ _______ _____ _____    ______ ____
ROOT
ATOM      1  C   UNL     1       2.359   0.032  -2.910  0.00  0.00    +0.104 C 
ENDROOT
BRANCH   1   5
ATOM      2  C   UNL     1      -0.911   0.139  -0.078  0.00  0.00    +0.000 C 
ATOM      3  C   UNL     1       0.301   1.035   0.185  0.00  0.00    +0.001 C 
ATOM      4  C   UNL     1       1.093   1.216  -1.111  0.00  0.00    +0.009 C 
ATOM      5  C   UNL     1       1.567  -0.149  -1.614  0.00  0.00    -0.004 C 
ATOM      6  C   UNL     1       0.355  -1.045  -1.877  0.00  0.00    +0.009 C 
ATOM      7  C   UNL     1      -0.437  -1.226  -0.581  0.00  0.00    +0.001 C 
BRANCH   5   8
ATOM      8  C   UNL     1       2.461  -0.800  -0.556  0.00  0.00    +0.136 C 
BRANCH   8   9
ATOM      9  N   UNL     1       3.688  -0.014  -0.404  0.00  0.00    -0.217 N 
ATOM     10  C   UNL     1       3.881   1.179   0.442  0.00  0.00    +0.251 C 
ATOM     11  N   UNL     1       5.292   1.533   0.196  0.00  0.00    -0.231 N 
ATOM     12  N   UNL     1       5.772   0.582  -0.712  0.00  0.00    -0.064 NA
ATOM     13  N   UNL     1       4.920  -0.245  -1.028  0.00  0.00    -0.061 NA
ATOM     14  H   UNL     1       5.785   2.273   0.583  0.00  0.00    +0.172 HD
ENDBRANCH   8   9
ENDBRANCH   5   8
ENDBRANCH   1   5
BRANCH   1  15
ATOM     15  C   UNL     1       2.799  -1.316  -3.422  0.00  0.00    +0.218 C 
ATOM     16  O   UNL     1       2.402  -2.328  -2.885  0.00  0.00    -0.275 OA
ATOM     17  N   UNL     1       3.635  -1.396  -4.477  0.00  0.00    -0.285 N 
ATOM     18  H   UNL     1       3.889  -0.592  -4.956  0.00  0.00    +0.155 HD
BRANCH  17  19
ATOM     19  C   UNL     1       4.130  -2.628  -4.878  0.00  0.00    +0.033 C 
ATOM     20  C   UNL     1       4.876  -2.731  -6.031  0.00  0.00    +0.029 C 
ATOM     21  C   UNL     1       5.275  -4.029  -6.368  0.00  0.00    -0.016 C 
ATOM     22  C   UNL     1       6.353  -4.518  -7.013  0.00  0.00    +0.025 C 
ATOM     23  C   UNL     1       6.409  -5.914  -6.835  0.00  0.00    +0.106 C 
ATOM     24  N   UNL     1       5.371  -6.371  -6.190  0.00  0.00    -0.279 NA
ATOM     25  C   UNL     1       4.467  -5.252  -5.965  0.00  0.00    +0.158 C 
ATOM     26  C   UNL     1       4.032  -5.063  -4.543  0.00  0.00    +0.006 C 
ATOM     27  C   UNL     1       3.865  -3.824  -4.072  0.00  0.00    +0.021 C 
ENDBRANCH  17  19
ENDBRANCH   1  15
TORSDOF 5
