REMARK  Name = ZINC30756474
REMARK  7 active torsions:
REMARK  status: ('A' for Active; 'I' for Inactive)
REMARK    1  A    between atoms: C_1  and  C_2
REMARK    2  A    between atoms: C_2  and  C_3
REMARK    3  A    between atoms: C_2  and  C_4
REMARK    4  A    between atoms: C_4  and  C_6
REMARK    5  A    between atoms: C_4  and  S_19
REMARK    6  A    between atoms: S_19  and  C_20
REMARK    7  A    between atoms: N_24  and  C_29
REMARK                            x       y       z     vdW  Elec       q    Type
REMARK                         _______ _______ _______ _____ _____    ______ ____
ROOT
ATOM      1  C   UNL     1      -0.895  -2.602  -0.135  0.00  0.00    +0.142 C 
ENDROOT
BRANCH   1   2
ATOM      2  C   UNL     1      -2.203  -3.339  -0.265  0.00  0.00    +0.234 C 
ATOM      3  O   UNL     1      -3.216  -2.732  -0.545  0.00  0.00    -0.274 OA
ATOM      4  N   UNL     1      -2.249  -4.671  -0.069  0.00  0.00    -0.260 N 
ATOM      5  C   UNL     1      -1.059  -5.414   0.374  0.00  0.00    +0.209 C 
ATOM      6  C   UNL     1      -0.971  -6.706  -0.398  0.00  0.00    +0.235 C 
ATOM      7  O   UNL     1       0.114  -7.205  -0.608  0.00  0.00    -0.274 OA
ATOM      8  N   UNL     1      -2.082  -7.311  -0.859  0.00  0.00    -0.283 N 
ATOM      9  C   UNL     1      -3.341  -6.731  -0.675  0.00  0.00    +0.055 A 
ATOM     10  C   UNL     1      -3.434  -5.394  -0.275  0.00  0.00    +0.058 A 
ATOM     11  C   UNL     1      -4.671  -4.806  -0.101  0.00  0.00    +0.025 A 
ATOM     12  C   UNL     1      -5.821  -5.547  -0.312  0.00  0.00    +0.002 A 
ATOM     13  C   UNL     1      -5.733  -6.871  -0.700  0.00  0.00    +0.002 A 
ATOM     14  C   UNL     1      -4.497  -7.465  -0.882  0.00  0.00    +0.025 A 
ATOM     15  H   UNL     1      -2.005  -8.274  -1.386  0.00  0.00    +0.155 HD
ENDBRANCH   1   2
BRANCH   1  17
ATOM     16  C   UNL     1       0.159  -4.062  -1.867  0.00  0.00    +0.009 C 
ATOM     17  C   UNL     1      -0.166  -2.618  -1.480  0.00  0.00    +0.005 C 
ATOM     18  C   UNL     1      -1.059  -1.991  -2.552  0.00  0.00    +0.009 C 
ENDBRANCH   1  17
BRANCH   1  19
ATOM     19  S   UNL     1      -1.212  -0.890   0.359  0.00  0.00    -0.092 S 
BRANCH  19  20
ATOM     20  C   UNL     1       0.431  -0.365   0.716  0.00  0.00    +0.112 A 
ATOM     21  C   UNL     1       0.703   0.977   1.051  0.00  0.00    +0.070 A 
ATOM     22  C   UNL     1      -0.078   2.144   1.188  0.00  0.00    +0.147 A 
ATOM     23  N   UNL     1       0.706   3.128   1.525  0.00  0.00    -0.177 NA
ATOM     24  N   UNL     1       2.026   2.669   1.618  0.00  0.00    -0.249 N 
ATOM     25  C   UNL     1       2.036   1.338   1.326  0.00  0.00    +0.162 A 
ATOM     26  N   UNL     1       2.983   0.402   1.259  0.00  0.00    -0.216 NA
ATOM     27  C   UNL     1       2.680  -0.837   0.942  0.00  0.00    +0.224 A 
ATOM     28  N   UNL     1       1.445  -1.224   0.675  0.00  0.00    -0.228 NA
ATOM     29  C   UNL     1       3.194   3.481   1.968  0.00  0.00    +0.174 C 
ENDBRANCH  19  20
ENDBRANCH   1  19
TORSDOF 4
