REMARK  Name = ZINC40779002
REMARK  8 active torsions:
REMARK  status: ('A' for Active; 'I' for Inactive)
REMARK    1  A    between atoms: C_1  and  C_2
REMARK    2  A    between atoms: C_2  and  N_3
REMARK    3  A    between atoms: C_4  and  C_25
REMARK    4  A    between atoms: C_5  and  N_9
REMARK    5  A    between atoms: C_6  and  C_8
REMARK    6  A    between atoms: C_10  and  C_12
REMARK    7  A    between atoms: C_12  and  C_24
REMARK    8  A    between atoms: C_18  and  C_23
REMARK                            x       y       z     vdW  Elec       q    Type
REMARK                         _______ _______ _______ _____ _____    ______ ____
ROOT
ATOM      1  C   UNL     1       1.314  -1.837  -6.942  0.00  0.00    +0.258 C 
ATOM      2  C   UNL     1       2.359  -1.220  -7.837  0.00  0.00    +0.270 C 
ATOM      3  O   UNL     1       3.486  -1.043  -7.425  0.00  0.00    -0.271 OA
ATOM      4  N   UNL     1       2.035  -0.864  -9.097  0.00  0.00    -0.279 N 
ATOM      5  C   UNL     1       0.699  -0.958  -9.513  0.00  0.00    +0.076 A 
ATOM      6  C   UNL     1       0.367  -0.822 -10.851  0.00  0.00    +0.030 A 
ATOM      7  C   UNL     1      -0.954  -0.930 -11.246  0.00  0.00    -0.048 A 
ATOM      8  C   UNL     1      -1.942  -1.175 -10.310  0.00  0.00    +0.007 A 
ATOM      9  C   UNL     1      -1.617  -1.306  -8.972  0.00  0.00    +0.048 A 
ATOM     10  C   UNL     1      -0.298  -1.193  -8.568  0.00  0.00    +0.144 A 
ATOM     11  O   UNL     1       0.031  -1.290  -7.252  0.00  0.00    -0.465 OA
ATOM     12  C   UNL     1      -1.317  -0.782 -12.701  0.00  0.00    +0.044 C 
ATOM     13  C   UNL     1       1.288  -3.351  -7.160  0.00  0.00    +0.076 C 
ATOM     14  H   UNL     1       2.718  -0.547  -9.709  0.00  0.00    +0.155 HD
ENDROOT
BRANCH   1  16
ATOM     15  N   UNL     1       0.675  -1.533  -4.572  0.00  0.00    -0.279 N 
ATOM     16  C   UNL     1       1.650  -1.544  -5.502  0.00  0.00    +0.270 C 
ATOM     17  O   UNL     1       2.797  -1.317  -5.181  0.00  0.00    -0.271 OA
ATOM     18  H   UNL     1      -0.230  -1.787  -4.814  0.00  0.00    +0.155 HD
BRANCH  15  21
ATOM     19  N   UNL     1       1.114  -0.002  -1.391  0.00  0.00    -0.267 N 
ATOM     20  C   UNL     1       0.657   0.034  -2.669  0.00  0.00    +0.058 A 
ATOM     21  C   UNL     1       0.969  -1.154  -3.248  0.00  0.00    +0.077 A 
ATOM     22  C   UNL     1       1.636  -1.936  -2.294  0.00  0.00    +0.081 A 
ATOM     23  N   UNL     1       1.727  -1.245  -1.187  0.00  0.00    -0.174 NA
ATOM     24  C   UNL     1       2.162  -3.332  -2.509  0.00  0.00    +0.069 C 
ATOM     25  C   UNL     1      -0.065   1.182  -3.325  0.00  0.00    +0.067 C 
BRANCH  19  27
ATOM     26  C   UNL     1       2.211   1.994  -0.499  0.00  0.00    +0.029 C 
ATOM     27  C   UNL     1       0.994   1.073  -0.402  0.00  0.00    +0.140 C 
ENDBRANCH  19  27
ENDBRANCH  15  21
ENDBRANCH   1  16
TORSDOF 3
