REMARK  Name = ZINC41127878
REMARK  5 active torsions:
REMARK  status: ('A' for Active; 'I' for Inactive)
REMARK    1  A    between atoms: C_13  and  C_15
REMARK    2  A    between atoms: C_15  and  C_16
REMARK    3  A    between atoms: C_16  and  C_17
REMARK    4  A    between atoms: C_17  and  C_18
REMARK    5  A    between atoms: C_18  and  N_20
REMARK                            x       y       z     vdW  Elec       q    Type
REMARK                         _______ _______ _______ _____ _____    ______ ____
ROOT
ATOM      1  C   UNL     1       0.187  -6.653   1.195  0.00  0.00    +0.096 C 
ENDROOT
BRANCH   1  14
ATOM      2  C   UNL     1       2.345   1.427  -0.141  0.00  0.00    +0.005 A 
ATOM      3  C   UNL     1       1.105   2.050  -0.099  0.00  0.00    +0.018 A 
ATOM      4  C   UNL     1      -0.039   1.278  -0.069  0.00  0.00    +0.084 A 
ATOM      5  N   UNL     1       0.033  -0.040  -0.080  0.00  0.00    -0.350 N 
ATOM      6  C   UNL     1       1.196  -0.671  -0.119  0.00  0.00    +0.099 A 
ATOM      7  C   UNL     1       2.389   0.044  -0.152  0.00  0.00    +0.042 A 
ATOM      8  N   UNL     1       1.226  -2.061  -0.129  0.00  0.00    -0.314 N 
ATOM      9  C   UNL     1       2.496  -2.780  -0.300  0.00  0.00    +0.125 C 
ATOM     10  C   UNL     1       2.673  -3.748   0.877  0.00  0.00    +0.126 C 
ATOM     11  N   UNL     1       1.435  -4.523   1.038  0.00  0.00    -0.298 N 
ATOM     12  C   UNL     1       0.165  -3.803   1.209  0.00  0.00    +0.126 C 
ATOM     13  C   UNL     1      -0.011  -2.836   0.038  0.00  0.00    +0.125 C 
ATOM     14  C   UNL     1       1.464  -5.871   1.029  0.00  0.00    +0.216 C 
ATOM     15  O   UNL     1       2.518  -6.454   0.887  0.00  0.00    -0.276 OA
ATOM     16  H   UNL     1      -0.786  -0.559  -0.058  0.00  0.00    +0.166 HD
ENDBRANCH   1  14
BRANCH   1  17
ATOM     17  C   UNL     1       0.496  -8.150   1.148  0.00  0.00    +0.018 C 
BRANCH  17  18
ATOM     18  C   UNL     1      -0.801  -8.944   1.317  0.00  0.00    +0.098 C 
BRANCH  18  19
ATOM     19  C   UNL     1      -0.496 -10.420   1.270  0.00  0.00    +0.238 C 
ATOM     20  O   UNL     1       0.648 -10.800   1.117  0.00  0.00    -0.274 OA
BRANCH  19  21
ATOM     21  N   UNL     1      -1.480 -11.307   1.397  0.00  0.00    -0.159 NA
ATOM     22  C   UNL     1      -1.201 -12.603   1.467  0.00  0.00    +0.147 C 
ATOM     23  N   UNL     1       0.034 -13.151   1.554  0.00  0.00    -0.322 N 
ATOM     24  C   UNL     1       0.183 -14.606   1.501  0.00  0.00    +0.085 C 
ATOM     25  C   UNL     1       1.035 -14.954   0.296  0.00  0.00    +0.023 C 
ATOM     26  C   UNL     1       0.741 -16.336  -0.268  0.00  0.00    +0.002 C 
ATOM     27  C   UNL     1      -0.750 -16.378  -0.638  0.00  0.00    +0.001 C 
ATOM     28  C   UNL     1      -1.534 -16.390   0.671  0.00  0.00    +0.016 C 
ATOM     29  C   UNL     1      -1.168 -15.278   1.582  0.00  0.00    +0.074 C 
ATOM     30  S   UNL     1      -2.315 -13.858   1.471  0.00  0.00    -0.088 S 
ATOM     31  H   UNL     1       0.814 -12.584   1.652  0.00  0.00    +0.148 HD
ENDBRANCH  19  21
ENDBRANCH  18  19
ENDBRANCH  17  18
ENDBRANCH   1  17
TORSDOF 5
