REMARK  Name = ZINC24982679
REMARK  2 active torsions:
REMARK  status: ('A' for Active; 'I' for Inactive)
REMARK    1  A    between atoms: C_4  and  N_7
REMARK    2  A    between atoms: C_13  and  C_15
REMARK                            x       y       z     vdW  Elec       q    Type
REMARK                         _______ _______ _______ _____ _____    ______ ____
ROOT
ATOM      1  N   UNL     1      -1.738  -4.208   0.153  0.00  0.00    -0.238 N 
ATOM      2  C   UNL     1      -0.386  -4.194   0.022  0.00  0.00    +0.116 A 
ATOM      3  C   UNL     1       0.012  -2.902  -0.017  0.00  0.00    +0.065 A 
ATOM      4  C   UNL     1      -1.131  -2.095   0.103  0.00  0.00    +0.147 A 
ATOM      5  N   UNL     1      -2.179  -2.879   0.201  0.00  0.00    -0.151 NA
ATOM      6  N   UNL     1      -1.150  -0.694   0.111  0.00  0.00    -0.266 N 
ATOM      7  C   UNL     1       0.002  -0.004   0.002  0.00  0.00    +0.262 C 
ATOM      8  O   UNL     1       1.056  -0.596  -0.103  0.00  0.00    -0.271 OA
ATOM      9  H   UNL     1      -2.106  -0.158   0.206  0.00  0.00    +0.156 HD
ENDROOT
BRANCH   7  10
ATOM     10  C   UNL     1      -0.018   1.503   0.010  0.00  0.00    +0.296 C 
ATOM     11  C   UNL     1      -0.733   2.018  -1.246  0.00  0.00    +0.283 C 
ATOM     12  O   UNL     1      -0.723   3.449  -1.213  0.00  0.00    -0.484 OA
ATOM     13  C   UNL     1       0.460   4.045  -0.900  0.00  0.00    +0.162 A 
ATOM     14  C   UNL     1       0.644   5.388  -1.194  0.00  0.00    +0.049 A 
ATOM     15  C   UNL     1       1.839   6.008  -0.880  0.00  0.00    +0.004 A 
ATOM     16  C   UNL     1       2.853   5.291  -0.272  0.00  0.00    +0.004 A 
ATOM     17  C   UNL     1       2.677   3.952   0.022  0.00  0.00    +0.049 A 
ATOM     18  C   UNL     1       1.481   3.324  -0.292  0.00  0.00    +0.163 A 
ATOM     19  O   UNL     1       1.323   2.004   0.000  0.00  0.00    -0.473 OA
ENDBRANCH   7  10
BRANCH   1  23
ATOM     20  C   UNL     1      -4.147  -7.602   0.368  0.00  0.00    +0.000 A 
ATOM     21  C   UNL     1      -4.719  -6.345   0.430  0.00  0.00    +0.002 A 
ATOM     22  C   UNL     1      -3.923  -5.218   0.359  0.00  0.00    +0.028 A 
ATOM     23  C   UNL     1      -2.547  -5.349   0.225  0.00  0.00    +0.065 A 
ATOM     24  C   UNL     1      -1.976  -6.613   0.158  0.00  0.00    +0.028 A 
ATOM     25  C   UNL     1      -2.777  -7.736   0.236  0.00  0.00    +0.002 A 
ENDBRANCH   1  23
TORSDOF 2
