REMARK  Name = ZINC27672370
REMARK  8 active torsions:
REMARK  status: ('A' for Active; 'I' for Inactive)
REMARK    1  A    between atoms: C_1  and  C_2
REMARK    2  A    between atoms: C_5  and  C_23
REMARK    3  A    between atoms: C_6  and  N_8
REMARK    4  A    between atoms: C_9  and  C_11
REMARK    5  A    between atoms: C_13  and  C_22
REMARK    6  A    between atoms: C_14  and  C_21
REMARK    7  A    between atoms: C_15  and  S_17
REMARK    8  A    between atoms: S_17  and  N_20
REMARK                            x       y       z     vdW  Elec       q    Type
REMARK                         _______ _______ _______ _____ _____    ______ ____
ROOT
ATOM      1  C   UNL     1       4.832   1.500  -0.248  0.00  0.00    +0.039 A 
ATOM      2  C   UNL     1       4.854   0.103  -0.250  0.00  0.00    +0.016 A 
ATOM      3  C   UNL     1       6.054  -0.565  -0.375  0.00  0.00    -0.045 A 
ATOM      4  C   UNL     1       7.236   0.145  -0.486  0.00  0.00    -0.021 A 
ATOM      5  C   UNL     1       7.223   1.528  -0.480  0.00  0.00    +0.109 A 
ATOM      6  C   UNL     1       6.029   2.209  -0.361  0.00  0.00    +0.041 A 
ATOM      7  C   UNL     1       8.544  -0.592  -0.617  0.00  0.00    +0.046 C 
ATOM      8  C   UNL     1       6.078  -2.072  -0.383  0.00  0.00    +0.044 C 
ENDROOT
BRANCH   1  10
ATOM      9  N   UNL     1       2.396   1.534  -0.012  0.00  0.00    -0.281 N 
ATOM     10  C   UNL     1       3.550   2.222  -0.121  0.00  0.00    +0.248 C 
ATOM     11  O   UNL     1       3.535   3.438  -0.115  0.00  0.00    -0.270 OA
ATOM     12  H   UNL     1       2.415   0.436   0.057  0.00  0.00    +0.155 HD
BRANCH   9  18
ATOM     13  C   UNL     1      -0.223   5.477   1.313  0.00  0.00    +0.044 C 
ATOM     14  C   UNL     1      -0.124   4.128   0.649  0.00  0.00    -0.049 A 
ATOM     15  C   UNL     1      -1.242   3.562   0.064  0.00  0.00    +0.004 A 
ATOM     16  C   UNL     1      -1.153   2.327  -0.552  0.00  0.00    +0.005 A 
ATOM     17  C   UNL     1       0.051   1.649  -0.574  0.00  0.00    -0.029 A 
ATOM     18  C   UNL     1       1.175   2.215   0.013  0.00  0.00    +0.037 A 
ATOM     19  C   UNL     1       1.084   3.458   0.626  0.00  0.00    +0.027 A 
ATOM     20  C   UNL     1       0.145   0.301  -1.240  0.00  0.00    +0.045 C 
ENDBRANCH   9  18
ENDBRANCH   1  10
BRANCH   5  21
ATOM     21  S   UNL     1       8.734   2.423  -0.623  0.00  0.00    +0.056 S 
ATOM     22  O   UNL     1       9.436   1.861  -1.724  0.00  0.00    -0.153 OA
ATOM     23  O   UNL     1       8.398   3.802  -0.558  0.00  0.00    -0.153 OA
BRANCH  21  24
ATOM     24  N   UNL     1       9.630   2.090   0.729  0.00  0.00    -0.204 NA
ATOM     25  H   UNL     1      10.586   2.632   0.678  0.00  0.00    +0.144 HD
ATOM     26  H   UNL     1       9.824   1.009   0.784  0.00  0.00    +0.144 HD
ENDBRANCH  21  24
ENDBRANCH   5  21
TORSDOF 4
