REMARK  Name = ZINC18102268
REMARK  9 active torsions:
REMARK  status: ('A' for Active; 'I' for Inactive)
REMARK    1  A    between atoms: C_1  and  C_2
REMARK    2  A    between atoms: C_6  and  O_9
REMARK    3  A    between atoms: C_7  and  C_8
REMARK    4  A    between atoms: O_9  and  C_10
REMARK    5  A    between atoms: C_10  and  C_12
REMARK    6  A    between atoms: C_10  and  C_13
REMARK    7  A    between atoms: N_15  and  N_16
REMARK    8  A    between atoms: C_17  and  C_19
REMARK    9  A    between atoms: N_24  and  C_26
REMARK                            x       y       z     vdW  Elec       q    Type
REMARK                         _______ _______ _______ _____ _____    ______ ____
ROOT
ATOM      1  N   UNL     1      -1.896   0.696  -3.339  0.00  0.00    -0.234 N 
ATOM      2  C   UNL     1      -1.298   0.421  -2.163  0.00  0.00    +0.234 C 
ATOM      3  O   UNL     1      -0.584  -0.553  -2.059  0.00  0.00    -0.274 OA
ATOM      4  H   UNL     1      -2.466   1.476  -3.423  0.00  0.00    +0.173 HD
ENDROOT
BRANCH   2   5
ATOM      5  C   UNL     1      -1.516   1.326  -0.978  0.00  0.00    +0.103 C 
ATOM      6  C   UNL     1      -2.978   1.245  -0.482  0.00  0.00    +0.110 C 
ATOM      7  C   UNL     1      -2.865   1.341   1.024  0.00  0.00    +0.221 C 
ATOM      8  O   UNL     1      -3.783   1.595   1.775  0.00  0.00    -0.275 OA
ATOM      9  N   UNL     1      -1.597   1.103   1.410  0.00  0.00    -0.271 N 
ATOM     10  C   UNL     1      -0.736   0.819   0.256  0.00  0.00    +0.127 C 
BRANCH   9  11
ATOM     11  C   UNL     1      -1.156   1.125   2.739  0.00  0.00    +0.040 A 
ATOM     12  C   UNL     1       0.175   0.861   3.033  0.00  0.00    +0.027 A 
ATOM     13  C   UNL     1       0.612   0.887   4.344  0.00  0.00    +0.051 A 
ATOM     14  C   UNL     1      -0.279   1.165   5.370  0.00  0.00    +0.162 A 
ATOM     15  C   UNL     1      -1.613   1.427   5.079  0.00  0.00    +0.164 A 
ATOM     16  C   UNL     1      -2.050   1.405   3.763  0.00  0.00    +0.073 A 
ATOM     17  O   UNL     1      -2.499   1.711   6.071  0.00  0.00    -0.485 OA
ATOM     18  C   UNL     1      -2.110   1.360   7.403  0.00  0.00    +0.270 C 
ATOM     19  C   UNL     1      -0.665   1.830   7.621  0.00  0.00    +0.270 C 
ATOM     20  O   UNL     1       0.168   1.177   6.656  0.00  0.00    -0.485 OA
ENDBRANCH   9  11
ENDBRANCH   2   5
BRANCH   1  23
ATOM     21  C   UNL     1      -2.291   0.130  -5.618  0.00  0.00    +0.270 C 
ATOM     22  O   UNL     1      -3.004   1.105  -5.722  0.00  0.00    -0.270 OA
ATOM     23  N   UNL     1      -1.693  -0.145  -4.441  0.00  0.00    -0.231 N 
ATOM     24  H   UNL     1      -1.122  -0.925  -4.358  0.00  0.00    +0.173 HD
BRANCH  21  25
ATOM     25  C   UNL     1      -2.072  -0.775  -6.803  0.00  0.00    +0.257 C 
ATOM     26  C   UNL     1      -2.668  -2.153  -6.509  0.00  0.00    +0.062 C 
BRANCH  25  27
ATOM     27  O   UNL     1      -2.711  -0.216  -7.953  0.00  0.00    -0.480 OA
BRANCH  27  33
ATOM     28  C   UNL     1      -2.740   0.302 -12.806  0.00  0.00    +0.044 C 
ATOM     29  C   UNL     1      -2.206  -0.343 -11.554  0.00  0.00    -0.044 A 
ATOM     30  C   UNL     1      -1.212  -1.301 -11.640  0.00  0.00    +0.004 A 
ATOM     31  C   UNL     1      -0.720  -1.895 -10.493  0.00  0.00    +0.004 A 
ATOM     32  C   UNL     1      -1.216  -1.529  -9.257  0.00  0.00    +0.046 A 
ATOM     33  C   UNL     1      -2.217  -0.573  -9.168  0.00  0.00    +0.125 A 
ATOM     34  C   UNL     1      -2.709   0.022 -10.320  0.00  0.00    -0.006 A 
ATOM     35  C   UNL     1      -3.792   1.066 -10.227  0.00  0.00    +0.048 C 
ENDBRANCH  27  33
ENDBRANCH  25  27
ENDBRANCH  21  25
ENDBRANCH   1  23
TORSDOF 6
