REMARK  Name = ZINC19941624
REMARK  13 active torsions:
REMARK  status: ('A' for Active; 'I' for Inactive)
REMARK    1  A    between atoms: C_1  and  C_2
REMARK    2  A    between atoms: C_2  and  C_3
REMARK    3  A    between atoms: C_3  and  C_4
REMARK    4  A    between atoms: C_3  and  C_5
REMARK    5  A    between atoms: C_3  and  N_6
REMARK    6  A    between atoms: C_7  and  C_11
REMARK    7  A    between atoms: C_11  and  C_13
REMARK    8  A    between atoms: C_11  and  N_27
REMARK    9  A    between atoms: C_17  and  C_26
REMARK   10  A    between atoms: C_19  and  C_25
REMARK   11  A    between atoms: N_30  and  C_33
REMARK   12  A    between atoms: C_37  and  C_40
REMARK   13  A    between atoms: C_38  and  C_39
REMARK                            x       y       z     vdW  Elec       q    Type
REMARK                         _______ _______ _______ _____ _____    ______ ____
ROOT
ATOM      1  C   UNL     1       1.083   3.321   0.168  0.00  0.00    +0.162 C 
ENDROOT
BRANCH   1   2
ATOM      2  C   UNL     1       1.077   1.825   0.353  0.00  0.00    +0.042 A 
ATOM      3  C   UNL     1      -0.100   1.167   0.496  0.00  0.00    +0.021 A 
ATOM      4  C   UNL     1      -0.072  -0.286   0.673  0.00  0.00    -0.001 A 
ATOM      5  C   UNL     1      -1.253  -1.019   0.825  0.00  0.00    +0.013 A 
ATOM      6  C   UNL     1      -1.193  -2.374   0.988  0.00  0.00    -0.050 A 
ATOM      7  C   UNL     1       0.031  -3.030   1.005  0.00  0.00    +0.008 A 
ATOM      8  C   UNL     1       1.207  -2.328   0.858  0.00  0.00    -0.026 A 
ATOM      9  C   UNL     1       1.171  -0.947   0.690  0.00  0.00    +0.052 A 
ATOM     10  N   UNL     1       2.332  -0.220   0.540  0.00  0.00    -0.322 N 
ATOM     11  H   UNL     1       3.306  -0.730   0.551  0.00  0.00    +0.169 HD
ATOM     12  C   UNL     1       2.296   1.115   0.377  0.00  0.00    +0.254 A 
ATOM     13  O   UNL     1       3.343   1.726   0.247  0.00  0.00    -0.268 OA
ATOM     14  C   UNL     1       2.528  -3.052   0.878  0.00  0.00    +0.046 C 
ATOM     15  C   UNL     1      -2.466  -3.164   1.151  0.00  0.00    +0.044 C 
ENDBRANCH   1   2
BRANCH   1  16
ATOM     16  N   UNL     1       1.821   3.660  -1.057  0.00  0.00    -0.286 NA
ATOM     17  C   UNL     1       1.925   5.116  -1.223  0.00  0.00    +0.104 C 
ATOM     18  C   UNL     1       2.766   5.426  -2.463  0.00  0.00    +0.120 C 
ATOM     19  N   UNL     1       2.142   4.808  -3.642  0.00  0.00    -0.327 N 
ATOM     20  C   UNL     1       2.037   3.352  -3.476  0.00  0.00    +0.120 C 
ATOM     21  C   UNL     1       1.197   3.042  -2.235  0.00  0.00    +0.104 C 
BRANCH  19  22
ATOM     22  C   UNL     1       2.843   5.130  -4.806  0.00  0.00    +0.033 A 
ATOM     23  C   UNL     1       4.154   4.703  -4.970  0.00  0.00    +0.023 A 
ATOM     24  C   UNL     1       4.844   5.022  -6.122  0.00  0.00    +0.002 A 
ATOM     25  C   UNL     1       4.231   5.768  -7.113  0.00  0.00    +0.004 A 
ATOM     26  C   UNL     1       2.926   6.195  -6.954  0.00  0.00    -0.046 A 
ATOM     27  C   UNL     1       2.228   5.873  -5.806  0.00  0.00    -0.027 A 
ATOM     28  C   UNL     1       0.803   6.334  -5.635  0.00  0.00    +0.046 C 
ATOM     29  C   UNL     1       2.262   7.006  -8.036  0.00  0.00    +0.044 C 
ENDBRANCH  19  22
ENDBRANCH   1  16
BRANCH   1  31
ATOM     30  N   UNL     1       1.158   4.726   2.295  0.00  0.00    -0.222 N 
ATOM     31  C   UNL     1       1.751   3.971   1.352  0.00  0.00    +0.174 A 
ATOM     32  N   UNL     1       3.024   3.915   1.661  0.00  0.00    -0.111 NA
ATOM     33  N   UNL     1       3.202   4.596   2.740  0.00  0.00    -0.023 NA
ATOM     34  N   UNL     1       2.076   5.085   3.128  0.00  0.00    -0.043 NA
BRANCH  30  35
ATOM     35  C   UNL     1      -0.264   5.073   2.365  0.00  0.00    +0.062 C 
ATOM     36  C   UNL     1      -0.649   5.895   1.134  0.00  0.00    +0.036 C 
ATOM     37  C   UNL     1      -1.099   3.792   2.405  0.00  0.00    +0.036 C 
BRANCH  35  39
ATOM     38  C   UNL     1      -2.012   6.255   3.702  0.00  0.00    +0.006 C 
ATOM     39  C   UNL     1      -0.527   5.893   3.629  0.00  0.00    +0.026 C 
ENDBRANCH  35  39
ENDBRANCH  30  35
ENDBRANCH   1  31
TORSDOF 6
