REMARK  Name = ZINC36737605
REMARK  3 active torsions:
REMARK  status: ('A' for Active; 'I' for Inactive)
REMARK    1  A    between atoms: C_4  and  N_8
REMARK    2  A    between atoms: C_6  and  N_7
REMARK    3  A    between atoms: C_9  and  C_11
REMARK                            x       y       z     vdW  Elec       q    Type
REMARK                         _______ _______ _______ _____ _____    ______ ____
ROOT
ATOM      1  N   UNL     1       3.627  -0.645  -0.038  0.00  0.00    -0.280 N 
ATOM      2  C   UNL     1       3.654  -1.989   0.055  0.00  0.00    +0.255 C 
ATOM      3  O   UNL     1       2.613  -2.619   0.063  0.00  0.00    -0.269 OA
ATOM      4  H   UNL     1       4.455  -0.148  -0.125  0.00  0.00    +0.155 HD
ENDROOT
BRANCH   2   5
ATOM      5  C   UNL     1       4.936  -2.692   0.148  0.00  0.00    +0.075 A 
ATOM      6  C   UNL     1       5.183  -4.047   0.245  0.00  0.00    +0.024 A 
ATOM      7  C   UNL     1       6.515  -4.444   0.320  0.00  0.00    -0.036 A 
ATOM      8  C   UNL     1       7.445  -3.453   0.293  0.00  0.00    -0.006 A 
ATOM      9  S   UNL     1       6.588  -2.022   0.159  0.00  0.00    -0.088 S 
ATOM     10  C   UNL     1       8.937  -3.590   0.366  0.00  0.00    +0.043 C 
ATOM     11  C   UNL     1       9.354  -4.944  -0.219  0.00  0.00    +0.005 C 
ATOM     12  C   UNL     1       9.349  -5.980   0.901  0.00  0.00    +0.001 C 
ATOM     13  C   UNL     1       7.952  -6.116   1.500  0.00  0.00    +0.005 C 
ATOM     14  C   UNL     1       6.890  -5.918   0.425  0.00  0.00    +0.036 C 
ENDBRANCH   2   5
BRANCH   1  18
ATOM     15  C   UNL     1      -0.016   1.385   0.038  0.00  0.00    +0.024 A 
ATOM     16  C   UNL     1       1.082   1.958  -0.575  0.00  0.00    +0.023 A 
ATOM     17  C   UNL     1       2.290   1.288  -0.601  0.00  0.00    +0.062 A 
ATOM     18  C   UNL     1       2.404   0.034  -0.011  0.00  0.00    +0.054 A 
ATOM     19  C   UNL     1       1.303  -0.543   0.606  0.00  0.00    +0.047 A 
ATOM     20  C   UNL     1       0.091   0.133   0.630  0.00  0.00    +0.026 A 
ATOM     21 CL   UNL     1       3.667   2.011  -1.373  0.00  0.00    -0.082 Cl
BRANCH  20  22
ATOM     22  N   UNL     1      -1.019  -0.445   1.250  0.00  0.00    -0.358 N 
ATOM     23  H   UNL     1      -1.866   0.028   1.267  0.00  0.00    +0.142 HD
ATOM     24  H   UNL     1      -0.944  -1.319   1.663  0.00  0.00    +0.142 HD
ENDBRANCH  20  22
ENDBRANCH   1  18
TORSDOF 3
