REMARK  Name = ZINC32127869
REMARK  5 active torsions:
REMARK  status: ('A' for Active; 'I' for Inactive)
REMARK    1  A    between atoms: C_1  and  C_2
REMARK    2  A    between atoms: C_2  and  N_3
REMARK    3  A    between atoms: N_8  and  C_9
REMARK    4  A    between atoms: C_9  and  N_11
REMARK    5  A    between atoms: C_12  and  C_14
REMARK                            x       y       z     vdW  Elec       q    Type
REMARK                         _______ _______ _______ _____ _____    ______ ____
ROOT
ATOM      1  N   UNL     1      -3.732   3.123  -0.046  0.00  0.00    -0.263 N 
ATOM      2  C   UNL     1      -2.585   3.824   0.048  0.00  0.00    +0.250 C 
ATOM      3  O   UNL     1      -2.619   5.035   0.147  0.00  0.00    -0.270 OA
ATOM      4  H   UNL     1      -3.701   2.027  -0.136  0.00  0.00    +0.157 HD
ENDROOT
BRANCH   2   5
ATOM      5  C   UNL     1      -1.289   3.122   0.032  0.00  0.00    +0.045 A 
ATOM      6  C   UNL     1      -1.234   1.734   0.040  0.00  0.00    +0.014 A 
ATOM      7  C   UNL     1      -0.012   1.076   0.030  0.00  0.00    +0.001 A 
ATOM      8  C   UNL     1       1.168   1.754   0.001  0.00  0.00    +0.010 A 
ATOM      9  C   UNL     1       1.188   3.158  -0.015  0.00  0.00    +0.001 A 
ATOM     10  C   UNL     1      -0.035   3.872   0.000  0.00  0.00    -0.004 A 
ATOM     11  C   UNL     1      -0.020   5.271  -0.016  0.00  0.00    +0.009 A 
ATOM     12  C   UNL     1       1.172   5.933  -0.046  0.00  0.00    +0.002 A 
ATOM     13  C   UNL     1       2.377   5.235  -0.060  0.00  0.00    +0.020 A 
ATOM     14  C   UNL     1       2.399   3.872  -0.045  0.00  0.00    +0.049 A 
ATOM     15 CL   UNL     1       3.914   3.024  -0.064  0.00  0.00    -0.083 Cl
ENDBRANCH   2   5
BRANCH   1  16
ATOM     16  C   UNL     1      -4.917   3.764  -0.031  0.00  0.00    +0.143 C 
ATOM     17  S   UNL     1      -4.966   5.470   0.108  0.00  0.00    -0.018 S 
BRANCH  16  23
ATOM     18  N   UNL     1      -9.410   4.224  -0.136  0.00  0.00    -0.162 N 
ATOM     19  N   UNL     1      -8.483   3.170  -0.194  0.00  0.00    -0.114 NA
ATOM     20  C   UNL     1      -7.294   3.729  -0.110  0.00  0.00    +0.261 A 
ATOM     21  N   UNL     1      -7.477   5.045  -0.001  0.00  0.00    -0.092 NA
ATOM     22  N   UNL     1      -8.734   5.316  -0.025  0.00  0.00    -0.044 NA
ATOM     23  N   UNL     1      -6.065   3.063  -0.126  0.00  0.00    -0.263 N 
ATOM     24  H   UNL     1      -6.034   1.967  -0.215  0.00  0.00    +0.157 HD
BRANCH  18  26
ATOM     25  C   UNL     1     -11.423   3.945   1.224  0.00  0.00    +0.031 C 
ATOM     26  C   UNL     1     -10.869   4.105  -0.193  0.00  0.00    +0.165 C 
ENDBRANCH  18  26
ENDBRANCH  16  23
ENDBRANCH   1  16
TORSDOF 4
