REMARK  Name = ZINC02621475
REMARK  9 active torsions:
REMARK  status: ('A' for Active; 'I' for Inactive)
REMARK    1  A    between atoms: C_1  and  C_2
REMARK    2  A    between atoms: C_3  and  C_26
REMARK    3  A    between atoms: C_5  and  S_9
REMARK    4  A    between atoms: C_7  and  C_8
REMARK    5  A    between atoms: S_9  and  C_10
REMARK    6  A    between atoms: C_10  and  C_12
REMARK    7  A    between atoms: C_10  and  C_13
REMARK    8  A    between atoms: N_15  and  C_16
REMARK    9  A    between atoms: C_18  and  N_23
REMARK                            x       y       z     vdW  Elec       q    Type
REMARK                         _______ _______ _______ _____ _____    ______ ____
ROOT
ATOM      1  C   UNL     1      -5.383   3.690   5.342  0.00  0.00    +0.230 C 
ATOM      2  O   UNL     1      -5.031   3.684   6.503  0.00  0.00    -0.274 OA
ATOM      3  N   UNL     1      -6.576   4.216   5.002  0.00  0.00    -0.283 N 
ATOM      4  H   UNL     1      -6.830   4.280   4.068  0.00  0.00    +0.155 HD
ENDROOT
BRANCH   3   5
ATOM      5  C   UNL     1      -7.449   4.672   5.997  0.00  0.00    +0.054 A 
ATOM      6  C   UNL     1      -6.945   5.259   7.149  0.00  0.00    +0.057 A 
ATOM      7  C   UNL     1      -7.809   5.708   8.129  0.00  0.00    +0.128 A 
ATOM      8  C   UNL     1      -9.175   5.574   7.964  0.00  0.00    +0.034 A 
ATOM      9  C   UNL     1      -9.681   4.990   6.817  0.00  0.00    +0.024 A 
ATOM     10  C   UNL     1      -8.823   4.543   5.830  0.00  0.00    +0.062 A 
ATOM     11 CL   UNL     1      -9.459   3.817   4.388  0.00  0.00    -0.082 Cl
BRANCH   7  12
ATOM     12  N   UNL     1      -7.271   6.334   9.358  0.00  0.00    +0.056 N 
ATOM     13  O   UNL     1      -6.068   6.454   9.505  0.00  0.00    -0.126 OA
ATOM     14  O   UNL     1      -8.033   6.731  10.223  0.00  0.00    -0.126 OA
ENDBRANCH   7  12
ENDBRANCH   3   5
BRANCH   1  15
ATOM     15  C   UNL     1      -4.487   3.107   4.280  0.00  0.00    +0.137 C 
ATOM     16  C   UNL     1      -4.965   1.698   3.926  0.00  0.00    +0.029 C 
BRANCH  15  17
ATOM     17  S   UNL     1      -2.788   3.029   4.901  0.00  0.00    -0.074 S 
BRANCH  17  22
ATOM     18  C   UNL     1       0.015   1.150   0.005  0.00  0.00    +0.047 C 
ATOM     19  C   UNL     1      -0.695   1.626   1.246  0.00  0.00    -0.008 A 
ATOM     20  C   UNL     1      -2.065   1.840   1.240  0.00  0.00    +0.046 A 
ATOM     21  N   UNL     1      -2.658   2.253   2.347  0.00  0.00    -0.227 NA
ATOM     22  C   UNL     1      -1.957   2.472   3.450  0.00  0.00    +0.189 A 
ATOM     23  N   UNL     1      -0.646   2.282   3.488  0.00  0.00    -0.227 NA
ATOM     24  C   UNL     1       0.008   1.864   2.417  0.00  0.00    +0.046 A 
ATOM     25  C   UNL     1       1.498   1.649   2.469  0.00  0.00    +0.066 C 
ATOM     26  C   UNL     1      -2.868   1.600  -0.012  0.00  0.00    +0.066 C 
ENDBRANCH  17  22
ENDBRANCH  15  17
ENDBRANCH   1  15
TORSDOF 5
