REMARK  Name = ZINC20345146
REMARK  4 active torsions:
REMARK  status: ('A' for Active; 'I' for Inactive)
REMARK    1  A    between atoms: C_6  and  C_7
REMARK    2  A    between atoms: C_8  and  C_9
REMARK    3  A    between atoms: N_11  and  C_12
REMARK    4  A    between atoms: C_17  and  N_18
REMARK                            x       y       z     vdW  Elec       q    Type
REMARK                         _______ _______ _______ _____ _____    ______ ____
ROOT
ATOM      1  C   UNL     1       1.205   1.545  -0.019  0.00  0.00    +0.241 C 
ATOM      2  O   UNL     1       1.301   2.755  -0.115  0.00  0.00    -0.270 OA
ATOM      3  N   UNL     1      -0.011   0.966   0.007  0.00  0.00    -0.280 N 
ATOM      4  H   UNL     1      -0.098  -0.131   0.024  0.00  0.00    +0.155 HD
ENDROOT
BRANCH   3   5
ATOM      5  C   UNL     1      -1.165   1.760   0.013  0.00  0.00    +0.055 A 
ATOM      6  C   UNL     1      -1.189   2.957  -0.687  0.00  0.00    +0.026 A 
ATOM      7  C   UNL     1      -2.329   3.739  -0.680  0.00  0.00    +0.022 A 
ATOM      8  C   UNL     1      -3.449   3.331   0.023  0.00  0.00    +0.043 A 
ATOM      9  C   UNL     1      -3.434   2.138   0.723  0.00  0.00    +0.044 A 
ATOM     10  C   UNL     1      -2.296   1.346   0.718  0.00  0.00    +0.047 A 
ATOM     11 CL   UNL     1      -4.877   4.319   0.026  0.00  0.00    -0.083 Cl
BRANCH  10  12
ATOM     12  N   UNL     1      -2.280   0.136   1.421  0.00  0.00    -0.356 N 
ATOM     13  H   UNL     1      -3.172  -0.189   1.976  0.00  0.00    +0.142 HD
ATOM     14  H   UNL     1      -1.375  -0.489   1.418  0.00  0.00    +0.142 HD
ENDBRANCH  10  12
ENDBRANCH   3   5
BRANCH   1  16
ATOM     15  C   UNL     1       3.628   1.300   0.042  0.00  0.00    +0.013 C 
ATOM     16  C   UNL     1       2.411   0.720   0.068  0.00  0.00    +0.068 C 
BRANCH  15  22
ATOM     17  C   UNL     1       4.734  -0.919   0.245  0.00  0.00    +0.009 A 
ATOM     18  C   UNL     1       5.874  -1.690   0.322  0.00  0.00    +0.020 A 
ATOM     19  C   UNL     1       7.123  -1.091   0.294  0.00  0.00    +0.041 A 
ATOM     20  C   UNL     1       7.236   0.285   0.185  0.00  0.00    +0.020 A 
ATOM     21  C   UNL     1       6.105   1.069   0.102  0.00  0.00    +0.009 A 
ATOM     22  C   UNL     1       4.841   0.471   0.129  0.00  0.00    -0.025 A 
ATOM     23 CL   UNL     1       8.553  -2.070   0.399  0.00  0.00    -0.084 Cl
ENDBRANCH  15  22
ENDBRANCH   1  16
TORSDOF 4
