REMARK  Name = ZINC35486172
REMARK  12 active torsions:
REMARK  status: ('A' for Active; 'I' for Inactive)
REMARK    1  A    between atoms: C_1  and  C_2
REMARK    2  A    between atoms: C_2  and  N_3
REMARK    3  A    between atoms: N_3  and  C_4
REMARK    4  A    between atoms: N_3  and  C_6
REMARK    5  A    between atoms: C_4  and  C_5
REMARK    6  A    between atoms: C_6  and  C_7
REMARK    7  A    between atoms: C_7  and  N_8
REMARK    8  A    between atoms: C_9  and  C_25
REMARK    9  A    between atoms: C_16  and  C_24
REMARK   10  A    between atoms: C_27  and  O_33
REMARK   11  A    between atoms: C_28  and  O_32
REMARK   12  A    between atoms: O_33  and  C_34
REMARK                            x       y       z     vdW  Elec       q    Type
REMARK                         _______ _______ _______ _____ _____    ______ ____
ROOT
ATOM      1  N   UNL     1      -1.382  -3.580  -1.830  0.00  0.00    -0.285 N 
ATOM      2  C   UNL     1      -1.458  -4.247  -3.140  0.00  0.00    +0.145 C 
ATOM      3  C   UNL     1      -1.703  -5.691  -2.848  0.00  0.00    +0.072 A 
ATOM      4  C   UNL     1      -1.878  -6.841  -3.742  0.00  0.00    +0.199 A 
ATOM      5  O   UNL     1      -1.670  -6.792  -4.941  0.00  0.00    -0.287 OA
ATOM      6  C   UNL     1      -2.333  -8.071  -3.045  0.00  0.00    +0.065 A 
ATOM      7  C   UNL     1      -2.735  -9.189  -3.775  0.00  0.00    +0.018 A 
ATOM      8  C   UNL     1      -3.156 -10.312  -3.119  0.00  0.00    -0.050 A 
ATOM      9  C   UNL     1      -3.185 -10.341  -1.732  0.00  0.00    +0.007 A 
ATOM     10  C   UNL     1      -2.790  -9.247  -0.995  0.00  0.00    +0.047 A 
ATOM     11  C   UNL     1      -2.353  -8.090  -1.641  0.00  0.00    +0.139 A 
ATOM     12  O   UNL     1      -1.960  -7.031  -0.897  0.00  0.00    -0.450 OA
ATOM     13  C   UNL     1      -1.757  -5.839  -1.492  0.00  0.00    +0.199 A 
ATOM     14  C   UNL     1      -1.553  -4.516  -0.874  0.00  0.00    +0.283 C 
ATOM     15  O   UNL     1      -1.542  -4.301   0.321  0.00  0.00    -0.267 OA
ATOM     16  C   UNL     1      -3.592 -11.522  -3.905  0.00  0.00    +0.044 C 
ENDROOT
BRANCH   2  17
ATOM     17  C   UNL     1      -2.595  -3.678  -3.948  0.00  0.00    -0.018 A 
ATOM     18  C   UNL     1      -2.438  -3.465  -5.305  0.00  0.00    +0.055 A 
ATOM     19  C   UNL     1      -3.483  -2.942  -6.050  0.00  0.00    +0.163 A 
ATOM     20  C   UNL     1      -4.689  -2.632  -5.429  0.00  0.00    +0.173 A 
ATOM     21  C   UNL     1      -4.841  -2.849  -4.069  0.00  0.00    +0.063 A 
ATOM     22  C   UNL     1      -3.795  -3.376  -3.332  0.00  0.00    +0.025 A 
ATOM     23 BR   UNL     1      -6.478  -2.430  -3.221  0.00  0.00    -0.046 Br
BRANCH  20  24
ATOM     24  O   UNL     1      -5.718  -2.118  -6.156  0.00  0.00    -0.503 OA
ATOM     25  H   UNL     1      -6.308  -2.787  -6.530  0.00  0.00    +0.292 HD
ENDBRANCH  20  24
BRANCH  19  26
ATOM     26  O   UNL     1      -3.329  -2.731  -7.385  0.00  0.00    -0.491 OA
ATOM     27  C   UNL     1      -2.063  -3.071  -7.954  0.00  0.00    +0.277 C 
ENDBRANCH  19  26
ENDBRANCH   2  17
BRANCH   1  28
ATOM     28  C   UNL     1      -1.155  -2.151  -1.603  0.00  0.00    +0.090 C 
BRANCH  28  29
ATOM     29  C   UNL     1       0.348  -1.884  -1.496  0.00  0.00    -0.060 C 
BRANCH  29  30
ATOM     30  N   UNL     1       0.576  -0.451  -1.269  0.00  0.00    +0.380 N 
ATOM     31  H   UNL     1       0.124   0.081  -1.998  0.00  0.00    -0.082 HD
BRANCH  30  33
ATOM     32  C   UNL     1       0.128   1.449   0.210  0.00  0.00    -0.017 C 
ATOM     33  C   UNL     1       0.019  -0.067   0.035  0.00  0.00    -0.082 C 
ENDBRANCH  30  33
BRANCH  30  34
ATOM     34  C   UNL     1       2.019  -0.176  -1.285  0.00  0.00    -0.082 C 
ATOM     35  C   UNL     1       2.573  -0.440  -2.687  0.00  0.00    -0.017 C 
ENDBRANCH  30  34
ENDBRANCH  29  30
ENDBRANCH  28  29
ENDBRANCH   1  28
TORSDOF 8
