REMARK  Name = ZINC18179894
REMARK  6 active torsions:
REMARK  status: ('A' for Active; 'I' for Inactive)
REMARK    1  A    between atoms: C_1  and  C_2
REMARK    2  A    between atoms: C_3  and  C_28
REMARK    3  A    between atoms: C_11  and  N_21
REMARK    4  A    between atoms: N_12  and  C_13
REMARK    5  A    between atoms: C_13  and  C_15
REMARK    6  A    between atoms: N_21  and  C_22
REMARK                            x       y       z     vdW  Elec       q    Type
REMARK                         _______ _______ _______ _____ _____    ______ ____
ROOT
ATOM      1  C   UNL     1      -0.304   1.475   0.271  0.00  0.00    +0.051 C 
ATOM      2  C   UNL     1      -0.240  -0.029   0.213  0.00  0.00    +0.035 A 
ATOM      3  C   UNL     1      -1.372  -0.766   0.215  0.00  0.00    +0.024 A 
ATOM      4  N   UNL     1      -1.284  -2.126   0.162  0.00  0.00    -0.329 N 
ATOM      5  H   UNL     1      -2.092  -2.662   0.163  0.00  0.00    +0.168 HD
ATOM      6  C   UNL     1      -0.071  -2.735   0.107  0.00  0.00    +0.212 A 
ATOM      7  N   UNL     1       1.044  -2.035   0.105  0.00  0.00    -0.175 NA
ATOM      8  C   UNL     1       1.010  -0.696   0.150  0.00  0.00    +0.278 A 
ATOM      9  O   UNL     1       2.050  -0.054   0.142  0.00  0.00    -0.265 OA
ATOM     10  N   UNL     1      -0.006  -4.108   0.053  0.00  0.00    -0.296 N 
ATOM     11  C   UNL     1       1.210  -4.735  -0.002  0.00  0.00    +0.223 C 
ATOM     12  N   UNL     1       1.278  -6.056   0.051  0.00  0.00    -0.141 NA
ATOM     13  C   UNL     1      -2.719  -0.092   0.276  0.00  0.00    +0.064 C 
ATOM     14  H   UNL     1      -0.823  -4.633   0.055  0.00  0.00    +0.172 HD
ENDROOT
BRANCH  12  15
ATOM     15  C   UNL     1       0.154  -6.785   0.022  0.00  0.00    +0.270 C 
ATOM     16  O   UNL     1      -0.660  -6.617  -0.869  0.00  0.00    -0.268 OA
BRANCH  15  17
ATOM     17  C   UNL     1      -0.099  -7.796   1.074  0.00  0.00    +0.039 A 
ATOM     18  C   UNL     1       0.827  -7.988   2.099  0.00  0.00    +0.013 A 
ATOM     19  C   UNL     1       0.586  -8.931   3.076  0.00  0.00    +0.001 A 
ATOM     20  C   UNL     1      -0.573  -9.687   3.041  0.00  0.00    +0.000 A 
ATOM     21  C   UNL     1      -1.495  -9.502   2.027  0.00  0.00    +0.001 A 
ATOM     22  C   UNL     1      -1.268  -8.558   1.048  0.00  0.00    +0.013 A 
ENDBRANCH  15  17
ENDBRANCH  12  15
BRANCH  11  23
ATOM     23  N   UNL     1       2.353  -3.998  -0.112  0.00  0.00    -0.215 NA
BRANCH  23  24
ATOM     24  C   UNL     1       3.579  -4.636  -0.327  0.00  0.00    +0.067 A 
ATOM     25  C   UNL     1       3.635  -5.797  -1.087  0.00  0.00    +0.028 A 
ATOM     26  C   UNL     1       4.848  -6.425  -1.298  0.00  0.00    +0.002 A 
ATOM     27  C   UNL     1       6.004  -5.898  -0.753  0.00  0.00    +0.000 A 
ATOM     28  C   UNL     1       5.952  -4.742   0.004  0.00  0.00    +0.002 A 
ATOM     29  C   UNL     1       4.744  -4.107   0.214  0.00  0.00    +0.028 A 
ENDBRANCH  23  24
ENDBRANCH  11  23
TORSDOF 4
