REMARK  Name = ZINC67077910
REMARK  8 active torsions:
REMARK  status: ('A' for Active; 'I' for Inactive)
REMARK    1  A    between atoms: C_1  and  C_2
REMARK    2  A    between atoms: C_4  and  C_13
REMARK    3  A    between atoms: C_7  and  N_8
REMARK    4  A    between atoms: N_15  and  C_16
REMARK    5  A    between atoms: C_16  and  C_18
REMARK    6  A    between atoms: C_16  and  C_19
REMARK    7  A    between atoms: C_21  and  C_25
REMARK    8  A    between atoms: C_23  and  C_24
REMARK                            x       y       z     vdW  Elec       q    Type
REMARK                         _______ _______ _______ _____ _____    ______ ____
ROOT
ATOM      1  C   UNL     1      -0.187  -2.818  -2.474  0.00  0.00    +0.245 C 
ATOM      2  O   UNL     1      -0.424  -2.216  -3.503  0.00  0.00    -0.270 OA
ATOM      3  N   UNL     1      -0.023  -4.155  -2.497  0.00  0.00    -0.305 N 
ATOM      4  H   UNL     1       0.166  -4.635  -1.676  0.00  0.00    +0.150 HD
ENDROOT
BRANCH   1   8
ATOM      5  C   UNL     1      -0.331   1.481   0.051  0.00  0.00    +0.046 C 
ATOM      6  C   UNL     1      -0.148  -0.015   0.021  0.00  0.00    -0.024 A 
ATOM      7  C   UNL     1      -0.249  -0.697  -1.171  0.00  0.00    +0.018 A 
ATOM      8  C   UNL     1      -0.079  -2.083  -1.197  0.00  0.00    +0.037 A 
ATOM      9  C   UNL     1       0.193  -2.772  -0.013  0.00  0.00    +0.015 A 
ATOM     10  C   UNL     1       0.292  -2.084   1.175  0.00  0.00    +0.029 A 
ATOM     11  C   UNL     1       0.128  -0.703   1.197  0.00  0.00    +0.072 A 
BRANCH  11  12
ATOM     12  N   UNL     1       0.236  -0.006   2.406  0.00  0.00    -0.200 N 
ATOM     13  C   UNL     1      -0.334  -0.323   3.590  0.00  0.00    +0.250 A 
ATOM     14  N   UNL     1       0.026   0.593   4.450  0.00  0.00    -0.116 NA
ATOM     15  N   UNL     1       0.784   1.467   3.892  0.00  0.00    -0.023 NA
ATOM     16  N   UNL     1       0.965   1.171   2.650  0.00  0.00    -0.039 NA
ENDBRANCH  11  12
ENDBRANCH   1   8
BRANCH   3  17
ATOM     17  C   UNL     1      -0.130  -4.884  -3.764  0.00  0.00    +0.104 C 
ATOM     18  C   UNL     1       1.218  -4.853  -4.486  0.00  0.00    +0.033 C 
BRANCH  17  19
ATOM     19  C   UNL     1      -0.520  -6.314  -3.489  0.00  0.00    +0.013 A 
ATOM     20  C   UNL     1      -0.384  -7.003  -2.262  0.00  0.00    +0.050 A 
ATOM     21  C   UNL     1      -0.854  -8.248  -2.460  0.00  0.00    +0.103 A 
ATOM     22  O   UNL     1      -1.265  -8.348  -3.735  0.00  0.00    -0.465 OA
ATOM     23  C   UNL     1      -1.070  -7.177  -4.362  0.00  0.00    +0.107 A 
ATOM     24  C   UNL     1      -1.407  -6.880  -5.800  0.00  0.00    +0.086 C 
ATOM     25  C   UNL     1      -0.909  -9.344  -1.427  0.00  0.00    +0.086 C 
ENDBRANCH  17  19
ENDBRANCH   3  17
TORSDOF 4
