REMARK  Name = ZINC55643233
REMARK  6 active torsions:
REMARK  status: ('A' for Active; 'I' for Inactive)
REMARK    1  A    between atoms: C_5  and  C_7
REMARK    2  A    between atoms: C_7  and  N_8
REMARK    3  A    between atoms: C_11  and  N_14
REMARK    4  A    between atoms: N_14  and  S_15
REMARK    5  A    between atoms: S_15  and  C_18
REMARK    6  A    between atoms: C_21  and  N_24
REMARK                            x       y       z     vdW  Elec       q    Type
REMARK                         _______ _______ _______ _____ _____    ______ ____
ROOT
ATOM      1  N   UNL     1       1.488  -2.680   1.337  0.00  0.00    +0.383 N 
ATOM      2  C   UNL     1       0.374  -2.304   2.215  0.00  0.00    -0.077 C 
ATOM      3  C   UNL     1       0.677  -2.745   3.648  0.00  0.00    +0.002 C 
ATOM      4  C   UNL     1       0.863  -4.265   3.680  0.00  0.00    +0.073 C 
ATOM      5  C   UNL     1       1.978  -4.654   2.705  0.00  0.00    +0.002 C 
ATOM      6  C   UNL     1       1.627  -4.141   1.306  0.00  0.00    -0.077 C 
ATOM      7  H   UNL     1       2.342  -2.270   1.685  0.00  0.00    -0.081 HD
ENDROOT
BRANCH   4   8
ATOM      8  N   UNL     1       1.228  -4.686   5.035  0.00  0.00    -0.187 NA
ATOM      9  H   UNL     1       1.788  -4.116   5.585  0.00  0.00    +0.148 HD
BRANCH   8  10
ATOM     10  S   UNL     1       0.686  -6.134   5.627  0.00  0.00    +0.059 S 
ATOM     11  O   UNL     1       1.225  -6.265   6.935  0.00  0.00    -0.153 OA
ATOM     12  O   UNL     1      -0.711  -6.181   5.370  0.00  0.00    -0.153 OA
BRANCH  10  13
ATOM     13  C   UNL     1       1.421  -7.404   4.650  0.00  0.00    +0.105 A 
ATOM     14  C   UNL     1       0.781  -7.857   3.511  0.00  0.00    +0.031 A 
ATOM     15  C   UNL     1       1.357  -8.853   2.745  0.00  0.00    +0.034 A 
ATOM     16  C   UNL     1       2.573  -9.395   3.117  0.00  0.00    +0.126 A 
ATOM     17  C   UNL     1       3.213  -8.941   4.255  0.00  0.00    +0.034 A 
ATOM     18  C   UNL     1       2.639  -7.942   5.019  0.00  0.00    +0.031 A 
BRANCH  16  19
ATOM     19  N   UNL     1       3.189 -10.462   2.297  0.00  0.00    +0.056 N 
ATOM     20  O   UNL     1       2.629 -10.859   1.302  0.00  0.00    -0.126 OA
ATOM     21  O   UNL     1       4.253 -10.937   2.623  0.00  0.00    -0.126 OA
ENDBRANCH  16  19
ENDBRANCH  10  13
ENDBRANCH   8  10
ENDBRANCH   4   8
BRANCH   1  22
ATOM     22  C   UNL     1       1.228  -2.186  -0.022  0.00  0.00    -0.040 C 
BRANCH  22  27
ATOM     23  C   UNL     1      -0.017   1.378   0.010  0.00  0.00    +0.000 A 
ATOM     24  C   UNL     1       1.171   2.087   0.002  0.00  0.00    +0.003 A 
ATOM     25  C   UNL     1       2.377   1.414  -0.013  0.00  0.00    +0.038 A 
ATOM     26  C   UNL     1       2.397   0.029  -0.021  0.00  0.00    +0.125 A 
ATOM     27  C   UNL     1       1.208  -0.679  -0.013  0.00  0.00    -0.029 A 
ATOM     28  C   UNL     1       0.002  -0.004   0.002  0.00  0.00    +0.004 A 
ATOM     29  F   UNL     1       3.577  -0.630  -0.036  0.00  0.00    -0.205 F 
ENDBRANCH  22  27
ENDBRANCH   1  22
TORSDOF 6
