REMARK  Name = ZINC08860853
REMARK  9 active torsions:
REMARK  status: ('A' for Active; 'I' for Inactive)
REMARK    1  A    between atoms: C_1  and  C_2
REMARK    2  A    between atoms: C_3  and  C_34
REMARK    3  A    between atoms: N_4  and  C_27
REMARK    4  A    between atoms: C_5  and  N_9
REMARK    5  A    between atoms: C_6  and  C_7
REMARK    6  A    between atoms: C_10  and  C_12
REMARK    7  A    between atoms: C_12  and  N_62
REMARK    8  A    between atoms: C_16  and  C_18
REMARK    9  A    between atoms: C_27  and  C_28
REMARK                            x       y       z     vdW  Elec       q    Type
REMARK                         _______ _______ _______ _____ _____    ______ ____
ROOT
ATOM      1  N   UNL     1      -3.713   2.199   4.139  0.00  0.00    -0.272 N 
ATOM      2  C   UNL     1      -3.287   1.150   3.408  0.00  0.00    +0.202 C 
ATOM      3  O   UNL     1      -2.794   0.188   3.958  0.00  0.00    -0.278 OA
ATOM      4  H   UNL     1      -4.129   2.959   3.702  0.00  0.00    +0.156 HD
ENDROOT
BRANCH   1   9
ATOM      5  C   UNL     1      -1.843   1.625   8.799  0.00  0.00    +0.047 C 
ATOM      6  C   UNL     1      -2.744   1.946   7.634  0.00  0.00    -0.011 A 
ATOM      7  C   UNL     1      -3.983   2.459   7.697  0.00  0.00    +0.022 A 
ATOM      8  N   UNL     1      -4.476   2.608   6.428  0.00  0.00    -0.329 N 
ATOM      9  C   UNL     1      -3.558   2.193   5.518  0.00  0.00    +0.123 A 
ATOM     10  C   UNL     1      -2.438   1.755   6.211  0.00  0.00    +0.095 A 
ATOM     11  C   UNL     1      -4.717   2.814   8.964  0.00  0.00    +0.064 C 
BRANCH  10  12
ATOM     12  C   UNL     1      -1.230   1.227   5.652  0.00  0.00    +0.103 C 
ATOM     13  N   UNL     1      -0.272   0.808   5.209  0.00  0.00    -0.191 NA
ENDBRANCH  10  12
BRANCH   8  14
ATOM     14  C   UNL     1      -5.801   3.139   6.100  0.00  0.00    +0.154 C 
BRANCH  14  15
ATOM     15  C   UNL     1      -6.798   1.984   5.979  0.00  0.00    +0.138 C 
ATOM     16  C   UNL     1      -8.173   2.524   5.530  0.00  0.00    +0.035 C 
ATOM     17  C   UNL     1      -9.155   1.667   6.376  0.00  0.00    +0.031 C 
ATOM     18  C   UNL     1      -8.339   1.488   7.681  0.00  0.00    +0.160 C 
ATOM     19  O   UNL     1      -6.973   1.359   7.256  0.00  0.00    -0.375 OA
ENDBRANCH  14  15
ENDBRANCH   8  14
ENDBRANCH   1   9
BRANCH   2  20
ATOM     20  C   UNL     1      -3.424   1.173   1.908  0.00  0.00    +0.020 C 
BRANCH  20  25
ATOM     21  C   UNL     1      -1.315  -0.035   1.712  0.00  0.00    -0.077 C 
ATOM     22  C   UNL     1      -0.697  -0.973   0.644  0.00  0.00    -0.020 C 
ATOM     23  C   UNL     1      -1.480  -0.608  -0.638  0.00  0.00    -0.010 C 
ATOM     24  C   UNL     1      -2.790   0.030  -0.141  0.00  0.00    -0.011 C 
ATOM     25  N   UNL     1      -2.733  -0.019   1.325  0.00  0.00    +0.391 N 
ATOM     26  H   UNL     1      -3.193  -0.873   1.662  0.00  0.00    -0.080 HD
BRANCH  24  27
ATOM     27  C   UNL     1      -3.970  -0.760  -0.647  0.00  0.00    +0.066 A 
ATOM     28  N   UNL     1      -4.814  -0.440  -1.587  0.00  0.00    -0.246 NA
ATOM     29  C   UNL     1      -5.835  -1.244  -1.948  0.00  0.00    +0.078 A 
ATOM     30  C   UNL     1      -6.823  -1.040  -2.937  0.00  0.00    +0.029 A 
ATOM     31  C   UNL     1      -7.785  -1.975  -3.162  0.00  0.00    +0.002 A 
ATOM     32  C   UNL     1      -7.835  -3.157  -2.436  0.00  0.00    +0.001 A 
ATOM     33  C   UNL     1      -6.887  -3.394  -1.459  0.00  0.00    +0.017 A 
ATOM     34  C   UNL     1      -5.911  -2.456  -1.224  0.00  0.00    +0.039 A 
ATOM     35  S   UNL     1      -4.526  -2.319  -0.123  0.00  0.00    -0.074 S 
ENDBRANCH  24  27
ENDBRANCH  20  25
ENDBRANCH   2  20
TORSDOF 7
