REMARK  Name = ZINC32856088
REMARK  8 active torsions:
REMARK  status: ('A' for Active; 'I' for Inactive)
REMARK    1  A    between atoms: C_1  and  N_2
REMARK    2  A    between atoms: N_2  and  C_3
REMARK    3  A    between atoms: N_2  and  C_15
REMARK    4  A    between atoms: C_3  and  C_4
REMARK    5  A    between atoms: C_15  and  C_16
REMARK    6  A    between atoms: N_18  and  C_19
REMARK    7  A    between atoms: N_23  and  C_24
REMARK    8  A    between atoms: C_24  and  C_25
REMARK                            x       y       z     vdW  Elec       q    Type
REMARK                         _______ _______ _______ _____ _____    ______ ____
ROOT
ATOM      1  C   UNL     1       0.757   9.964  -1.695  0.00  0.00    +0.202 C 
ATOM      2  O   UNL     1       1.284   9.239  -2.513  0.00  0.00    -0.278 OA
ATOM      3  N   UNL     1       0.958  11.296  -1.747  0.00  0.00    -0.272 N 
ATOM      4  H   UNL     1       0.480  11.953  -1.006  0.00  0.00    +0.156 HD
ENDROOT
BRANCH   3   5
ATOM      5  C   UNL     1       1.772  11.841  -2.739  0.00  0.00    +0.123 A 
ATOM      6  C   UNL     1       2.423  11.149  -3.715  0.00  0.00    +0.065 A 
ATOM      7  C   UNL     1       3.124  12.071  -4.497  0.00  0.00    +0.136 A 
ATOM      8  N   UNL     1       2.907  13.268  -4.016  0.00  0.00    -0.178 NA
ATOM      9  N   UNL     1       2.055  13.152  -2.911  0.00  0.00    -0.246 N 
BRANCH   9  10
ATOM     10  C   UNL     1       1.559  14.256  -2.085  0.00  0.00    +0.180 C 
BRANCH  10  11
ATOM     11  C   UNL     1       2.518  14.503  -0.949  0.00  0.00    -0.025 A 
ATOM     12  C   UNL     1       3.562  15.396  -1.107  0.00  0.00    +0.005 A 
ATOM     13  C   UNL     1       4.441  15.623  -0.065  0.00  0.00    +0.002 A 
ATOM     14  C   UNL     1       4.277  14.958   1.136  0.00  0.00    +0.020 A 
ATOM     15  C   UNL     1       3.233  14.064   1.295  0.00  0.00    +0.041 A 
ATOM     16  C   UNL     1       2.350  13.841   0.253  0.00  0.00    +0.025 A 
ATOM     17 CL   UNL     1       3.027  13.229   2.802  0.00  0.00    -0.084 Cl
ENDBRANCH  10  11
ENDBRANCH   9  10
ENDBRANCH   3   5
BRANCH   1  18
ATOM     18  C   UNL     1      -0.123   9.376  -0.623  0.00  0.00    +0.019 C 
BRANCH  18  20
ATOM     19  C   UNL     1       1.132   7.307  -0.531  0.00  0.00    -0.095 C 
ATOM     20  N   UNL     1      -0.181   7.917  -0.783  0.00  0.00    +0.386 N 
ATOM     21  H   UNL     1      -0.459   7.702  -1.825  0.00  0.00    -0.081 HD
BRANCH  20  22
ATOM     22  C   UNL     1      -1.208   7.332   0.089  0.00  0.00    -0.030 C 
BRANCH  22  23
ATOM     23  C   UNL     1      -2.593   7.598  -0.505  0.00  0.00    +0.194 C 
ATOM     24  C   UNL     1      -3.672   6.998   0.407  0.00  0.00    +0.271 C 
ATOM     25  O   UNL     1      -4.951   7.253  -0.184  0.00  0.00    -0.485 OA
ATOM     26  C   UNL     1      -5.071   6.997  -1.516  0.00  0.00    +0.162 A 
ATOM     27  C   UNL     1      -6.335   6.875  -2.074  0.00  0.00    +0.049 A 
ATOM     28  C   UNL     1      -6.473   6.613  -3.424  0.00  0.00    +0.004 A 
ATOM     29  C   UNL     1      -5.352   6.482  -4.223  0.00  0.00    +0.004 A 
ATOM     30  C   UNL     1      -4.090   6.606  -3.674  0.00  0.00    +0.049 A 
ATOM     31  C   UNL     1      -3.944   6.863  -2.318  0.00  0.00    +0.162 A 
ATOM     32  O   UNL     1      -2.695   6.975  -1.790  0.00  0.00    -0.484 OA
ENDBRANCH  22  23
ENDBRANCH  20  22
ENDBRANCH  18  20
ENDBRANCH   1  18
TORSDOF 7
