REMARK  Name = ZINC12381362
REMARK  6 active torsions:
REMARK  status: ('A' for Active; 'I' for Inactive)
REMARK    1  A    between atoms: C_1  and  C_2
REMARK    2  A    between atoms: C_2  and  C_3
REMARK    3  A    between atoms: C_2  and  C_4
REMARK    4  A    between atoms: C_2  and  C_5
REMARK    5  A    between atoms: C_9  and  C_14
REMARK    6  A    between atoms: C_14  and  O_24
REMARK                            x       y       z     vdW  Elec       q    Type
REMARK                         _______ _______ _______ _____ _____    ______ ____
ROOT
ATOM      1  C   UNL     1      -1.092  -1.047   0.007  0.00  0.00    +0.178 C 
ATOM      2  C   UNL     1       0.002  -0.004   0.002  0.00  0.00    +0.015 A 
ATOM      3  C   UNL     1      -0.017   1.373   0.010  0.00  0.00    +0.009 A 
ATOM      4  C   UNL     1       1.173   2.079   0.002  0.00  0.00    +0.000 A 
ATOM      5  C   UNL     1       2.377   1.398  -0.014  0.00  0.00    +0.002 A 
ATOM      6  C   UNL     1       2.399   0.019  -0.021  0.00  0.00    +0.024 A 
ATOM      7  C   UNL     1       1.205  -0.699  -0.013  0.00  0.00    +0.040 A 
ATOM      8  N   UNL     1       0.967  -2.074  -0.018  0.00  0.00    -0.282 N 
ATOM      9  C   UNL     1      -0.345  -2.364  -0.007  0.00  0.00    +0.254 C 
ATOM     10  O   UNL     1      -0.838  -3.472  -0.007  0.00  0.00    -0.272 OA
ATOM     11  H   UNL     1       1.669  -2.744  -0.028  0.00  0.00    +0.155 HD
ENDROOT
BRANCH   1  15
ATOM     12  C   UNL     1      -2.717  -2.260   3.817  0.00  0.00    +0.002 C 
ATOM     13  C   UNL     1      -3.697  -2.036   2.664  0.00  0.00    +0.005 C 
ATOM     14  C   UNL     1      -2.947  -2.081   1.331  0.00  0.00    +0.015 C 
ATOM     15  C   UNL     1      -1.942  -0.926   1.274  0.00  0.00    +0.100 C 
ATOM     16  C   UNL     1      -1.050  -1.004   2.493  0.00  0.00    +0.140 C 
ATOM     17  O   UNL     1       0.152  -0.980   2.384  0.00  0.00    -0.297 OA
ATOM     18  C   UNL     1      -1.703  -1.112   3.854  0.00  0.00    +0.078 C 
BRANCH  12  20
ATOM     19  C   UNL     1      -4.224  -0.978   5.344  0.00  0.00    +0.011 C 
ATOM     20  C   UNL     1      -3.487  -2.303   5.139  0.00  0.00    -0.034 C 
ATOM     21  C   UNL     1      -4.499  -3.449   5.103  0.00  0.00    +0.011 C 
ATOM     22  C   UNL     1      -2.506  -2.525   6.293  0.00  0.00    +0.011 C 
ENDBRANCH  12  20
ENDBRANCH   1  15
BRANCH   1  23
ATOM     23  O   UNL     1      -1.908  -0.922  -1.159  0.00  0.00    -0.374 OA
ATOM     24  H   UNL     1      -1.425  -1.021  -1.990  0.00  0.00    +0.211 HD
ENDBRANCH   1  23
TORSDOF 3
