REMARK  Name = ZINC02710065
REMARK  15 active torsions:
REMARK  status: ('A' for Active; 'I' for Inactive)
REMARK    1  A    between atoms: C_1  and  C_2
REMARK    2  A    between atoms: N_8  and  C_9
REMARK    3  A    between atoms: C_9  and  C_10
REMARK    4  A    between atoms: C_10  and  N_60
REMARK    5  A    between atoms: C_11  and  N_60
REMARK    6  A    between atoms: C_12  and  N_60
REMARK    7  A    between atoms: C_13  and  C_21
REMARK    8  A    between atoms: C_15  and  C_19
REMARK    9  A    between atoms: C_16  and  N_18
REMARK   10  A    between atoms: C_23  and  O_31
REMARK   11  A    between atoms: C_24  and  O_29
REMARK   12  A    between atoms: C_26  and  O_27
REMARK   13  A    between atoms: O_27  and  C_28
REMARK   14  A    between atoms: O_29  and  C_30
REMARK   15  A    between atoms: O_31  and  C_32
REMARK                            x       y       z     vdW  Elec       q    Type
REMARK                         _______ _______ _______ _____ _____    ______ ____
ROOT
ATOM      1  C   UNL     1      -2.050  -0.516   1.127  0.00  0.00    +0.064 C 
ATOM      2  C   UNL     1      -1.681   0.799   1.765  0.00  0.00    +0.022 A 
ATOM      3  C   UNL     1      -2.332   1.206   2.876  0.00  0.00    +0.068 A 
ATOM      4  C   UNL     1      -1.990   2.436   3.475  0.00  0.00    +0.141 A 
ATOM      5  C   UNL     1      -0.992   3.201   2.910  0.00  0.00    +0.072 A 
ATOM      6  C   UNL     1      -0.341   2.735   1.760  0.00  0.00    +0.259 A 
ATOM      7  O   UNL     1       0.548   3.400   1.251  0.00  0.00    -0.267 OA
ATOM      8  N   UNL     1      -0.698   1.558   1.213  0.00  0.00    -0.314 N 
ATOM      9  C   UNL     1      -0.597   4.519   3.516  0.00  0.00    +0.107 C 
ATOM     10  C   UNL     1      -1.659   4.990   4.471  0.00  0.00    +0.098 C 
ATOM     11  C   UNL     1      -2.604   4.142   4.943  0.00  0.00    +0.199 C 
ATOM     12  O   UNL     1      -2.639   2.847   4.586  0.00  0.00    -0.441 OA
ENDROOT
BRANCH   9  13
ATOM     13  C   UNL     1       0.704   4.354   4.259  0.00  0.00    +0.011 A 
ATOM     14  C   UNL     1       0.785   3.472   5.321  0.00  0.00    +0.057 A 
ATOM     15  C   UNL     1       1.981   3.315   6.002  0.00  0.00    +0.162 A 
ATOM     16  C   UNL     1       3.098   4.053   5.624  0.00  0.00    +0.165 A 
ATOM     17  C   UNL     1       3.014   4.939   4.563  0.00  0.00    +0.095 A 
ATOM     18  C   UNL     1       1.816   5.090   3.880  0.00  0.00    +0.128 A 
BRANCH  18  19
ATOM     19  O   UNL     1       1.733   5.960   2.839  0.00  0.00    -0.495 OA
ATOM     20  C   UNL     1       2.917   6.685   2.503  0.00  0.00    +0.277 C 
ENDBRANCH  18  19
BRANCH  16  21
ATOM     21  O   UNL     1       4.272   3.903   6.295  0.00  0.00    -0.491 OA
ATOM     22  C   UNL     1       5.378   4.692   5.852  0.00  0.00    +0.277 C 
ENDBRANCH  16  21
BRANCH  15  23
ATOM     23  O   UNL     1       2.061   2.443   7.044  0.00  0.00    -0.491 OA
ATOM     24  C   UNL     1       0.875   1.719   7.377  0.00  0.00    +0.277 C 
ENDBRANCH  15  23
ENDBRANCH   9  13
BRANCH  11  25
ATOM     25  N   UNL     1      -3.552   4.620   5.812  0.00  0.00    -0.328 N 
ATOM     26  H   UNL     1      -4.236   4.025   6.159  0.00  0.00    +0.145 HD
ATOM     27  H   UNL     1      -3.540   5.552   6.080  0.00  0.00    +0.145 HD
ENDBRANCH  11  25
BRANCH  10  28
ATOM     28  C   UNL     1      -1.673   6.360   4.887  0.00  0.00    +0.101 C 
ATOM     29  N   UNL     1      -1.684   7.447   5.217  0.00  0.00    -0.191 NA
ENDBRANCH  10  28
BRANCH   8  30
ATOM     30  C   UNL     1      -0.013   1.086   0.008  0.00  0.00    +0.106 C 
BRANCH  30  31
ATOM     31  C   UNL     1      -0.753   1.593  -1.232  0.00  0.00    -0.058 C 
BRANCH  31  34
ATOM     32  C   UNL     1      -0.150  -0.343  -2.555  0.00  0.00    -0.097 C 
ATOM     33  C   UNL     1      -0.600   1.774  -3.641  0.00  0.00    -0.097 C 
ATOM     34  N   UNL     1      -0.037   1.126  -2.438  0.00  0.00    +0.377 N 
ATOM     35  H   UNL     1       0.955   1.379  -2.356  0.00  0.00    -0.083 HD
ENDBRANCH  31  34
ENDBRANCH  30  31
ENDBRANCH   8  30
TORSDOF 9
