REMARK  Name = ZINC39480551
REMARK  7 active torsions:
REMARK  status: ('A' for Active; 'I' for Inactive)
REMARK    1  A    between atoms: C_1  and  N_2
REMARK    2  A    between atoms: C_6  and  S_16
REMARK    3  A    between atoms: C_8  and  C_9
REMARK    4  A    between atoms: C_9  and  C_10
REMARK    5  A    between atoms: S_16  and  O_19
REMARK    6  A    between atoms: O_19  and  C_20
REMARK    7  A    between atoms: C_27  and  O_36
REMARK                            x       y       z     vdW  Elec       q    Type
REMARK                         _______ _______ _______ _____ _____    ______ ____
ROOT
ATOM      1  C   UNL     1      -0.382   1.504  -0.065  0.00  0.00    +0.137 C 
ATOM      2  N   UNL     1      -0.248   0.046  -0.126  0.00  0.00    -0.286 N 
ATOM      3  C   UNL     1      -1.444  -0.630  -0.128  0.00  0.00    +0.042 A 
ATOM      4  C   UNL     1      -2.499  -0.023   0.528  0.00  0.00    -0.015 A 
ATOM      5  C   UNL     1      -3.800  -0.205   0.243  0.00  0.00    +0.036 A 
ATOM      6  C   UNL     1      -4.096  -1.315  -0.557  0.00  0.00    +0.129 A 
ATOM      7  C   UNL     1      -3.067  -2.129  -1.001  0.00  0.00    +0.036 A 
ATOM      8  C   UNL     1      -1.735  -1.805  -0.801  0.00  0.00    -0.020 A 
ATOM      9  C   UNL     1      -2.027   0.431   1.947  0.00  0.00    +0.132 C 
ATOM     10  C   UNL     1      -0.592  -0.080   1.870  0.00  0.00    +0.192 C 
ATOM     11  N   UNL     1       0.487   0.627   1.787  0.00  0.00    -0.211 NA
ATOM     12  C   UNL     1       1.529   0.005   1.167  0.00  0.00    +0.144 A 
ATOM     13  C   UNL     1       1.045  -0.398  -0.175  0.00  0.00    +0.156 A 
ATOM     14  N   UNL     1       1.844  -0.998  -0.971  0.00  0.00    -0.218 NA
ATOM     15  C   UNL     1       3.094  -1.263  -0.604  0.00  0.00    +0.225 A 
ATOM     16  N   UNL     1       3.569  -0.928   0.580  0.00  0.00    -0.222 NA
ATOM     17  C   UNL     1       2.807  -0.296   1.492  0.00  0.00    +0.160 A 
ATOM     18 CL   UNL     1       3.449   0.135   3.047  0.00  0.00    -0.060 Cl
ENDROOT
BRANCH   6  19
ATOM     19  S   UNL     1      -5.765  -1.674  -0.997  0.00  0.00    +0.151 S 
ATOM     20  O   UNL     1      -5.818  -3.063  -1.290  0.00  0.00    -0.131 OA
ATOM     21  O   UNL     1      -6.584  -1.073  -0.003  0.00  0.00    -0.131 OA
BRANCH  19  22
ATOM     22  O   UNL     1      -6.054  -0.943  -2.300  0.00  0.00    -0.342 OA
BRANCH  22  23
ATOM     23  C   UNL     1      -5.490  -1.519  -3.394  0.00  0.00    +0.157 A 
ATOM     24  C   UNL     1      -4.215  -1.150  -3.794  0.00  0.00    +0.048 A 
ATOM     25  C   UNL     1      -3.644  -1.738  -4.906  0.00  0.00    +0.004 A 
ATOM     26  C   UNL     1      -4.343  -2.693  -5.621  0.00  0.00    +0.000 A 
ATOM     27  C   UNL     1      -5.615  -3.062  -5.224  0.00  0.00    +0.004 A 
ATOM     28  C   UNL     1      -6.188  -2.482  -4.109  0.00  0.00    +0.048 A 
ENDBRANCH  22  23
ENDBRANCH  19  22
ENDBRANCH   6  19
BRANCH  10  29
ATOM     29  O   UNL     1      -0.431  -1.419   1.891  0.00  0.00    -0.495 OA
ATOM     30  H   UNL     1       0.493  -1.704   1.923  0.00  0.00    +0.293 HD
ENDBRANCH  10  29
BRANCH   8  31
ATOM     31  C   UNL     1      -0.635  -2.705  -1.301  0.00  0.00    +0.072 C 
BRANCH  31  32
ATOM     32  C   UNL     1      -1.236  -3.962  -1.874  0.00  0.00    -0.043 A 
ATOM     33  C   UNL     1      -1.550  -5.020  -1.041  0.00  0.00    +0.004 A 
ATOM     34  C   UNL     1      -2.102  -6.174  -1.567  0.00  0.00    +0.000 A 
ATOM     35  C   UNL     1      -2.339  -6.269  -2.926  0.00  0.00    +0.000 A 
ATOM     36  C   UNL     1      -2.026  -5.211  -3.758  0.00  0.00    +0.000 A 
ATOM     37  C   UNL     1      -1.478  -4.056  -3.232  0.00  0.00    +0.004 A 
ENDBRANCH  31  32
ENDBRANCH   8  31
TORSDOF 6
