REMARK  Name = ZINC38599391
REMARK  9 active torsions:
REMARK  status: ('A' for Active; 'I' for Inactive)
REMARK    1  A    between atoms: C_1  and  C_2
REMARK    2  A    between atoms: C_2  and  O_3
REMARK    3  A    between atoms: O_3  and  C_4
REMARK    4  A    between atoms: N_9  and  C_12
REMARK    5  A    between atoms: C_12  and  C_13
REMARK    6  A    between atoms: N_15  and  C_16
REMARK    7  A    between atoms: C_24  and  C_26
REMARK    8  A    between atoms: C_26  and  O_28
REMARK    9  A    between atoms: O_28  and  C_29
REMARK                            x       y       z     vdW  Elec       q    Type
REMARK                         _______ _______ _______ _____ _____    ______ ____
ROOT
ATOM      1  C   UNL     1       1.948  -5.034  -6.792  0.00  0.00    +0.231 C 
ATOM      2  O   UNL     1       2.696  -5.484  -5.950  0.00  0.00    -0.274 OA
ATOM      3  N   UNL     1       1.667  -5.751  -7.897  0.00  0.00    -0.285 N 
ATOM      4  H   UNL     1       1.030  -5.413  -8.546  0.00  0.00    +0.155 HD
ENDROOT
BRANCH   3   5
ATOM      5  C   UNL     1       2.277  -6.952  -8.104  0.00  0.00    +0.053 C 
ATOM      6  C   UNL     1       2.309  -7.682  -9.280  0.00  0.00    +0.019 A 
ATOM      7  C   UNL     1       1.761  -7.448 -10.564  0.00  0.00    +0.026 A 
ATOM      8  C   UNL     1       1.953  -8.357 -11.552  0.00  0.00    +0.019 A 
ATOM      9  C   UNL     1       2.684  -9.530 -11.337  0.00  0.00    +0.017 A 
ATOM     10  C   UNL     1       3.237  -9.818 -10.134  0.00  0.00    +0.027 A 
ATOM     11  C   UNL     1       3.080  -8.916  -9.050  0.00  0.00    +0.045 A 
ATOM     12  N   UNL     1       3.510  -8.965  -7.806  0.00  0.00    -0.367 N 
ATOM     13  C   UNL     1       3.067  -7.759  -7.098  0.00  0.00    +0.234 C 
ATOM     14 BR   UNL     1       1.214  -8.031 -13.262  0.00  0.00    -0.050 Br
ATOM     15  H   UNL     1       4.039  -9.681  -7.421  0.00  0.00    +0.161 HD
BRANCH  13  16
ATOM     16  C   UNL     1       2.189  -8.139  -5.933  0.00  0.00    +0.335 C 
ATOM     17  O   UNL     1       1.737  -9.257  -5.856  0.00  0.00    -0.248 OA
BRANCH  16  18
ATOM     18  O   UNL     1       1.909  -7.234  -4.981  0.00  0.00    -0.466 OA
ATOM     19  C   UNL     1       1.070  -7.663  -3.906  0.00  0.00    +0.280 C 
ENDBRANCH  16  18
ENDBRANCH  13  16
ENDBRANCH   3   5
BRANCH   1  20
ATOM     20  C   UNL     1       1.333  -3.671  -6.601  0.00  0.00    +0.180 C 
BRANCH  20  26
ATOM     21  C   UNL     1       1.189  -1.364  -1.693  0.00  0.00    +0.403 C 
ATOM     22  O   UNL     1       0.909  -2.067  -0.742  0.00  0.00    -0.226 OA
ATOM     23  N   UNL     1       1.707  -1.914  -2.808  0.00  0.00    -0.265 N 
ATOM     24  C   UNL     1       2.059  -1.081  -3.968  0.00  0.00    +0.126 C 
ATOM     25  C   UNL     1       1.409  -1.686  -5.217  0.00  0.00    +0.104 C 
ATOM     26  N   UNL     1       1.793  -3.099  -5.329  0.00  0.00    -0.291 NA
ATOM     27  C   UNL     1       1.291  -3.880  -4.190  0.00  0.00    +0.104 C 
ATOM     28  C   UNL     1       1.942  -3.364  -2.896  0.00  0.00    +0.126 C 
BRANCH  21  29
ATOM     29  O   UNL     1       0.982  -0.035  -1.631  0.00  0.00    -0.451 OA
BRANCH  29  31
ATOM     30  C   UNL     1       0.268   1.997  -0.536  0.00  0.00    +0.048 C 
ATOM     31  C   UNL     1       0.430   0.481  -0.418  0.00  0.00    +0.230 C 
ENDBRANCH  29  31
ENDBRANCH  21  29
ENDBRANCH  20  26
ENDBRANCH   1  20
TORSDOF 7
