REMARK  Name = ZINC20834426
REMARK  13 active torsions:
REMARK  status: ('A' for Active; 'I' for Inactive)
REMARK    1  A    between atoms: C_1  and  N_2
REMARK    2  A    between atoms: N_2  and  C_3
REMARK    3  A    between atoms: N_2  and  C_4
REMARK    4  A    between atoms: C_4  and  C_6
REMARK    5  A    between atoms: C_4  and  C_29
REMARK    6  A    between atoms: C_6  and  N_7
REMARK    7  A    between atoms: N_7  and  C_8
REMARK    8  A    between atoms: C_11  and  N_26
REMARK    9  A    between atoms: C_13  and  S_14
REMARK   10  A    between atoms: S_14  and  N_17
REMARK   11  A    between atoms: N_17  and  C_18
REMARK   12  A    between atoms: C_23  and  O_24
REMARK   13  A    between atoms: O_24  and  C_25
REMARK                            x       y       z     vdW  Elec       q    Type
REMARK                         _______ _______ _______ _____ _____    ______ ____
ROOT
ATOM      1  C   UNL     1       2.291   0.870   0.036  0.00  0.00    +0.054 A 
ATOM      2  C   UNL     1       1.216   0.034  -0.241  0.00  0.00    +0.027 A 
ATOM      3  C   UNL     1      -0.065   0.548  -0.279  0.00  0.00    +0.034 A 
ATOM      4  C   UNL     1      -0.280   1.892  -0.031  0.00  0.00    +0.128 A 
ATOM      5  C   UNL     1       0.788   2.726   0.245  0.00  0.00    +0.063 A 
ATOM      6  C   UNL     1       2.072   2.219   0.279  0.00  0.00    +0.131 A 
ENDROOT
BRANCH   6   7
ATOM      7  S   UNL     1       3.431   3.284   0.631  0.00  0.00    +0.074 S 
ATOM      8  O   UNL     1       4.392   3.067  -0.393  0.00  0.00    -0.150 OA
ATOM      9  O   UNL     1       2.883   4.566   0.902  0.00  0.00    -0.150 OA
BRANCH   7  10
ATOM     10  N   UNL     1       4.116   2.753   2.042  0.00  0.00    -0.213 N 
ATOM     11  H   UNL     1       5.118   2.300   2.031  0.00  0.00    +0.174 HD
BRANCH  10  12
ATOM     12  C   UNL     1       3.419   2.882   3.249  0.00  0.00    +0.090 A 
ATOM     13  C   UNL     1       2.034   2.820   3.263  0.00  0.00    +0.028 A 
ATOM     14  C   UNL     1       1.348   2.942   4.457  0.00  0.00    +0.002 A 
ATOM     15  C   UNL     1       2.040   3.135   5.638  0.00  0.00    +0.004 A 
ATOM     16  C   UNL     1       3.421   3.203   5.632  0.00  0.00    +0.047 A 
ATOM     17  C   UNL     1       4.116   3.077   4.440  0.00  0.00    +0.142 A 
BRANCH  17  18
ATOM     18  O   UNL     1       5.474   3.144   4.433  0.00  0.00    -0.493 OA
ATOM     19  C   UNL     1       6.121   3.345   5.691  0.00  0.00    +0.277 C 
ENDBRANCH  17  18
ENDBRANCH  10  12
ENDBRANCH   7  10
ENDBRANCH   6   7
BRANCH   4  20
ATOM     20  N   UNL     1      -1.655   2.438  -0.067  0.00  0.00    +0.056 N 
ATOM     21  O   UNL     1      -1.845   3.622   0.147  0.00  0.00    -0.126 OA
ATOM     22  O   UNL     1      -2.596   1.704  -0.309  0.00  0.00    -0.126 OA
ENDBRANCH   4  20
BRANCH   1  23
ATOM     23  N   UNL     1       3.588   0.354   0.069  0.00  0.00    -0.344 N 
ATOM     24  H   UNL     1       4.446   1.030   0.205  0.00  0.00    +0.146 HD
BRANCH  23  25
ATOM     25  C   UNL     1       3.808  -1.087  -0.077  0.00  0.00    +0.091 C 
BRANCH  25  26
ATOM     26  C   UNL     1       5.293  -1.399   0.115  0.00  0.00    -0.021 C 
BRANCH  26  27
ATOM     27  C   UNL     1       6.092  -0.726  -0.972  0.00  0.00    -0.059 A 
ATOM     28  C   UNL     1       6.174  -1.301  -2.226  0.00  0.00    +0.002 A 
ATOM     29  C   UNL     1       6.904  -0.682  -3.224  0.00  0.00    +0.000 A 
ATOM     30  C   UNL     1       7.558   0.508  -2.965  0.00  0.00    +0.000 A 
ATOM     31  C   UNL     1       7.480   1.080  -1.709  0.00  0.00    +0.000 A 
ATOM     32  C   UNL     1       6.747   0.463  -0.712  0.00  0.00    +0.002 A 
ENDBRANCH  26  27
BRANCH  26  34
ATOM     33  C   UNL     1       6.929  -3.184   0.150  0.00  0.00    -0.096 C 
ATOM     34  N   UNL     1       5.501  -2.852   0.047  0.00  0.00    +0.382 N 
ATOM     35  C   UNL     1       4.724  -3.544   1.083  0.00  0.00    -0.096 C 
ATOM     36  H   UNL     1       5.143  -3.199  -0.933  0.00  0.00    -0.082 HD
ENDBRANCH  26  34
ENDBRANCH  25  26
ENDBRANCH  23  25
ENDBRANCH   1  23
TORSDOF 10
