REMARK  Name = ZINC09167134
REMARK  10 active torsions:
REMARK  status: ('A' for Active; 'I' for Inactive)
REMARK    1  A    between atoms: C_1  and  C_2
REMARK    2  A    between atoms: C_2  and  C_3
REMARK    3  A    between atoms: N_5  and  C_6
REMARK    4  A    between atoms: C_9  and  S_12
REMARK    5  A    between atoms: S_12  and  N_15
REMARK    6  A    between atoms: N_15  and  C_16
REMARK    7  A    between atoms: C_24  and  C_31
REMARK    8  A    between atoms: C_24  and  C_32
REMARK    9  A    between atoms: N_27  and  C_28
REMARK   10  A    between atoms: C_28  and  C_29
REMARK                            x       y       z     vdW  Elec       q    Type
REMARK                         _______ _______ _______ _____ _____    ______ ____
ROOT
ATOM      1  N   UNL     1      -5.749   2.778   1.724  0.00  0.00    -0.216 N 
ATOM      2  H   UNL     1      -6.399   2.170   2.108  0.00  0.00    +0.174 HD
ENDROOT
BRANCH   1   3
ATOM      3  C   UNL     1      -5.160   3.767   2.519  0.00  0.00    +0.052 A 
ATOM      4  C   UNL     1      -5.042   5.065   2.037  0.00  0.00    +0.026 A 
ATOM      5  C   UNL     1      -4.462   6.045   2.821  0.00  0.00    +0.029 A 
ATOM      6  C   UNL     1      -4.000   5.732   4.089  0.00  0.00    +0.079 A 
ATOM      7  C   UNL     1      -4.115   4.431   4.575  0.00  0.00    +0.144 A 
ATOM      8  C   UNL     1      -4.701   3.452   3.791  0.00  0.00    +0.072 A 
ATOM      9  O   UNL     1      -3.650   4.131   5.816  0.00  0.00    -0.489 OA
ATOM     10  C   UNL     1      -2.237   4.022   5.974  0.00  0.00    +0.244 C 
ATOM     11  C   UNL     1      -1.528   5.161   5.245  0.00  0.00    +0.076 C 
ATOM     12  C   UNL     1      -2.237   6.464   5.509  0.00  0.00    +0.229 C 
ATOM     13  O   UNL     1      -1.753   7.280   6.264  0.00  0.00    -0.275 OA
ATOM     14  N   UNL     1      -3.417   6.719   4.899  0.00  0.00    -0.264 N 
ATOM     15  C   UNL     1      -0.084   5.260   5.741  0.00  0.00    +0.024 C 
ATOM     16  C   UNL     1      -1.530   4.880   3.741  0.00  0.00    +0.024 C 
BRANCH  14  17
ATOM     17  C   UNL     1      -4.080   8.013   5.082  0.00  0.00    +0.140 C 
BRANCH  17  18
ATOM     18  C   UNL     1      -5.001   7.941   6.272  0.00  0.00    -0.015 C 
ATOM     19  C   UNL     1      -4.880   8.808   7.248  0.00  0.00    +0.005 C 
ENDBRANCH  17  18
ENDBRANCH  14  17
ENDBRANCH   1   3
BRANCH   1  20
ATOM     20  S   UNL     1      -5.334   2.645   0.126  0.00  0.00    +0.072 S 
ATOM     21  O   UNL     1      -5.422   3.951  -0.426  0.00  0.00    -0.150 OA
ATOM     22  O   UNL     1      -6.071   1.547  -0.394  0.00  0.00    -0.150 OA
BRANCH  20  26
ATOM     23  C   UNL     1      -0.965   1.464  -0.030  0.00  0.00    +0.033 A 
ATOM     24  C   UNL     1      -1.323   2.806  -0.015  0.00  0.00    +0.025 A 
ATOM     25  C   UNL     1      -2.656   3.163   0.027  0.00  0.00    +0.030 A 
ATOM     26  C   UNL     1      -3.634   2.186   0.065  0.00  0.00    +0.109 A 
ATOM     27  C   UNL     1      -3.281   0.849   0.057  0.00  0.00    +0.030 A 
ATOM     28  C   UNL     1      -1.949   0.485   0.009  0.00  0.00    +0.025 A 
BRANCH  23  31
ATOM     29  C   UNL     1       1.267   1.868  -0.748  0.00  0.00    +0.217 C 
ATOM     30  O   UNL     1       0.878   2.826  -1.382  0.00  0.00    -0.275 OA
ATOM     31  N   UNL     1       0.385   1.099  -0.079  0.00  0.00    -0.286 N 
ATOM     32  H   UNL     1       0.685   0.291   0.365  0.00  0.00    +0.155 HD
BRANCH  29  34
ATOM     33  C   UNL     1       3.512   2.558  -1.544  0.00  0.00    +0.013 C 
ATOM     34  C   UNL     1       2.737   1.537  -0.709  0.00  0.00    +0.093 C 
ENDBRANCH  29  34
ENDBRANCH  23  31
ENDBRANCH  20  26
ENDBRANCH   1  20
TORSDOF 7
