REMARK  Name = ZINC66894432
REMARK  9 active torsions:
REMARK  status: ('A' for Active; 'I' for Inactive)
REMARK    1  A    between atoms: C_1  and  C_2
REMARK    2  A    between atoms: C_2  and  C_4
REMARK    3  A    between atoms: C_2  and  N_14
REMARK    4  A    between atoms: N_10  and  C_11
REMARK    5  A    between atoms: N_10  and  C_12
REMARK    6  A    between atoms: C_18  and  C_21
REMARK    7  A    between atoms: C_21  and  C_22
REMARK    8  A    between atoms: C_27  and  O_28
REMARK    9  A    between atoms: O_28  and  C_29
REMARK                            x       y       z     vdW  Elec       q    Type
REMARK                         _______ _______ _______ _____ _____    ______ ____
ROOT
ATOM      1  N   UNL     1       0.713  -0.491   1.192  0.00  0.00    +0.386 N 
ATOM      2  C   UNL     1       0.739  -1.958   1.178  0.00  0.00    -0.078 C 
ATOM      3  C   UNL     1       1.548  -2.469   2.373  0.00  0.00    -0.018 C 
ATOM      4  C   UNL     1       0.896  -1.981   3.670  0.00  0.00    +0.000 C 
ATOM      5  C   UNL     1       0.805  -0.452   3.640  0.00  0.00    -0.023 C 
ATOM      6  C   UNL     1       0.025  -0.017   2.399  0.00  0.00    -0.074 C 
ATOM      7  H   UNL     1       1.658  -0.139   1.185  0.00  0.00    -0.081 HD
ENDROOT
BRANCH   1   9
ATOM      8  C   UNL     1      -0.019   1.526   0.010  0.00  0.00    -0.005 C 
ATOM      9  C   UNL     1       0.002  -0.004   0.002  0.00  0.00    -0.002 C 
BRANCH   9  10
ATOM     10  C   UNL     1       0.707  -0.490  -1.238  0.00  0.00    +0.123 A 
ATOM     11  N   UNL     1       2.025  -0.417  -1.318  0.00  0.00    -0.201 NA
ATOM     12  C   UNL     1       2.651  -0.846  -2.411  0.00  0.00    +0.217 A 
ATOM     13  N   UNL     1       1.951  -1.347  -3.423  0.00  0.00    -0.181 NA
ATOM     14  C   UNL     1       0.627  -1.419  -3.338  0.00  0.00    +0.222 A 
ATOM     15  N   UNL     1       0.008  -0.993  -2.240  0.00  0.00    -0.201 NA
ATOM     16  N   UNL     1      -0.105  -1.939  -4.386  0.00  0.00    -0.306 N 
ATOM     17  C   UNL     1       0.578  -2.413  -5.593  0.00  0.00    +0.132 C 
ATOM     18  C   UNL     1      -1.565  -2.018  -4.292  0.00  0.00    +0.132 C 
ATOM     19  N   UNL     1       4.027  -0.768  -2.495  0.00  0.00    -0.327 N 
ATOM     20  H   UNL     1       4.537  -0.402  -1.756  0.00  0.00    +0.145 HD
ATOM     21  H   UNL     1       4.482  -1.081  -3.292  0.00  0.00    +0.145 HD
ENDBRANCH   9  10
ENDBRANCH   1   9
BRANCH   5  22
ATOM     22  C   UNL     1       0.086   0.041   4.897  0.00  0.00    +0.040 C 
BRANCH  22  23
ATOM     23  C   UNL     1       0.915  -0.286   6.112  0.00  0.00    -0.006 A 
ATOM     24  C   UNL     1       0.673  -1.446   6.823  0.00  0.00    +0.007 A 
ATOM     25  C   UNL     1       1.434  -1.746   7.938  0.00  0.00    +0.000 A 
ATOM     26  C   UNL     1       2.438  -0.887   8.344  0.00  0.00    +0.004 A 
ATOM     27  C   UNL     1       2.684   0.274   7.637  0.00  0.00    +0.046 A 
ATOM     28  C   UNL     1       1.926   0.575   6.515  0.00  0.00    +0.123 A 
BRANCH  28  29
ATOM     29  O   UNL     1       2.170   1.713   5.814  0.00  0.00    -0.495 OA
ATOM     30  C   UNL     1       3.226   2.552   6.286  0.00  0.00    +0.277 C 
ENDBRANCH  28  29
ENDBRANCH  22  23
ENDBRANCH   5  22
TORSDOF 5
