REMARK  Name = ZINC13308020
REMARK  10 active torsions:
REMARK  status: ('A' for Active; 'I' for Inactive)
REMARK    1  A    between atoms: C_1  and  N_2
REMARK    2  A    between atoms: N_2  and  C_3
REMARK    3  A    between atoms: N_2  and  S_16
REMARK    4  A    between atoms: C_3  and  C_4
REMARK    5  A    between atoms: N_6  and  C_7
REMARK    6  A    between atoms: C_12  and  O_13
REMARK    7  A    between atoms: O_13  and  C_14
REMARK    8  A    between atoms: S_16  and  C_19
REMARK    9  A    between atoms: C_22  and  C_24
REMARK   10  A    between atoms: C_24  and  C_25
REMARK                            x       y       z     vdW  Elec       q    Type
REMARK                         _______ _______ _______ _____ _____    ______ ____
ROOT
ATOM      1  C   UNL     1      -0.017   1.074  -0.008  0.00  0.00    +0.132 C 
ATOM      2  N   UNL     1      -0.699   1.556   1.195  0.00  0.00    -0.170 NA
ENDROOT
BRANCH   2   3
ATOM      3  S   UNL     1       0.166   1.846   2.577  0.00  0.00    +0.067 S 
ATOM      4  O   UNL     1      -0.750   1.744   3.659  0.00  0.00    -0.152 OA
ATOM      5  O   UNL     1       1.340   1.050   2.496  0.00  0.00    -0.152 OA
BRANCH   3   6
ATOM      6  C   UNL     1       0.691   3.527   2.519  0.00  0.00    +0.143 A 
ATOM      7  C   UNL     1       0.062   4.634   2.983  0.00  0.00    +0.036 A 
ATOM      8  C   UNL     1       0.670   5.866   2.826  0.00  0.00    +0.014 A 
ATOM      9  C   UNL     1       1.878   5.930   2.214  0.00  0.00    +0.002 A 
ATOM     10  S   UNL     1       2.194   4.212   1.842  0.00  0.00    -0.073 S 
BRANCH   9  11
ATOM     11  C   UNL     1       2.734   7.136   1.927  0.00  0.00    +0.167 C 
BRANCH  11  12
ATOM     12  C   UNL     1       3.664   7.379   3.088  0.00  0.00    +0.361 C 
ATOM     13  O   UNL     1       3.635   6.648   4.049  0.00  0.00    -0.246 OA
ATOM     14  O   UNL     1       4.525   8.409   3.053  0.00  0.00    -0.246 OA
ENDBRANCH  11  12
ENDBRANCH   9  11
ENDBRANCH   3   6
ENDBRANCH   2   3
BRANCH   2  15
ATOM     15  C   UNL     1      -2.147   1.780   1.176  0.00  0.00    +0.205 C 
BRANCH  15  16
ATOM     16  C   UNL     1      -2.860   0.485   1.466  0.00  0.00    +0.233 C 
ATOM     17  O   UNL     1      -2.222  -0.527   1.668  0.00  0.00    -0.274 OA
ATOM     18  N   UNL     1      -4.207   0.450   1.500  0.00  0.00    -0.281 N 
ATOM     19  H   UNL     1      -4.715   1.272   1.418  0.00  0.00    +0.155 HD
BRANCH  18  20
ATOM     20  C   UNL     1      -4.872  -0.773   1.653  0.00  0.00    +0.077 A 
ATOM     21  C   UNL     1      -4.256  -1.954   1.266  0.00  0.00    +0.047 A 
ATOM     22  C   UNL     1      -4.913  -3.160   1.422  0.00  0.00    +0.043 A 
ATOM     23  C   UNL     1      -6.190  -3.192   1.956  0.00  0.00    +0.024 A 
ATOM     24  C   UNL     1      -6.812  -2.018   2.339  0.00  0.00    +0.049 A 
ATOM     25  C   UNL     1      -6.158  -0.806   2.189  0.00  0.00    +0.141 A 
ATOM     26 CL   UNL     1      -4.138  -4.638   0.943  0.00  0.00    -0.083 Cl
BRANCH  25  27
ATOM     27  O   UNL     1      -6.769   0.349   2.566  0.00  0.00    -0.493 OA
ATOM     28  C   UNL     1      -8.086   0.239   3.108  0.00  0.00    +0.277 C 
ENDBRANCH  25  27
ENDBRANCH  18  20
ENDBRANCH  15  16
ENDBRANCH   2  15
TORSDOF 8
