REMARK  Name = ZINC67271464
REMARK  7 active torsions:
REMARK  status: ('A' for Active; 'I' for Inactive)
REMARK    1  A    between atoms: C_1  and  C_2
REMARK    2  A    between atoms: N_5  and  C_8
REMARK    3  A    between atoms: C_8  and  C_10
REMARK    4  A    between atoms: C_8  and  C_11
REMARK    5  A    between atoms: C_11  and  N_12
REMARK    6  A    between atoms: C_13  and  C_15
REMARK    7  A    between atoms: C_20  and  N_21
REMARK                            x       y       z     vdW  Elec       q    Type
REMARK                         _______ _______ _______ _____ _____    ______ ____
ROOT
ATOM      1  N   UNL     1       2.520  -3.660   2.502  0.00  0.00    -0.313 N 
ATOM      2  C   UNL     1       2.886  -4.082   3.729  0.00  0.00    +0.246 C 
ATOM      3  O   UNL     1       3.857  -4.802   3.859  0.00  0.00    -0.270 OA
ATOM      4  H   UNL     1       1.746  -3.085   2.398  0.00  0.00    +0.149 HD
ENDROOT
BRANCH   2   5
ATOM      5  C   UNL     1       2.108  -3.671   4.914  0.00  0.00    +0.062 A 
ATOM      6  C   UNL     1       1.860  -2.318   5.156  0.00  0.00    +0.015 A 
ATOM      7  C   UNL     1       1.133  -1.940   6.265  0.00  0.00    +0.001 A 
ATOM      8  C   UNL     1       0.646  -2.897   7.141  0.00  0.00    +0.002 A 
ATOM      9  C   UNL     1       0.884  -4.238   6.913  0.00  0.00    +0.028 A 
ATOM     10  C   UNL     1       1.609  -4.636   5.799  0.00  0.00    +0.081 A 
BRANCH  10  11
ATOM     11  N   UNL     1       1.846  -5.994   5.564  0.00  0.00    -0.200 N 
ATOM     12  C   UNL     1       1.472  -7.038   6.337  0.00  0.00    +0.250 A 
ATOM     13  N   UNL     1       1.894  -8.127   5.748  0.00  0.00    -0.116 NA
ATOM     14  N   UNL     1       2.508  -7.843   4.657  0.00  0.00    -0.023 NA
ATOM     15  N   UNL     1       2.518  -6.567   4.470  0.00  0.00    -0.039 NA
ENDBRANCH  10  11
ENDBRANCH   2   5
BRANCH   1  16
ATOM     16  C   UNL     1       3.293  -4.068   1.326  0.00  0.00    +0.089 C 
BRANCH  16  17
ATOM     17  C   UNL     1       2.755  -3.348   0.088  0.00  0.00    -0.054 C 
ATOM     18  C   UNL     1       3.628  -3.690  -1.121  0.00  0.00    -0.012 C 
BRANCH  17  23
ATOM     19  C   UNL     1       3.439   2.312  -0.044  0.00  0.00    +0.007 C 
ATOM     20  C   UNL     1       3.480   0.824  -0.394  0.00  0.00    -0.018 C 
ATOM     21  C   UNL     1       4.206   0.056   0.714  0.00  0.00    -0.016 C 
ATOM     22  C   UNL     1       4.174  -1.440   0.397  0.00  0.00    -0.078 C 
ATOM     23  N   UNL     1       2.781  -1.897   0.316  0.00  0.00    +0.382 N 
ATOM     24  C   UNL     1       2.098  -1.217  -0.791  0.00  0.00    -0.078 C 
ATOM     25  C   UNL     1       2.050   0.288  -0.520  0.00  0.00    -0.016 C 
ATOM     26  H   UNL     1       2.308  -1.686   1.182  0.00  0.00    -0.081 HD
ENDBRANCH  17  23
ENDBRANCH  16  17
ENDBRANCH   1  16
TORSDOF 5
