REMARK  Name = ZINC21308856
REMARK  7 active torsions:
REMARK  status: ('A' for Active; 'I' for Inactive)
REMARK    1  A    between atoms: C_8  and  C_26
REMARK    2  A    between atoms: N_10  and  C_12
REMARK    3  A    between atoms: C_12  and  C_13
REMARK    4  A    between atoms: C_13  and  C_15
REMARK    5  A    between atoms: C_13  and  O_25
REMARK    6  A    between atoms: C_15  and  O_16
REMARK    7  A    between atoms: O_16  and  C_17
REMARK                            x       y       z     vdW  Elec       q    Type
REMARK                         _______ _______ _______ _____ _____    ______ ____
ROOT
ATOM      1  C   UNL     1      -0.149   4.705  -5.851  0.00  0.00    +0.000 A 
ATOM      2  C   UNL     1       0.462   5.536  -4.930  0.00  0.00    +0.000 A 
ATOM      3  C   UNL     1       0.877   5.029  -3.716  0.00  0.00    +0.002 A 
ATOM      4  C   UNL     1       0.686   3.688  -3.413  0.00  0.00    -0.061 A 
ATOM      5  C   UNL     1       0.080   2.860  -4.333  0.00  0.00    -0.047 A 
ATOM      6  C   UNL     1      -0.338   3.371  -5.553  0.00  0.00    +0.004 A 
ATOM      7  C   UNL     1      -0.144   1.396  -4.053  0.00  0.00    +0.029 C 
ATOM      8  C   UNL     1      -0.009   1.125  -2.555  0.00  0.00    +0.024 C 
ATOM      9  N   UNL     1       1.252   1.719  -2.084  0.00  0.00    +0.392 N 
ATOM     10  C   UNL     1       1.152   3.182  -2.074  0.00  0.00    -0.042 C 
ATOM     11  H   UNL     1       2.055   1.433  -2.780  0.00  0.00    -0.080 HD
ENDROOT
BRANCH   8  12
ATOM     12  C   UNL     1       0.008  -0.362  -2.308  0.00  0.00    +0.197 C 
ATOM     13  O   UNL     1       1.057  -0.969  -2.337  0.00  0.00    -0.278 OA
ATOM     14  N   UNL     1      -1.143  -1.016  -2.056  0.00  0.00    -0.331 N 
ATOM     15  H   UNL     1      -1.130  -2.101  -1.876  0.00  0.00    +0.145 HD
ATOM     16  H   UNL     1      -2.095  -0.465  -2.030  0.00  0.00    +0.145 HD
ENDBRANCH   8  12
BRANCH   9  17
ATOM     17  C   UNL     1       1.612   1.206  -0.755  0.00  0.00    -0.042 C 
BRANCH  17  18
ATOM     18  C   UNL     1       0.513   1.568   0.246  0.00  0.00    +0.135 C 
BRANCH  18  19
ATOM     19  O   UNL     1      -0.694   0.890  -0.107  0.00  0.00    -0.390 OA
ATOM     20  H   UNL     1      -1.600   1.028   0.502  0.00  0.00    +0.210 HD
ENDBRANCH  18  19
BRANCH  18  21
ATOM     21  C   UNL     1       0.944   1.145   1.651  0.00  0.00    +0.258 C 
BRANCH  21  22
ATOM     22  O   UNL     1      -0.028   1.586   2.601  0.00  0.00    -0.487 OA
BRANCH  22  23
ATOM     23  C   UNL     1       0.205   1.289   3.907  0.00  0.00    +0.157 A 
ATOM     24  C   UNL     1      -0.277   0.105   4.447  0.00  0.00    +0.084 A 
ATOM     25  C   UNL     1      -0.033  -0.197   5.774  0.00  0.00    +0.024 A 
ATOM     26  C   UNL     1       0.680   0.684   6.566  0.00  0.00    +0.003 A 
ATOM     27  C   UNL     1       1.156   1.867   6.032  0.00  0.00    +0.024 A 
ATOM     28  C   UNL     1       0.920   2.172   4.704  0.00  0.00    +0.084 A 
ATOM     29 CL   UNL     1       1.518   3.658   4.034  0.00  0.00    -0.080 Cl
ATOM     30 CL   UNL     1      -1.178  -0.999   3.456  0.00  0.00    -0.080 Cl
ENDBRANCH  22  23
ENDBRANCH  21  22
ENDBRANCH  18  21
ENDBRANCH  17  18
ENDBRANCH   9  17
TORSDOF 7
