REMARK  Name = ZINC39447423
REMARK  11 active torsions:
REMARK  status: ('A' for Active; 'I' for Inactive)
REMARK    1  A    between atoms: C_1  and  C_2
REMARK    2  A    between atoms: C_4  and  C_38
REMARK    3  A    between atoms: N_6  and  C_32
REMARK    4  A    between atoms: C_7  and  N_13
REMARK    5  A    between atoms: C_9  and  C_11
REMARK    6  A    between atoms: C_14  and  C_16
REMARK    7  A    between atoms: C_16  and  N_17
REMARK    8  A    between atoms: N_17  and  C_18
REMARK    9  A    between atoms: N_17  and  C_19
REMARK   10  A    between atoms: C_19  and  C_20
REMARK   11  A    between atoms: C_32  and  C_33
REMARK                            x       y       z     vdW  Elec       q    Type
REMARK                         _______ _______ _______ _____ _____    ______ ____
ROOT
ATOM      1  N   UNL     1      -0.239  -2.487   2.769  0.00  0.00    -0.329 N 
ATOM      2  C   UNL     1       0.134  -3.774   2.914  0.00  0.00    +0.195 C 
ATOM      3  O   UNL     1       0.759  -4.327   2.034  0.00  0.00    -0.278 OA
ATOM      4  H   UNL     1      -0.678  -2.024   3.500  0.00  0.00    +0.147 HD
ENDROOT
BRANCH   1   9
ATOM      5  C   UNL     1       2.551   0.846   0.673  0.00  0.00    +0.007 C 
ATOM      6  C   UNL     1       1.410  -0.146   0.436  0.00  0.00    -0.011 C 
ATOM      7  C   UNL     1       0.049   0.496   0.777  0.00  0.00    -0.064 C 
ATOM      8  N   UNL     1      -0.766  -0.536   1.444  0.00  0.00    +0.399 N 
ATOM      9  C   UNL     1       0.019  -1.787   1.508  0.00  0.00    +0.037 C 
ATOM     10  C   UNL     1       1.500  -1.333   1.431  0.00  0.00    +0.096 C 
ATOM     11  C   UNL     1       0.256   1.688   1.715  0.00  0.00    -0.013 C 
ATOM     12  H   UNL     1      -0.999  -0.233   2.378  0.00  0.00    -0.078 HD
BRANCH  10  13
ATOM     13  C   UNL     1       1.981  -0.882   2.748  0.00  0.00    +0.066 C 
ATOM     14  N   UNL     1       2.352  -0.535   3.764  0.00  0.00    -0.196 NA
ENDBRANCH  10  13
BRANCH   8  15
ATOM     15  C   UNL     1      -1.998  -0.764   0.678  0.00  0.00    -0.000 C 
BRANCH  15  16
ATOM     16  C   UNL     1      -2.891  -1.714   1.434  0.00  0.00    +0.089 A 
ATOM     17  C   UNL     1      -3.880  -1.363   2.276  0.00  0.00    +0.042 A 
ATOM     18  C   UNL     1      -4.452  -2.562   2.758  0.00  0.00    +0.041 A 
ATOM     19  C   UNL     1      -3.779  -3.574   2.182  0.00  0.00    +0.195 A 
ATOM     20  O   UNL     1      -2.838  -3.055   1.377  0.00  0.00    -0.470 OA
ENDBRANCH  15  16
ENDBRANCH   8  15
ENDBRANCH   1   9
BRANCH   2  21
ATOM     21  C   UNL     1      -0.226  -4.526   4.170  0.00  0.00    +0.019 C 
BRANCH  21  22
ATOM     22  N   UNL     1       0.162  -5.935   4.025  0.00  0.00    +0.388 N 
ATOM     23  C   UNL     1      -0.653  -6.562   2.976  0.00  0.00    -0.095 C 
ATOM     24  H   UNL     1       1.137  -5.991   3.771  0.00  0.00    -0.081 HD
BRANCH  22  25
ATOM     25  C   UNL     1      -0.053  -6.636   5.298  0.00  0.00    -0.003 C 
BRANCH  25  26
ATOM     26  C   UNL     1       0.458  -8.049   5.186  0.00  0.00    +0.094 A 
ATOM     27  N   UNL     1       0.342  -8.863   6.267  0.00  0.00    -0.312 N 
ATOM     28  H   UNL     1      -0.063  -8.526   7.082  0.00  0.00    +0.170 HD
ATOM     29  C   UNL     1       0.786 -10.141   6.218  0.00  0.00    +0.259 A 
ATOM     30  O   UNL     1       0.688 -10.882   7.179  0.00  0.00    -0.267 OA
ATOM     31  C   UNL     1       1.391 -10.599   4.959  0.00  0.00    +0.065 A 
ATOM     32  C   UNL     1       1.879 -11.895   4.804  0.00  0.00    +0.015 A 
ATOM     33  C   UNL     1       2.437 -12.272   3.602  0.00  0.00    +0.001 A 
ATOM     34  C   UNL     1       2.515 -11.372   2.547  0.00  0.00    +0.002 A 
ATOM     35  C   UNL     1       2.039 -10.087   2.680  0.00  0.00    +0.028 A 
ATOM     36  C   UNL     1       1.469  -9.681   3.888  0.00  0.00    +0.078 A 
ATOM     37  N   UNL     1       0.983  -8.427   4.060  0.00  0.00    -0.236 NA
ENDBRANCH  25  26
ENDBRANCH  22  25
ENDBRANCH  21  22
ENDBRANCH   2  21
TORSDOF 8
