REMARK  Name = ZINC12470447
REMARK  8 active torsions:
REMARK  status: ('A' for Active; 'I' for Inactive)
REMARK    1  A    between atoms: C_1  and  C_2
REMARK    2  A    between atoms: C_14  and  S_15
REMARK    3  A    between atoms: S_15  and  C_16
REMARK    4  A    between atoms: C_16  and  C_17
REMARK    5  A    between atoms: N_19  and  C_20
REMARK    6  A    between atoms: C_21  and  C_29
REMARK    7  A    between atoms: C_29  and  O_31
REMARK    8  A    between atoms: O_31  and  C_32
REMARK                            x       y       z     vdW  Elec       q    Type
REMARK                         _______ _______ _______ _____ _____    ______ ____
ROOT
ATOM      1  S   UNL     1       1.679   3.452   0.005  0.00  0.00    -0.076 S 
ENDROOT
BRANCH   1  15
ATOM      2  C   UNL     1       0.906  -2.940  -0.019  0.00  0.00    +0.047 C 
ATOM      3  C   UNL     1       1.810  -1.734  -0.024  0.00  0.00    -0.005 A 
ATOM      4  C   UNL     1       3.152  -1.901  -0.040  0.00  0.00    +0.017 A 
ATOM      5  C   UNL     1       4.019  -0.719  -0.044  0.00  0.00    +0.003 A 
ATOM      6  C   UNL     1       5.412  -0.850  -0.063  0.00  0.00    +0.059 A 
ATOM      7  C   UNL     1       6.207   0.277  -0.067  0.00  0.00    +0.167 A 
ATOM      8  C   UNL     1       5.624   1.549  -0.051  0.00  0.00    +0.168 A 
ATOM      9  C   UNL     1       4.248   1.686  -0.033  0.00  0.00    +0.076 A 
ATOM     10  C   UNL     1       3.436   0.561  -0.030  0.00  0.00    +0.061 A 
ATOM     11  N   UNL     1       2.056   0.681  -0.015  0.00  0.00    -0.270 N 
ATOM     12  C   UNL     1       1.250  -0.435  -0.012  0.00  0.00    +0.165 A 
ATOM     13  N   UNL     1       0.002  -0.004   0.002  0.00  0.00    -0.128 NA
ATOM     14  N   UNL     1      -0.015   1.281   0.009  0.00  0.00    -0.122 NA
ATOM     15  C   UNL     1       1.212   1.753  -0.000  0.00  0.00    +0.197 A 
ATOM     16  O   UNL     1       6.621   2.482  -0.058  0.00  0.00    -0.453 OA
ATOM     17  C   UNL     1       7.801   1.782  -0.493  0.00  0.00    +0.466 C 
ATOM     18  O   UNL     1       7.565   0.422  -0.085  0.00  0.00    -0.453 OA
ENDBRANCH   1  15
BRANCH   1  19
ATOM     19  C   UNL     1       0.044   4.228   0.025  0.00  0.00    +0.173 C 
BRANCH  19  20
ATOM     20  C   UNL     1       0.199   5.726   0.032  0.00  0.00    +0.228 C 
ATOM     21  O   UNL     1       1.306   6.221   0.024  0.00  0.00    -0.275 OA
ATOM     22  N   UNL     1      -0.892   6.517   0.047  0.00  0.00    -0.279 N 
ATOM     23  H   UNL     1      -1.778   6.121   0.054  0.00  0.00    +0.155 HD
BRANCH  22  24
ATOM     24  C   UNL     1      -0.750   7.896   0.054  0.00  0.00    +0.086 A 
ATOM     25  C   UNL     1      -1.743   8.866   0.063  0.00  0.00    +0.091 A 
ATOM     26  C   UNL     1      -1.322  10.257   0.073  0.00  0.00    -0.021 A 
ATOM     27  C   UNL     1       0.014  10.454   0.060  0.00  0.00    -0.004 A 
ATOM     28  S   UNL     1       0.712   8.827   0.044  0.00  0.00    -0.077 S 
ATOM     29  C   UNL     1       0.734  11.767   0.059  0.00  0.00    +0.043 C 
ATOM     30  C   UNL     1      -0.272  12.870  -0.304  0.00  0.00    +0.005 C 
ATOM     31  C   UNL     1      -1.534  12.685   0.545  0.00  0.00    +0.005 C 
ATOM     32  C   UNL     1      -2.288  11.435   0.090  0.00  0.00    +0.037 C 
BRANCH  25  33
ATOM     33  C   UNL     1      -3.161   8.501   0.068  0.00  0.00    +0.342 C 
ATOM     34  O   UNL     1      -3.745   8.345   1.123  0.00  0.00    -0.245 OA
BRANCH  33  35
ATOM     35  O   UNL     1      -3.819   8.339  -1.098  0.00  0.00    -0.464 OA
ATOM     36  C   UNL     1      -5.223   7.978  -1.018  0.00  0.00    +0.280 C 
ENDBRANCH  33  35
ENDBRANCH  25  33
ENDBRANCH  22  24
ENDBRANCH  19  20
ENDBRANCH   1  19
TORSDOF 6
