REMARK  Name = ZINC20764894
REMARK  10 active torsions:
REMARK  status: ('A' for Active; 'I' for Inactive)
REMARK    1  A    between atoms: C_1  and  C_2
REMARK    2  A    between atoms: C_2  and  O_3
REMARK    3  A    between atoms: O_3  and  C_4
REMARK    4  A    between atoms: C_8  and  C_11
REMARK    5  A    between atoms: C_9  and  O_10
REMARK    6  A    between atoms: C_14  and  C_29
REMARK    7  A    between atoms: C_16  and  C_19
REMARK    8  A    between atoms: C_23  and  N_25
REMARK    9  A    between atoms: C_33  and  O_35
REMARK   10  A    between atoms: O_35  and  C_36
REMARK                            x       y       z     vdW  Elec       q    Type
REMARK                         _______ _______ _______ _____ _____    ______ ____
ROOT
ATOM      1  C   UNL     1      -4.941   0.853   0.422  0.00  0.00    -0.028 C 
ATOM      2  C   UNL     1      -3.789   1.783   0.036  0.00  0.00    +0.044 C 
ATOM      3  C   UNL     1      -2.501   1.009   0.020  0.00  0.00    +0.040 C 
ATOM      4  N   UNL     1      -2.454  -0.270   0.013  0.00  0.00    -0.299 NA
ATOM      5  C   UNL     1      -3.629  -1.132   0.025  0.00  0.00    +0.081 C 
ATOM      6  N   UNL     1      -4.826  -0.382  -0.373  0.00  0.00    +0.401 N 
ATOM      7  H   UNL     1      -5.715  -1.008  -0.209  0.00  0.00    -0.081 HD
ATOM      8  H   UNL     1      -4.751  -0.124  -1.440  0.00  0.00    -0.081 HD
ENDROOT
BRANCH   5   9
ATOM      9  C   UNL     1      -3.417  -2.274  -0.934  0.00  0.00    -0.038 A 
ATOM     10  C   UNL     1      -4.499  -2.848  -1.575  0.00  0.00    +0.005 A 
ATOM     11  C   UNL     1      -4.305  -3.896  -2.455  0.00  0.00    +0.022 A 
ATOM     12  C   UNL     1      -3.027  -4.370  -2.695  0.00  0.00    +0.071 A 
ATOM     13  C   UNL     1      -1.945  -3.796  -2.053  0.00  0.00    +0.145 A 
ATOM     14  C   UNL     1      -2.140  -2.744  -1.178  0.00  0.00    +0.038 A 
ATOM     15 CL   UNL     1      -2.783  -5.687  -3.800  0.00  0.00    -0.081 Cl
BRANCH  13  16
ATOM     16  N   UNL     1      -0.578  -4.302  -2.309  0.00  0.00    +0.058 N 
ATOM     17  O   UNL     1       0.375  -3.796  -1.744  0.00  0.00    -0.126 OA
ATOM     18  O   UNL     1      -0.406  -5.225  -3.085  0.00  0.00    -0.126 OA
ENDBRANCH  13  16
ENDBRANCH   5   9
BRANCH   1  23
ATOM     19  C   UNL     1      -7.997   3.061   0.757  0.00  0.00    +0.162 A 
ATOM     20  C   UNL     1      -8.682   2.754  -0.408  0.00  0.00    +0.049 A 
ATOM     21  C   UNL     1      -8.157   1.836  -1.297  0.00  0.00    +0.004 A 
ATOM     22  C   UNL     1      -6.945   1.226  -1.030  0.00  0.00    +0.006 A 
ATOM     23  C   UNL     1      -6.259   1.524   0.132  0.00  0.00    -0.016 A 
ATOM     24  C   UNL     1      -6.780   2.443   1.028  0.00  0.00    +0.160 A 
BRANCH  24  25
ATOM     25  O   UNL     1      -6.104   2.741   2.170  0.00  0.00    -0.503 OA
ATOM     26  H   UNL     1      -5.142   2.252   2.383  0.00  0.00    +0.292 HD
ENDBRANCH  24  25
BRANCH  19  27
ATOM     27  O   UNL     1      -8.512   3.965   1.633  0.00  0.00    -0.489 OA
BRANCH  27  29
ATOM     28  C   UNL     1     -10.182   5.542   2.386  0.00  0.00    +0.048 C 
ATOM     29  C   UNL     1      -9.766   4.560   1.289  0.00  0.00    +0.226 C 
ENDBRANCH  27  29
ENDBRANCH  19  27
ENDBRANCH   1  23
BRANCH   3  30
ATOM     30  C   UNL     1      -1.229   1.759   0.017  0.00  0.00    -0.001 A 
ATOM     31  C   UNL     1      -1.239   3.156   0.029  0.00  0.00    +0.010 A 
ATOM     32  C   UNL     1      -0.049   3.854   0.021  0.00  0.00    +0.004 A 
ATOM     33  C   UNL     1       1.155   3.175   0.007  0.00  0.00    +0.045 A 
ATOM     34  C   UNL     1       1.176   1.787   0.000  0.00  0.00    +0.121 A 
ATOM     35  C   UNL     1      -0.013   1.076   0.008  0.00  0.00    +0.055 A 
BRANCH  34  36
ATOM     36  O   UNL     1       2.363   1.125  -0.014  0.00  0.00    -0.495 OA
ATOM     37  C   UNL     1       3.549   1.921  -0.021  0.00  0.00    +0.277 C 
ENDBRANCH  34  36
ENDBRANCH   3  30
TORSDOF 8
