REMARK  Name = ZINC39889585
REMARK  4 active torsions:
REMARK  status: ('A' for Active; 'I' for Inactive)
REMARK    1  A    between atoms: C_4  and  C_7
REMARK    2  A    between atoms: C_7  and  N_8
REMARK    3  A    between atoms: N_31  and  C_32
REMARK    4  A    between atoms: C_32  and  C_33
REMARK                            x       y       z     vdW  Elec       q    Type
REMARK                         _______ _______ _______ _____ _____    ______ ____
ROOT
ATOM      1  N   UNL     1       4.152  -0.952   1.338  0.00  0.00    -0.264 N 
ATOM      2  C   UNL     1       4.940  -0.078   2.065  0.00  0.00    +0.043 A 
ATOM      3  C   UNL     1       5.471   1.157   1.691  0.00  0.00    +0.024 A 
ATOM      4  C   UNL     1       6.236   1.830   2.631  0.00  0.00    +0.002 A 
ATOM      5  C   UNL     1       6.470   1.312   3.889  0.00  0.00    +0.000 A 
ATOM      6  C   UNL     1       5.947   0.082   4.274  0.00  0.00    +0.008 A 
ATOM      7  C   UNL     1       5.187  -0.593   3.344  0.00  0.00    +0.011 A 
ATOM      8  C   UNL     1       4.485  -1.912   3.405  0.00  0.00    +0.174 C 
ATOM      9  C   UNL     1       3.832  -2.055   2.047  0.00  0.00    +0.253 C 
ATOM     10  O   UNL     1       3.152  -2.985   1.668  0.00  0.00    -0.272 OA
ATOM     11  C   UNL     1       3.479  -1.978   4.500  0.00  0.00    +0.084 A 
ATOM     12  C   UNL     1       2.311  -1.143   4.801  0.00  0.00    +0.199 A 
ATOM     13  O   UNL     1       1.885  -0.293   4.039  0.00  0.00    -0.287 OA
ATOM     14  C   UNL     1       1.697  -1.430   6.122  0.00  0.00    +0.064 A 
ATOM     15  C   UNL     1       0.700  -0.600   6.633  0.00  0.00    +0.015 A 
ATOM     16  C   UNL     1       0.147  -0.876   7.852  0.00  0.00    +0.001 A 
ATOM     17  C   UNL     1       0.575  -1.977   8.581  0.00  0.00    +0.004 A 
ATOM     18  C   UNL     1       1.557  -2.808   8.091  0.00  0.00    +0.047 A 
ATOM     19  C   UNL     1       2.135  -2.550   6.848  0.00  0.00    +0.139 A 
ATOM     20  O   UNL     1       3.089  -3.387   6.381  0.00  0.00    -0.450 OA
ATOM     21  C   UNL     1       3.809  -3.039   5.297  0.00  0.00    +0.200 A 
ATOM     22  C   UNL     1       5.026  -3.667   4.751  0.00  0.00    +0.284 C 
ATOM     23  O   UNL     1       5.586  -4.633   5.230  0.00  0.00    -0.267 OA
ATOM     24  N   UNL     1       5.428  -3.011   3.641  0.00  0.00    -0.269 N 
ENDROOT
BRANCH   1  25
ATOM     25  C   UNL     1       3.711  -0.707  -0.038  0.00  0.00    +0.148 C 
BRANCH  25  29
ATOM     26  C   UNL     1      -0.017   1.378   0.010  0.00  0.00    +0.000 A 
ATOM     27  C   UNL     1       1.171   2.086   0.002  0.00  0.00    +0.000 A 
ATOM     28  C   UNL     1       2.377   1.411  -0.013  0.00  0.00    +0.005 A 
ATOM     29  C   UNL     1       2.396   0.029  -0.020  0.00  0.00    -0.030 A 
ATOM     30  C   UNL     1       1.208  -0.679  -0.012  0.00  0.00    +0.005 A 
ATOM     31  C   UNL     1       0.002  -0.004   0.002  0.00  0.00    +0.000 A 
ENDBRANCH  25  29
ENDBRANCH   1  25
BRANCH  24  32
ATOM     32  C   UNL     1       6.596  -3.338   2.820  0.00  0.00    +0.145 C 
BRANCH  32  33
ATOM     33  C   UNL     1       7.798  -2.591   3.337  0.00  0.00    -0.030 A 
ATOM     34  C   UNL     1       8.090  -1.330   2.849  0.00  0.00    +0.008 A 
ATOM     35  C   UNL     1       9.192  -0.644   3.323  0.00  0.00    +0.038 A 
ATOM     36  C   UNL     1      10.004  -1.218   4.286  0.00  0.00    +0.123 A 
ATOM     37  C   UNL     1       9.711  -2.481   4.774  0.00  0.00    +0.038 A 
ATOM     38  C   UNL     1       8.605  -3.163   4.303  0.00  0.00    +0.008 A 
ATOM     39  F   UNL     1      11.082  -0.548   4.749  0.00  0.00    -0.205 F 
ENDBRANCH  32  33
ENDBRANCH  24  32
TORSDOF 4
