REMARK  Name = ZINC06166441
REMARK  9 active torsions:
REMARK  status: ('A' for Active; 'I' for Inactive)
REMARK    1  A    between atoms: C_1  and  C_2
REMARK    2  A    between atoms: C_2  and  O_3
REMARK    3  A    between atoms: O_3  and  C_4
REMARK    4  A    between atoms: C_9  and  C_10
REMARK    5  A    between atoms: N_11  and  N_12
REMARK    6  A    between atoms: C_13  and  C_15
REMARK    7  A    between atoms: C_15  and  C_17
REMARK    8  A    between atoms: C_15  and  N_18
REMARK    9  A    between atoms: C_29  and  C_33
REMARK                            x       y       z     vdW  Elec       q    Type
REMARK                         _______ _______ _______ _____ _____    ______ ____
ROOT
ATOM      1  C   UNL     1      -6.068  -0.974   0.052  0.00  0.00    +0.176 C 
ATOM      2  C   UNL     1      -6.146  -1.848  -1.201  0.00  0.00    +0.041 C 
ENDROOT
BRANCH   1   3
ATOM      3  N   UNL     1      -7.197  -0.041   0.068  0.00  0.00    -0.287 N 
ATOM      4  C   UNL     1      -7.343   0.844  -0.951  0.00  0.00    +0.204 A 
ATOM      5  N   UNL     1      -8.336   1.693  -0.974  0.00  0.00    -0.230 NA
ATOM      6  C   UNL     1      -9.238   1.715   0.003  0.00  0.00    +0.116 A 
ATOM      7  C   UNL     1      -9.171   0.839   1.097  0.00  0.00    +0.076 A 
ATOM      8  C   UNL     1      -8.073  -0.083   1.089  0.00  0.00    +0.263 A 
ATOM      9  O   UNL     1      -7.932  -0.887   1.994  0.00  0.00    -0.267 OA
ATOM     10  C   UNL     1     -10.232   0.979   2.095  0.00  0.00    -0.023 A 
ATOM     11  C   UNL     1     -11.164   1.928   1.869  0.00  0.00    -0.004 A 
ATOM     12  S   UNL     1     -10.690   2.681   0.335  0.00  0.00    -0.073 S 
ATOM     13  C   UNL     1     -12.341   2.268   2.730  0.00  0.00    +0.046 C 
ATOM     14  C   UNL     1     -12.550   1.127   3.736  0.00  0.00    -0.009 C 
ATOM     15  C   UNL     1     -11.202   0.780   4.374  0.00  0.00    +0.008 C 
ATOM     16  C   UNL     1     -10.299   0.102   3.342  0.00  0.00    +0.037 C 
ATOM     17  C   UNL     1     -13.533   1.570   4.823  0.00  0.00    +0.008 C 
ENDBRANCH   1   3
BRANCH   1  19
ATOM     18  N   UNL     1      -3.598  -0.853   0.030  0.00  0.00    -0.205 N 
ATOM     19  C   UNL     1      -4.776  -0.199   0.045  0.00  0.00    +0.255 C 
ATOM     20  O   UNL     1      -4.796   1.014   0.051  0.00  0.00    -0.272 OA
ATOM     21  H   UNL     1      -3.582  -1.823   0.025  0.00  0.00    +0.177 HD
BRANCH  18  23
ATOM     22  C   UNL     1      -1.262  -0.762   0.009  0.00  0.00    +0.142 C 
ATOM     23  N   UNL     1      -2.396  -0.132   0.023  0.00  0.00    -0.188 NA
BRANCH  22  29
ATOM     24  C   UNL     1      -0.017   1.397   0.010  0.00  0.00    +0.129 A 
ATOM     25  C   UNL     1       1.176   2.101   0.002  0.00  0.00    +0.047 A 
ATOM     26  C   UNL     1       2.381   1.423  -0.013  0.00  0.00    +0.019 A 
ATOM     27  C   UNL     1       2.405   0.038  -0.021  0.00  0.00    +0.019 A 
ATOM     28  C   UNL     1       1.225  -0.678  -0.013  0.00  0.00    +0.028 A 
ATOM     29  C   UNL     1       0.002  -0.004   0.002  0.00  0.00    +0.037 A 
ATOM     30 BR   UNL     1       4.061  -0.875  -0.041  0.00  0.00    -0.050 Br
BRANCH  24  31
ATOM     31  O   UNL     1      -1.201   2.063   0.019  0.00  0.00    -0.492 OA
BRANCH  31  33
ATOM     32  C   UNL     1      -2.562   4.059   0.036  0.00  0.00    +0.048 C 
ATOM     33  C   UNL     1      -1.142   3.491   0.026  0.00  0.00    +0.226 C 
ENDBRANCH  31  33
ENDBRANCH  24  31
ENDBRANCH  22  29
ENDBRANCH  18  23
ENDBRANCH   1  19
TORSDOF 6
