REMARK  Name = ZINC46619610
REMARK  4 active torsions:
REMARK  status: ('A' for Active; 'I' for Inactive)
REMARK    1  A    between atoms: C_1  and  C_2
REMARK    2  A    between atoms: N_6  and  C_14
REMARK    3  A    between atoms: C_14  and  C_15
REMARK    4  A    between atoms: N_17  and  C_18
REMARK                            x       y       z     vdW  Elec       q    Type
REMARK                         _______ _______ _______ _____ _____    ______ ____
ROOT
ATOM      1  C   UNL     1       3.143   0.131  -3.222  0.00  0.00    +0.231 C 
ATOM      2  O   UNL     1       2.910   1.250  -2.817  0.00  0.00    -0.274 OA
ATOM      3  N   UNL     1       3.808  -0.041  -4.382  0.00  0.00    -0.311 N 
ATOM      4  H   UNL     1       3.994  -0.936  -4.706  0.00  0.00    +0.149 HD
ENDROOT
BRANCH   3   5
ATOM      5  C   UNL     1       4.247   1.124  -5.154  0.00  0.00    +0.076 C 
ATOM      6  C   UNL     1       3.103   1.605  -6.048  0.00  0.00    +0.041 C 
ATOM      7  C   UNL     1       3.555   2.844  -6.828  0.00  0.00    +0.108 C 
ATOM      8  N   UNL     1       4.792   2.521  -7.552  0.00  0.00    -0.317 N 
ATOM      9  C   UNL     1       5.926   1.966  -6.801  0.00  0.00    +0.108 C 
ATOM     10  C   UNL     1       5.447   0.737  -6.022  0.00  0.00    +0.041 C 
ATOM     11  C   UNL     1       4.887   2.736  -8.922  0.00  0.00    +0.099 A 
ATOM     12  C   UNL     1       6.104   2.543  -9.568  0.00  0.00    +0.042 A 
ATOM     13  C   UNL     1       6.185   2.761 -10.931  0.00  0.00    +0.005 A 
ATOM     14  C   UNL     1       5.041   3.167 -11.606  0.00  0.00    +0.018 A 
ATOM     15  C   UNL     1       3.866   3.339 -10.902  0.00  0.00    +0.084 A 
ATOM     16  N   UNL     1       3.817   3.119  -9.602  0.00  0.00    -0.350 N 
ATOM     17  H   UNL     1       2.978   3.244  -9.132  0.00  0.00    +0.166 HD
ENDBRANCH   3   5
BRANCH   1  18
ATOM     18  C   UNL     1       2.691  -1.068  -2.428  0.00  0.00    +0.209 C 
BRANCH  18  23
ATOM     19  C   UNL     1      -0.013   1.619   0.025  0.00  0.00    +0.062 C 
ATOM     20  C   UNL     1      -0.026   0.089   0.015  0.00  0.00    +0.256 C 
ATOM     21  C   UNL     1       0.663  -0.410  -1.230  0.00  0.00    +0.261 C 
ATOM     22  O   UNL     1       0.022  -0.622  -2.237  0.00  0.00    -0.271 OA
ATOM     23  N   UNL     1       1.998  -0.619  -1.218  0.00  0.00    -0.256 N 
ATOM     24  C   UNL     1       2.710  -0.399  -0.030  0.00  0.00    +0.079 A 
ATOM     25  C   UNL     1       4.090  -0.288  -0.043  0.00  0.00    +0.027 A 
ATOM     26  C   UNL     1       4.773  -0.073   1.140  0.00  0.00    +0.002 A 
ATOM     27  C   UNL     1       4.082   0.031   2.334  0.00  0.00    +0.004 A 
ATOM     28  C   UNL     1       2.703  -0.079   2.352  0.00  0.00    +0.047 A 
ATOM     29  C   UNL     1       2.013  -0.293   1.172  0.00  0.00    +0.143 A 
ATOM     30  O   UNL     1       0.658  -0.401   1.171  0.00  0.00    -0.478 OA
ENDBRANCH  18  23
ENDBRANCH   1  18
TORSDOF 3
