REMARK  Name = ZINC30944735
REMARK  10 active torsions:
REMARK  status: ('A' for Active; 'I' for Inactive)
REMARK    1  A    between atoms: C_1  and  C_2
REMARK    2  A    between atoms: C_2  and  C_3
REMARK    3  A    between atoms: C_2  and  C_4
REMARK    4  A    between atoms: C_2  and  C_5
REMARK    5  A    between atoms: N_11  and  S_33
REMARK    6  A    between atoms: C_13  and  C_16
REMARK    7  A    between atoms: N_21  and  C_24
REMARK    8  A    between atoms: C_24  and  C_25
REMARK    9  A    between atoms: C_26  and  C_27
REMARK   10  A    between atoms: S_33  and  C_36
REMARK                            x       y       z     vdW  Elec       q    Type
REMARK                         _______ _______ _______ _____ _____    ______ ____
ROOT
ATOM      1  C   UNL     1       1.175   1.785   0.000  0.00  0.00    -0.040 A 
ATOM      2  C   UNL     1       1.156   3.167   0.008  0.00  0.00    +0.008 A 
ATOM      3  C   UNL     1      -0.047   3.848   0.020  0.00  0.00    +0.048 A 
ATOM      4  C   UNL     1      -1.243   3.146   0.026  0.00  0.00    +0.144 A 
ATOM      5  C   UNL     1      -1.221   1.754   0.017  0.00  0.00    +0.093 A 
ATOM      6  C   UNL     1      -0.013   1.076   0.008  0.00  0.00    +0.032 A 
ATOM      7  N   UNL     1      -2.429   1.038   0.036  0.00  0.00    -0.200 N 
ATOM      8  C   UNL     1      -3.667   1.779  -0.259  0.00  0.00    +0.185 C 
ATOM      9  C   UNL     1      -3.588   3.126   0.475  0.00  0.00    +0.278 C 
ATOM     10  O   UNL     1      -2.421   3.824   0.033  0.00  0.00    -0.476 OA
ENDROOT
BRANCH   9  11
ATOM     11  C   UNL     1      -4.814   3.944   0.163  0.00  0.00    +0.258 C 
ATOM     12  O   UNL     1      -4.711   4.976  -0.465  0.00  0.00    -0.271 OA
ATOM     13  N   UNL     1      -6.026   3.529   0.581  0.00  0.00    -0.296 N 
ATOM     14  C   UNL     1      -6.175   2.277   1.339  0.00  0.00    +0.123 C 
ATOM     15  C   UNL     1      -6.985   2.576   2.610  0.00  0.00    +0.103 C 
ATOM     16  N   UNL     1      -8.247   3.229   2.237  0.00  0.00    -0.296 NA
ATOM     17  C   UNL     1      -8.005   4.528   1.595  0.00  0.00    +0.103 C 
ATOM     18  C   UNL     1      -7.236   4.312   0.288  0.00  0.00    +0.123 C 
BRANCH  16  19
ATOM     19  C   UNL     1      -9.129   3.375   3.403  0.00  0.00    +0.111 C 
BRANCH  19  20
ATOM     20  C   UNL     1      -9.552   2.011   3.887  0.00  0.00    -0.011 C 
ATOM     21  C   UNL     1      -9.344   1.661   5.148  0.00  0.00    +0.005 C 
BRANCH  21  22
ATOM     22  C   UNL     1      -9.758   0.324   5.622  0.00  0.00    -0.025 A 
ATOM     23  C   UNL     1     -10.374  -0.570   4.746  0.00  0.00    +0.008 A 
ATOM     24  C   UNL     1     -10.753  -1.819   5.193  0.00  0.00    +0.001 A 
ATOM     25  C   UNL     1     -10.535  -2.181   6.510  0.00  0.00    +0.000 A 
ATOM     26  C   UNL     1      -9.930  -1.297   7.386  0.00  0.00    +0.001 A 
ATOM     27  C   UNL     1      -9.541  -0.047   6.950  0.00  0.00    +0.008 A 
ENDBRANCH  21  22
ENDBRANCH  19  20
ENDBRANCH  16  19
ENDBRANCH   9  11
BRANCH   1  29
ATOM     28  C   UNL     1       2.572   0.178  -1.270  0.00  0.00    +0.015 C 
ATOM     29  C   UNL     1       2.490   1.050  -0.015  0.00  0.00    -0.013 C 
ATOM     30  C   UNL     1       3.639   2.061  -0.021  0.00  0.00    +0.015 C 
ATOM     31  C   UNL     1       2.595   0.165   1.229  0.00  0.00    +0.015 C 
ENDBRANCH   1  29
BRANCH   7  32
ATOM     32  S   UNL     1      -2.461  -0.583   0.373  0.00  0.00    +0.043 S 
ATOM     33  O   UNL     1      -1.306  -0.810   1.170  0.00  0.00    -0.155 OA
ATOM     34  O   UNL     1      -3.760  -0.819   0.896  0.00  0.00    -0.155 OA
ATOM     35  C   UNL     1      -2.278  -1.397  -1.238  0.00  0.00    +0.218 C 
ENDBRANCH   7  32
TORSDOF 6
