REMARK  Name = ZINC41084851
REMARK  3 active torsions:
REMARK  status: ('A' for Active; 'I' for Inactive)
REMARK    1  A    between atoms: C_6  and  C_7
REMARK    2  A    between atoms: C_7  and  N_8
REMARK    3  A    between atoms: C_12  and  N_18
REMARK                            x       y       z     vdW  Elec       q    Type
REMARK                         _______ _______ _______ _____ _____    ______ ____
ROOT
ATOM      1  N   UNL     1      -1.726  -1.017  -1.368  0.00  0.00    -0.270 N 
ATOM      2  C   UNL     1      -2.541  -0.184  -2.137  0.00  0.00    +0.091 A 
ATOM      3  C   UNL     1      -3.159   1.032  -1.890  0.00  0.00    +0.031 A 
ATOM      4  C   UNL     1      -3.924   1.629  -2.873  0.00  0.00    +0.025 A 
ATOM      5  C   UNL     1      -4.075   1.011  -4.109  0.00  0.00    +0.028 A 
ATOM      6  C   UNL     1      -3.459  -0.205  -4.361  0.00  0.00    +0.071 A 
ATOM      7  C   UNL     1      -2.691  -0.806  -3.376  0.00  0.00    +0.159 A 
ATOM      8  O   UNL     1      -1.986  -1.964  -3.333  0.00  0.00    -0.407 OA
ATOM      9  C   UNL     1      -1.405  -2.083  -2.129  0.00  0.00    +0.422 A 
ATOM     10  O   UNL     1      -0.701  -3.010  -1.778  0.00  0.00    -0.223 OA
ENDROOT
BRANCH   5  11
ATOM     11  N   UNL     1      -4.852   1.619  -5.102  0.00  0.00    -0.358 N 
ATOM     12  H   UNL     1      -5.284   2.470  -4.927  0.00  0.00    +0.142 HD
ATOM     13  H   UNL     1      -4.958   1.189  -5.965  0.00  0.00    +0.142 HD
ENDBRANCH   5  11
BRANCH   1  14
ATOM     14  C   UNL     1      -1.293  -0.775   0.010  0.00  0.00    +0.163 C 
BRANCH  14  20
ATOM     15  C   UNL     1      -0.017   1.378   0.010  0.00  0.00    +0.006 A 
ATOM     16  C   UNL     1       1.171   2.086   0.002  0.00  0.00    +0.015 A 
ATOM     17  C   UNL     1       2.378   1.411  -0.013  0.00  0.00    +0.018 A 
ATOM     18  C   UNL     1       2.396   0.027  -0.021  0.00  0.00    +0.015 A 
ATOM     19  C   UNL     1       1.208  -0.679  -0.013  0.00  0.00    +0.006 A 
ATOM     20  C   UNL     1       0.002  -0.004   0.002  0.00  0.00    -0.027 A 
ATOM     21 BR   UNL     1       4.003   2.378  -0.024  0.00  0.00    -0.050 Br
ENDBRANCH  14  20
ENDBRANCH   1  14
TORSDOF 3
