REMARK  Name = ZINC59374144
REMARK  7 active torsions:
REMARK  status: ('A' for Active; 'I' for Inactive)
REMARK    1  A    between atoms: C_1  and  C_2
REMARK    2  A    between atoms: C_2  and  C_4
REMARK    3  A    between atoms: C_2  and  N_14
REMARK    4  A    between atoms: C_6  and  C_9
REMARK    5  A    between atoms: C_17  and  N_20
REMARK    6  A    between atoms: N_20  and  S_21
REMARK    7  A    between atoms: S_21  and  C_24
REMARK                            x       y       z     vdW  Elec       q    Type
REMARK                         _______ _______ _______ _____ _____    ______ ____
ROOT
ATOM      1  N   UNL     1       0.690  -0.478  -1.207  0.00  0.00    +0.387 N 
ATOM      2  C   UNL     1       0.717  -1.945  -1.209  0.00  0.00    -0.076 C 
ATOM      3  C   UNL     1       1.502  -2.443  -2.424  0.00  0.00    +0.002 C 
ATOM      4  C   UNL     1       0.825  -1.941  -3.703  0.00  0.00    +0.073 C 
ATOM      5  C   UNL     1       0.736  -0.413  -3.656  0.00  0.00    +0.002 C 
ATOM      6  C   UNL     1      -0.021   0.009  -2.395  0.00  0.00    -0.076 C 
ATOM      7  H   UNL     1       1.635  -0.126  -1.214  0.00  0.00    -0.081 HD
ENDROOT
BRANCH   1   9
ATOM      8  C   UNL     1      -0.019   1.526   0.010  0.00  0.00    -0.003 C 
ATOM      9  C   UNL     1       0.002  -0.004   0.002  0.00  0.00    +0.019 C 
BRANCH   9  10
ATOM     10  C   UNL     1       0.731  -0.503   1.223  0.00  0.00    +0.214 A 
ATOM     11  N   UNL     1       0.177  -1.033   2.276  0.00  0.00    -0.192 NA
ATOM     12  C   UNL     1       1.122  -1.367   3.175  0.00  0.00    +0.209 A 
ATOM     13  N   UNL     1       2.297  -1.044   2.687  0.00  0.00    -0.056 NA
ATOM     14  O   UNL     1       2.058  -0.482   1.405  0.00  0.00    -0.339 OA
BRANCH  12  15
ATOM     15  C   UNL     1       0.877  -1.991   4.492  0.00  0.00    +0.060 A 
ATOM     16  C   UNL     1       1.780  -2.352   5.457  0.00  0.00    +0.019 A 
ATOM     17  C   UNL     1       1.313  -2.925   6.618  0.00  0.00    +0.008 A 
ATOM     18  C   UNL     1      -0.024  -3.114   6.772  0.00  0.00    +0.046 A 
ATOM     19  S   UNL     1      -0.672  -2.464   5.242  0.00  0.00    -0.093 S 
ENDBRANCH  12  15
ENDBRANCH   9  10
ENDBRANCH   1   9
BRANCH   4  20
ATOM     20  N   UNL     1       1.615  -2.350  -4.868  0.00  0.00    -0.187 NA
ATOM     21  H   UNL     1       2.582  -2.383  -4.810  0.00  0.00    +0.148 HD
BRANCH  20  22
ATOM     22  S   UNL     1       0.854  -2.756  -6.282  0.00  0.00    +0.065 S 
ATOM     23  O   UNL     1       1.877  -3.075  -7.215  0.00  0.00    -0.153 OA
ATOM     24  O   UNL     1      -0.178  -3.670  -5.940  0.00  0.00    -0.153 OA
BRANCH  22  25
ATOM     25  C   UNL     1       0.061  -1.302  -6.883  0.00  0.00    +0.142 A 
ATOM     26  C   UNL     1       0.543  -0.349  -7.717  0.00  0.00    +0.036 A 
ATOM     27  C   UNL     1      -0.268   0.718  -8.057  0.00  0.00    +0.010 A 
ATOM     28  C   UNL     1      -1.522   0.778  -7.547  0.00  0.00    +0.047 A 
ATOM     29  S   UNL     1      -1.590  -0.705  -6.556  0.00  0.00    -0.077 S 
ENDBRANCH  22  25
ENDBRANCH  20  22
ENDBRANCH   4  20
TORSDOF 6
