REMARK  Name = ZINC09476602
REMARK  5 active torsions:
REMARK  status: ('A' for Active; 'I' for Inactive)
REMARK    1  A    between atoms: C_1  and  C_2
REMARK    2  A    between atoms: C_3  and  C_9
REMARK    3  A    between atoms: C_4  and  C_8
REMARK    4  A    between atoms: N_5  and  C_7
REMARK    5  A    between atoms: N_18  and  C_21
REMARK                            x       y       z     vdW  Elec       q    Type
REMARK                         _______ _______ _______ _____ _____    ______ ____
ROOT
ATOM      1  C   UNL     1      -0.005  -0.374  -2.549  0.00  0.00    +0.083 C 
ATOM      2  N   UNL     1       1.050  -0.483  -3.443  0.00  0.00    -0.263 N 
ATOM      3  O   UNL     1       0.459  -0.452  -4.758  0.00  0.00    -0.256 OA
ATOM      4  C   UNL     1      -0.515   0.587  -4.575  0.00  0.00    +0.272 C 
ATOM      5  C   UNL     1      -1.062   0.220  -3.185  0.00  0.00    +0.081 C 
ATOM      6  H   UNL     1       1.992  -0.564  -3.228  0.00  0.00    +0.194 HD
ATOM      7  C   UNL     1      -2.405   0.588  -3.283  0.00  0.00    +0.258 C 
ATOM      8  O   UNL     1      -3.113   0.922  -2.349  0.00  0.00    -0.269 OA
ATOM      9  N   UNL     1      -2.796   0.517  -4.571  0.00  0.00    -0.204 N 
ATOM     10  C   UNL     1      -1.742   0.462  -5.434  0.00  0.00    +0.263 C 
ATOM     11  O   UNL     1      -1.781   0.325  -6.638  0.00  0.00    -0.271 OA
ENDROOT
BRANCH   1  14
ATOM     12  C   UNL     1      -0.018   1.503   0.010  0.00  0.00    +0.068 C 
ATOM     13  C   UNL     1       0.002  -0.004   0.002  0.00  0.00    +0.069 A 
ATOM     14  C   UNL     1       0.008  -0.828  -1.146  0.00  0.00    +0.044 A 
ATOM     15  C   UNL     1       0.028  -2.137  -0.708  0.00  0.00    +0.045 A 
ATOM     16  N   UNL     1       0.034  -2.111   0.635  0.00  0.00    -0.271 N 
ATOM     17  N   UNL     1       0.023  -0.776   1.054  0.00  0.00    -0.176 NA
ATOM     18  C   UNL     1       0.054  -3.284   1.514  0.00  0.00    +0.172 C 
ATOM     19  C   UNL     1       0.041  -3.368  -1.578  0.00  0.00    +0.066 C 
ENDBRANCH   1  14
BRANCH   9  20
ATOM     20  C   UNL     1      -4.137   0.518  -4.980  0.00  0.00    +0.046 A 
ATOM     21  C   UNL     1      -4.452   0.435  -6.330  0.00  0.00    +0.027 A 
ATOM     22  C   UNL     1      -5.773   0.437  -6.731  0.00  0.00    +0.041 A 
ATOM     23  C   UNL     1      -6.784   0.520  -5.789  0.00  0.00    +0.142 A 
ATOM     24  C   UNL     1      -6.472   0.603  -4.441  0.00  0.00    +0.078 A 
ATOM     25  C   UNL     1      -5.151   0.596  -4.035  0.00  0.00    +0.046 A 
ATOM     26 CL   UNL     1      -7.742   0.709  -3.261  0.00  0.00    -0.081 Cl
ATOM     27  F   UNL     1      -8.076   0.522  -6.183  0.00  0.00    -0.204 F 
ENDBRANCH   9  20
TORSDOF 2
