REMARK  Name = ZINC63637417
REMARK  3 active torsions:
REMARK  status: ('A' for Active; 'I' for Inactive)
REMARK    1  A    between atoms: C_3  and  C_6
REMARK    2  A    between atoms: N_7  and  N_8
REMARK    3  A    between atoms: C_9  and  C_11
REMARK                            x       y       z     vdW  Elec       q    Type
REMARK                         _______ _______ _______ _____ _____    ______ ____
ROOT
ATOM      1  N   UNL     1       5.586  -0.558  -0.056  0.00  0.00    -0.205 N 
ATOM      2  C   UNL     1       6.232  -1.742  -0.068  0.00  0.00    +0.259 C 
ATOM      3  O   UNL     1       5.600  -2.777  -0.067  0.00  0.00    -0.271 OA
ATOM      4  H   UNL     1       6.091   0.270  -0.057  0.00  0.00    +0.177 HD
ENDROOT
BRANCH   2   5
ATOM      5  C   UNL     1       7.738  -1.778  -0.083  0.00  0.00    +0.191 C 
ATOM      6  C   UNL     1       8.288  -1.140   1.173  0.00  0.00    +0.016 C 
ATOM      7  C   UNL     1       8.994  -2.105   1.805  0.00  0.00    -0.002 A 
ATOM      8  C   UNL     1       9.759  -2.118   3.058  0.00  0.00    +0.025 A 
ATOM      9  C   UNL     1      10.373  -3.261   3.440  0.00  0.00    +0.019 A 
ATOM     10  C   UNL     1      10.297  -4.431   2.670  0.00  0.00    +0.017 A 
ATOM     11  C   UNL     1       9.614  -4.497   1.508  0.00  0.00    +0.027 A 
ATOM     12  C   UNL     1       8.929  -3.353   1.012  0.00  0.00    +0.043 A 
ATOM     13  N   UNL     1       8.210  -3.167  -0.071  0.00  0.00    -0.370 N 
ATOM     14 BR   UNL     1      11.360  -3.282   5.053  0.00  0.00    -0.050 Br
ATOM     15  H   UNL     1       8.022  -3.835  -0.748  0.00  0.00    +0.161 HD
ENDBRANCH   2   5
BRANCH   1  17
ATOM     16  C   UNL     1       3.563   0.617  -0.029  0.00  0.00    +0.176 C 
ATOM     17  N   UNL     1       4.186  -0.524  -0.041  0.00  0.00    -0.185 NA
BRANCH  16  20
ATOM     18  C   UNL     1      -0.016   1.345   0.009  0.00  0.00    +0.042 A 
ATOM     19  C   UNL     1       1.323   1.776  -0.001  0.00  0.00    +0.051 A 
ATOM     20  C   UNL     1       2.098   0.653  -0.015  0.00  0.00    +0.147 A 
ATOM     21  O   UNL     1       1.279  -0.418  -0.012  0.00  0.00    -0.462 OA
ATOM     22  C   UNL     1       0.002  -0.004   0.002  0.00  0.00    +0.196 A 
ENDBRANCH  16  20
ENDBRANCH   1  17
TORSDOF 3
