REMARK  Name = ZINC24773221
REMARK  12 active torsions:
REMARK  status: ('A' for Active; 'I' for Inactive)
REMARK    1  A    between atoms: C_1  and  C_2
REMARK    2  A    between atoms: C_2  and  C_3
REMARK    3  A    between atoms: C_2  and  C_4
REMARK    4  A    between atoms: C_4  and  C_6
REMARK    5  A    between atoms: C_4  and  N_12
REMARK    6  A    between atoms: C_13  and  C_15
REMARK    7  A    between atoms: C_15  and  N_16
REMARK    8  A    between atoms: N_19  and  S_22
REMARK    9  A    between atoms: S_22  and  C_25
REMARK   10  A    between atoms: C_28  and  O_34
REMARK   11  A    between atoms: C_29  and  N_31
REMARK   12  A    between atoms: O_34  and  C_35
REMARK                            x       y       z     vdW  Elec       q    Type
REMARK                         _______ _______ _______ _____ _____    ______ ____
ROOT
ATOM      1  N   UNL     1      -2.987   2.983  -2.796  0.00  0.00    +0.387 N 
ATOM      2  C   UNL     1      -2.176   3.765  -1.853  0.00  0.00    -0.061 C 
ATOM      3  C   UNL     1      -0.799   3.110  -1.703  0.00  0.00    +0.091 C 
ATOM      4  N   UNL     1      -0.991   1.699  -1.336  0.00  0.00    -0.180 NA
ATOM      5  C   UNL     1      -1.895   0.882  -2.159  0.00  0.00    +0.091 C 
ATOM      6  C   UNL     1      -3.234   1.627  -2.288  0.00  0.00    -0.061 C 
ATOM      7  H   UNL     1      -2.416   2.891  -3.732  0.00  0.00    -0.081 HD
ENDROOT
BRANCH   4   8
ATOM      8  S   UNL     1      -0.204   1.044  -0.034  0.00  0.00    +0.061 S 
ATOM      9  O   UNL     1      -0.133  -0.356  -0.264  0.00  0.00    -0.153 OA
ATOM     10  O   UNL     1       0.953   1.840   0.183  0.00  0.00    -0.153 OA
BRANCH   8  11
ATOM     11  C   UNL     1      -1.243   1.272   1.371  0.00  0.00    +0.108 A 
ATOM     12  C   UNL     1      -1.124   2.415   2.140  0.00  0.00    +0.032 A 
ATOM     13  C   UNL     1      -1.941   2.599   3.238  0.00  0.00    +0.050 A 
ATOM     14  C   UNL     1      -2.874   1.629   3.577  0.00  0.00    +0.150 A 
ATOM     15  C   UNL     1      -2.988   0.481   2.807  0.00  0.00    +0.169 A 
ATOM     16  C   UNL     1      -2.172   0.305   1.706  0.00  0.00    +0.065 A 
BRANCH  15  17
ATOM     17  N   UNL     1      -3.983  -0.555   3.165  0.00  0.00    +0.060 N 
ATOM     18  O   UNL     1      -4.083  -1.563   2.489  0.00  0.00    -0.126 OA
ATOM     19  O   UNL     1      -4.702  -0.399   4.136  0.00  0.00    -0.126 OA
ENDBRANCH  15  17
BRANCH  14  20
ATOM     20  O   UNL     1      -3.676   1.805   4.660  0.00  0.00    -0.493 OA
ATOM     21  C   UNL     1      -3.503   3.012   5.406  0.00  0.00    +0.277 C 
ENDBRANCH  14  20
ENDBRANCH   8  11
ENDBRANCH   4   8
BRANCH   1  22
ATOM     22  C   UNL     1      -4.250   3.669  -3.100  0.00  0.00    +0.019 C 
BRANCH  22  24
ATOM     23  N   UNL     1      -6.341   4.249  -1.912  0.00  0.00    -0.310 N 
ATOM     24  C   UNL     1      -5.087   3.757  -1.850  0.00  0.00    +0.197 C 
ATOM     25  O   UNL     1      -4.634   3.384  -0.789  0.00  0.00    -0.278 OA
ATOM     26  H   UNL     1      -6.752   4.586  -2.875  0.00  0.00    +0.149 HD
BRANCH  23  27
ATOM     27  C   UNL     1      -7.155   4.334  -0.698  0.00  0.00    +0.106 C 
BRANCH  27  28
ATOM     28  C   UNL     1      -8.192   5.415  -0.863  0.00  0.00    -0.027 A 
ATOM     29  C   UNL     1      -8.836   5.575  -2.075  0.00  0.00    +0.005 A 
ATOM     30  C   UNL     1      -9.791   6.564  -2.225  0.00  0.00    +0.000 A 
ATOM     31  C   UNL     1     -10.094   7.399  -1.166  0.00  0.00    +0.000 A 
ATOM     32  C   UNL     1      -9.445   7.242   0.045  0.00  0.00    +0.000 A 
ATOM     33  C   UNL     1      -8.494   6.250   0.197  0.00  0.00    +0.005 A 
ENDBRANCH  27  28
BRANCH  27  35
ATOM     34  C   UNL     1      -6.798   1.895  -0.288  0.00  0.00    +0.009 C 
ATOM     35  C   UNL     1      -7.851   2.993  -0.455  0.00  0.00    +0.008 C 
ATOM     36  C   UNL     1      -8.701   3.082   0.814  0.00  0.00    +0.009 C 
ENDBRANCH  27  35
ENDBRANCH  23  27
ENDBRANCH  22  24
ENDBRANCH   1  22
TORSDOF 9
