REMARK  Name = ZINC36225034
REMARK  9 active torsions:
REMARK  status: ('A' for Active; 'I' for Inactive)
REMARK    1  A    between atoms: C_1  and  C_2
REMARK    2  A    between atoms: C_2  and  C_4
REMARK    3  A    between atoms: C_2  and  O_20
REMARK    4  A    between atoms: N_6  and  C_7
REMARK    5  A    between atoms: C_7  and  C_8
REMARK    6  A    between atoms: N_10  and  C_11
REMARK    7  A    between atoms: O_20  and  C_21
REMARK    8  A    between atoms: C_21  and  C_23
REMARK    9  A    between atoms: N_25  and  C_30
REMARK                            x       y       z     vdW  Elec       q    Type
REMARK                         _______ _______ _______ _____ _____    ______ ____
ROOT
ATOM      1  C   UNL     1       0.180   3.725   1.769  0.00  0.00    +0.062 C 
ATOM      2  C   UNL     1       0.106   2.295   1.231  0.00  0.00    +0.259 C 
ENDROOT
BRANCH   2   3
ATOM      3  C   UNL     1       0.691   2.250  -0.157  0.00  0.00    +0.254 C 
ATOM      4  O   UNL     1       1.701   1.613  -0.369  0.00  0.00    -0.272 OA
ATOM      5  N   UNL     1       0.091   2.917  -1.163  0.00  0.00    -0.304 N 
ATOM      6  H   UNL     1      -0.717   3.425  -0.994  0.00  0.00    +0.149 HD
BRANCH   5   7
ATOM      7  C   UNL     1       0.660   2.873  -2.513  0.00  0.00    +0.200 C 
BRANCH   7   8
ATOM      8  C   UNL     1      -0.194   3.694  -3.444  0.00  0.00    +0.234 C 
ATOM      9  O   UNL     1      -1.180   4.260  -3.022  0.00  0.00    -0.274 OA
ATOM     10  N   UNL     1       0.139   3.799  -4.746  0.00  0.00    -0.282 N 
ATOM     11  H   UNL     1       0.952   3.385  -5.074  0.00  0.00    +0.155 HD
BRANCH  10  12
ATOM     12  C   UNL     1      -0.691   4.508  -5.626  0.00  0.00    +0.072 A 
ATOM     13  C   UNL     1      -1.487   5.541  -5.151  0.00  0.00    +0.029 A 
ATOM     14  C   UNL     1      -2.304   6.239  -6.019  0.00  0.00    +0.043 A 
ATOM     15  C   UNL     1      -2.331   5.910  -7.363  0.00  0.00    +0.161 A 
ATOM     16  C   UNL     1      -1.538   4.879  -7.842  0.00  0.00    +0.195 A 
ATOM     17  C   UNL     1      -0.712   4.181  -6.977  0.00  0.00    +0.182 A 
ATOM     18  F   UNL     1       0.066   3.180  -7.443  0.00  0.00    -0.200 F 
ATOM     19  F   UNL     1      -1.565   4.559  -9.155  0.00  0.00    -0.199 F 
ATOM     20  F   UNL     1      -3.132   6.595  -8.209  0.00  0.00    -0.202 F 
ENDBRANCH  10  12
ENDBRANCH   7   8
ENDBRANCH   5   7
ENDBRANCH   2   3
BRANCH   2  21
ATOM     21  O   UNL     1       0.847   1.424   2.088  0.00  0.00    -0.448 OA
BRANCH  21  22
ATOM     22  C   UNL     1       0.176   0.856   3.111  0.00  0.00    +0.356 C 
ATOM     23  O   UNL     1      -1.006   1.093   3.270  0.00  0.00    -0.244 OA
BRANCH  22  24
ATOM     24  C   UNL     1       0.872  -0.049   4.031  0.00  0.00    +0.144 C 
ATOM     25  N   UNL     1       2.135  -0.292   3.857  0.00  0.00    -0.170 NA
ATOM     26  N   UNL     1       2.830  -1.151   4.714  0.00  0.00    -0.160 N 
ATOM     27  C   UNL     1       2.164  -2.031   5.486  0.00  0.00    +0.240 C 
ATOM     28  O   UNL     1       2.772  -2.776   6.224  0.00  0.00    -0.273 OA
ATOM     29  C   UNL     1       0.658  -2.087   5.428  0.00  0.00    +0.104 C 
ATOM     30  C   UNL     1       0.113  -0.678   5.169  0.00  0.00    +0.074 C 
BRANCH  26  31
ATOM     31  C   UNL     1       4.228  -1.095   4.771  0.00  0.00    +0.060 A 
ATOM     32  C   UNL     1       4.974  -1.135   3.600  0.00  0.00    +0.025 A 
ATOM     33  C   UNL     1       6.353  -1.079   3.659  0.00  0.00    +0.002 A 
ATOM     34  C   UNL     1       6.991  -0.984   4.882  0.00  0.00    +0.000 A 
ATOM     35  C   UNL     1       6.251  -0.944   6.050  0.00  0.00    +0.002 A 
ATOM     36  C   UNL     1       4.872  -0.994   5.997  0.00  0.00    +0.025 A 
ENDBRANCH  26  31
ENDBRANCH  22  24
ENDBRANCH  21  22
ENDBRANCH   2  21
TORSDOF 8
