REMARK  Name = ZINC20532557
REMARK  9 active torsions:
REMARK  status: ('A' for Active; 'I' for Inactive)
REMARK    1  A    between atoms: C_1  and  C_2
REMARK    2  A    between atoms: C_2  and  C_3
REMARK    3  A    between atoms: C_3  and  S_4
REMARK    4  A    between atoms: S_4  and  N_7
REMARK    5  A    between atoms: N_11  and  C_26
REMARK    6  A    between atoms: C_12  and  C_14
REMARK    7  A    between atoms: C_12  and  C_15
REMARK    8  A    between atoms: N_17  and  C_18
REMARK    9  A    between atoms: C_31  and  C_32
REMARK                            x       y       z     vdW  Elec       q    Type
REMARK                         _______ _______ _______ _____ _____    ______ ____
ROOT
ATOM      1  N   UNL     1      -0.314   1.863  -1.034  0.00  0.00    -0.170 NA
ATOM      2  C   UNL     1      -1.632   1.562  -1.613  0.00  0.00    +0.205 C 
ATOM      3  C   UNL     1      -2.626   1.389  -0.497  0.00  0.00    +0.236 C 
ATOM      4  O   UNL     1      -3.807   1.369  -0.772  0.00  0.00    -0.274 OA
ATOM      5  N   UNL     1      -2.268   1.258   0.781  0.00  0.00    -0.254 N 
ATOM      6  C   UNL     1      -0.899   1.353   1.272  0.00  0.00    +0.129 C 
ATOM      7  C   UNL     1       0.100   1.083   0.144  0.00  0.00    +0.145 C 
ATOM      8  C   UNL     1      -0.660   2.758   1.829  0.00  0.00    +0.043 C 
ENDROOT
BRANCH   5   9
ATOM      9  C   UNL     1      -3.278   1.010   1.717  0.00  0.00    +0.042 A 
ATOM     10  C   UNL     1      -3.547  -0.291   2.123  0.00  0.00    +0.024 A 
ATOM     11  C   UNL     1      -4.544  -0.532   3.048  0.00  0.00    +0.003 A 
ATOM     12  C   UNL     1      -5.275   0.519   3.570  0.00  0.00    +0.020 A 
ATOM     13  C   UNL     1      -5.010   1.816   3.168  0.00  0.00    +0.046 A 
ATOM     14  C   UNL     1      -4.010   2.065   2.247  0.00  0.00    -0.011 A 
ATOM     15  C   UNL     1      -3.717   3.478   1.813  0.00  0.00    +0.047 C 
ATOM     16 CL   UNL     1      -5.930   3.134   3.826  0.00  0.00    -0.083 Cl
ENDBRANCH   5   9
BRANCH   6  17
ATOM     17  C   UNL     1      -0.693   0.343   2.370  0.00  0.00    +0.238 C 
ATOM     18  O   UNL     1      -0.202   0.685   3.425  0.00  0.00    -0.273 OA
ATOM     19  N   UNL     1      -1.053  -0.942   2.180  0.00  0.00    -0.311 N 
ATOM     20  H   UNL     1      -1.401  -1.276   1.192  0.00  0.00    +0.149 HD
BRANCH  19  21
ATOM     21  C   UNL     1      -0.982  -1.895   3.291  0.00  0.00    +0.073 C 
ATOM     22  C   UNL     1       0.436  -2.460   3.388  0.00  0.00    +0.022 C 
ATOM     23  C   UNL     1       0.626  -3.130   4.750  0.00  0.00    +0.002 C 
ATOM     24  C   UNL     1       0.036  -2.238   5.845  0.00  0.00    +0.000 C 
ATOM     25  C   UNL     1      -1.182  -2.927   6.462  0.00  0.00    +0.000 C 
ATOM     26  C   UNL     1      -2.370  -2.814   5.505  0.00  0.00    +0.000 C 
ATOM     27  C   UNL     1      -2.193  -3.804   4.353  0.00  0.00    +0.002 C 
ATOM     28  C   UNL     1      -1.971  -3.036   3.048  0.00  0.00    +0.022 C 
ENDBRANCH  19  21
ENDBRANCH   6  17
BRANCH   1  29
ATOM     29  S   UNL     1       0.665   3.030  -1.682  0.00  0.00    +0.032 S 
ATOM     30  O   UNL     1      -0.224   3.933  -2.326  0.00  0.00    -0.158 OA
ATOM     31  O   UNL     1       1.479   3.462  -0.600  0.00  0.00    -0.158 OA
BRANCH  29  32
ATOM     32  C   UNL     1       1.674   2.161  -2.914  0.00  0.00    +0.185 C 
BRANCH  32  34
ATOM     33  C   UNL     1       3.478   2.420  -4.623  0.00  0.00    +0.005 C 
ATOM     34  C   UNL     1       2.627   3.153  -3.584  0.00  0.00    +0.021 C 
ENDBRANCH  32  34
ENDBRANCH  29  32
ENDBRANCH   1  29
TORSDOF 6
