REMARK  Name = ZINC20026759
REMARK  10 active torsions:
REMARK  status: ('A' for Active; 'I' for Inactive)
REMARK    1  A    between atoms: C_1  and  C_2
REMARK    2  A    between atoms: C_2  and  C_3
REMARK    3  A    between atoms: C_2  and  C_4
REMARK    4  A    between atoms: C_2  and  O_5
REMARK    5  A    between atoms: O_5  and  C_6
REMARK    6  A    between atoms: C_15  and  C_27
REMARK    7  A    between atoms: C_17  and  C_25
REMARK    8  A    between atoms: C_18  and  N_24
REMARK    9  A    between atoms: C_19  and  C_20
REMARK   10  A    between atoms: C_19  and  C_22
REMARK                            x       y       z     vdW  Elec       q    Type
REMARK                         _______ _______ _______ _____ _____    ______ ____
ROOT
ATOM      1  C   UNL     1      -3.700   1.042  -3.161  0.00  0.00    +0.404 C 
ATOM      2  O   UNL     1      -4.479   1.598  -2.412  0.00  0.00    -0.226 OA
ATOM      3  N   UNL     1      -2.502   0.627  -2.701  0.00  0.00    -0.263 N 
ATOM      4  C   UNL     1      -1.534  -0.050  -3.581  0.00  0.00    +0.138 C 
ATOM      5  C   UNL     1      -0.233   0.699  -3.472  0.00  0.00    -0.006 C 
ATOM      6  C   UNL     1       0.077   1.414  -2.433  0.00  0.00    -0.027 C 
ATOM      7  C   UNL     1      -0.789   1.585  -1.216  0.00  0.00    +0.048 C 
ATOM      8  C   UNL     1      -2.107   0.831  -1.305  0.00  0.00    +0.120 C 
ATOM      9  C   UNL     1      -0.013   1.086   0.008  0.00  0.00    +0.076 C 
ATOM     10  C   UNL     1       1.394   1.596  -0.003  0.00  0.00    +0.057 C 
ATOM     11  C   UNL     1       2.034   2.049  -1.079  0.00  0.00    +0.054 C 
ATOM     12  C   UNL     1       1.408   2.149  -2.440  0.00  0.00    +0.202 C 
ENDROOT
BRANCH   9  13
ATOM     13  C   UNL     1      -0.703   1.564   1.259  0.00  0.00    -0.000 A 
ATOM     14  C   UNL     1      -1.252   0.837   2.262  0.00  0.00    +0.013 A 
ATOM     15  C   UNL     1      -1.835   1.497   3.328  0.00  0.00    +0.028 A 
ATOM     16  C   UNL     1      -1.852   2.853   3.331  0.00  0.00    +0.078 A 
ATOM     17  S   UNL     1      -1.018   3.236   1.800  0.00  0.00    -0.081 S 
ATOM     18 CL   UNL     1      -2.513   3.936   4.516  0.00  0.00    -0.076 Cl
ENDBRANCH   9  13
BRANCH  11  19
ATOM     19  N   UNL     1       3.338   2.445  -0.936  0.00  0.00    -0.358 N 
ATOM     20  H   UNL     1       3.896   2.824  -1.805  0.00  0.00    +0.142 HD
ATOM     21  H   UNL     1       3.827   2.385   0.048  0.00  0.00    +0.142 HD
ENDBRANCH  11  19
BRANCH  12  22
ATOM     22  C   UNL     1       1.187   3.565  -2.777  0.00  0.00    +0.095 C 
ATOM     23  N   UNL     1       1.016   4.657  -3.036  0.00  0.00    -0.194 NA
ENDBRANCH  12  22
BRANCH  12  24
ATOM     24  C   UNL     1       2.302   1.540  -3.438  0.00  0.00    +0.095 C 
ATOM     25  N   UNL     1       2.992   1.070  -4.208  0.00  0.00    -0.194 NA
ENDBRANCH  12  24
BRANCH  10  26
ATOM     26  C   UNL     1       2.107   1.598   1.240  0.00  0.00    +0.097 C 
ATOM     27  N   UNL     1       2.672   1.599   2.225  0.00  0.00    -0.191 NA
ENDBRANCH  10  26
BRANCH   1  28
ATOM     28  O   UNL     1      -4.032   0.840  -4.450  0.00  0.00    -0.445 OA
BRANCH  28  30
ATOM     29  C   UNL     1      -5.428   2.825  -4.660  0.00  0.00    +0.055 C 
ATOM     30  C   UNL     1      -5.338   1.313  -4.875  0.00  0.00    +0.107 C 
ATOM     31  C   UNL     1      -5.536   0.997  -6.359  0.00  0.00    +0.055 C 
ATOM     32  C   UNL     1      -6.425   0.615  -4.056  0.00  0.00    +0.055 C 
ENDBRANCH  28  30
ENDBRANCH   1  28
TORSDOF 7
