REMARK  Name = ZINC67624482
REMARK  12 active torsions:
REMARK  status: ('A' for Active; 'I' for Inactive)
REMARK    1  A    between atoms: C_1  and  C_2
REMARK    2  A    between atoms: C_2  and  C_3
REMARK    3  A    between atoms: C_2  and  C_4
REMARK    4  A    between atoms: C_4  and  C_5
REMARK    5  A    between atoms: C_5  and  C_7
REMARK    6  A    between atoms: C_5  and  N_11
REMARK    7  A    between atoms: C_7  and  N_8
REMARK    8  A    between atoms: N_8  and  C_9
REMARK    9  A    between atoms: N_8  and  C_10
REMARK   10  A    between atoms: C_17  and  C_20
REMARK   11  A    between atoms: C_20  and  C_22
REMARK   12  A    between atoms: C_20  and  O_29
REMARK                            x       y       z     vdW  Elec       q    Type
REMARK                         _______ _______ _______ _____ _____    ______ ____
ROOT
ATOM      1  N   UNL     1      -0.724  -2.200  -1.330  0.00  0.00    -0.298 N 
ATOM      2  C   UNL     1       0.613  -2.361  -1.401  0.00  0.00    +0.302 C 
ATOM      3  O   UNL     1       1.268  -2.459  -0.382  0.00  0.00    -0.253 OA
ATOM      4  N   UNL     1       1.222  -2.413  -2.602  0.00  0.00    -0.286 N 
ATOM      5  C   UNL     1       2.659  -2.707  -2.700  0.00  0.00    +0.109 C 
ATOM      6  C   UNL     1       3.333  -1.602  -3.519  0.00  0.00    +0.025 C 
ATOM      7  C   UNL     1       2.625  -1.469  -4.870  0.00  0.00    +0.025 C 
ATOM      8  C   UNL     1       1.162  -1.079  -4.644  0.00  0.00    +0.025 C 
ATOM      9  C   UNL     1       0.462  -2.184  -3.838  0.00  0.00    +0.109 C 
ATOM     10  H   UNL     1      -1.255  -2.195  -2.142  0.00  0.00    +0.150 HD
ENDROOT
BRANCH   1  11
ATOM     11  C   UNL     1      -1.373  -2.035  -0.028  0.00  0.00    +0.058 C 
BRANCH  11  12
ATOM     12  C   UNL     1      -1.474  -0.545   0.306  0.00  0.00    +0.023 C 
BRANCH  12  14
ATOM     13  C   UNL     1      -0.164   1.548   0.689  0.00  0.00    +0.007 C 
ATOM     14  C   UNL     1      -0.069   0.035   0.478  0.00  0.00    -0.016 C 
ATOM     15  C   UNL     1       0.603  -0.608   1.693  0.00  0.00    +0.007 C 
ENDBRANCH  12  14
ENDBRANCH  11  12
BRANCH  11  16
ATOM     16  C   UNL     1      -2.777  -2.642  -0.077  0.00  0.00    -0.057 C 
BRANCH  16  17
ATOM     17  N   UNL     1      -2.687  -4.048  -0.493  0.00  0.00    +0.377 N 
ATOM     18  C   UNL     1      -1.983  -4.821   0.539  0.00  0.00    -0.097 C 
ATOM     19  C   UNL     1      -4.040  -4.592  -0.674  0.00  0.00    -0.097 C 
ATOM     20  H   UNL     1      -2.181  -4.110  -1.363  0.00  0.00    -0.083 HD
ENDBRANCH  16  17
ENDBRANCH  11  16
ENDBRANCH   1  11
BRANCH   7  21
ATOM     21  C   UNL     1       3.317  -0.390  -5.704  0.00  0.00    +0.148 C 
BRANCH  21  22
ATOM     22  C   UNL     1       2.620  -0.259  -7.034  0.00  0.00    -0.019 A 
ATOM     23  C   UNL     1       2.882  -1.167  -8.043  0.00  0.00    +0.007 A 
ATOM     24  C   UNL     1       2.243  -1.047  -9.263  0.00  0.00    +0.020 A 
ATOM     25  C   UNL     1       1.341  -0.019  -9.474  0.00  0.00    +0.041 A 
ATOM     26  C   UNL     1       1.080   0.889  -8.463  0.00  0.00    +0.020 A 
ATOM     27  C   UNL     1       1.716   0.765  -7.242  0.00  0.00    +0.007 A 
ATOM     28 CL   UNL     1       0.539   0.132 -11.005  0.00  0.00    -0.084 Cl
ENDBRANCH  21  22
BRANCH  21  29
ATOM     29  O   UNL     1       4.683  -0.755  -5.916  0.00  0.00    -0.387 OA
ATOM     30  H   UNL     1       4.798  -1.594  -6.383  0.00  0.00    +0.210 HD
ENDBRANCH  21  29
ENDBRANCH   7  21
TORSDOF 8
