REMARK  Name = ZINC55187283
REMARK  4 active torsions:
REMARK  status: ('A' for Active; 'I' for Inactive)
REMARK    1  A    between atoms: C_1  and  N_2
REMARK    2  A    between atoms: N_2  and  C_3
REMARK    3  A    between atoms: C_3  and  C_4
REMARK    4  A    between atoms: C_15  and  C_17
REMARK                            x       y       z     vdW  Elec       q    Type
REMARK                         _______ _______ _______ _____ _____    ______ ____
ROOT
ATOM      1  C   UNL     1      -0.081   1.461   0.012  0.00  0.00    +0.133 C 
ATOM      2  N   UNL     1      -0.023  -0.003   0.003  0.00  0.00    -0.292 N 
ATOM      3  C   UNL     1      -0.102  -0.673  -1.163  0.00  0.00    +0.266 C 
ATOM      4  O   UNL     1      -0.154  -1.888  -1.164  0.00  0.00    -0.268 OA
ENDROOT
BRANCH   3   5
ATOM      5  C   UNL     1      -0.124   0.065  -2.436  0.00  0.00    +0.135 A 
ATOM      6  C   UNL     1      -0.337  -0.595  -3.620  0.00  0.00    +0.081 A 
ATOM      7  S   UNL     1      -0.259   0.765  -4.779  0.00  0.00    -0.060 S 
ATOM      8  C   UNL     1       0.045   2.062  -3.588  0.00  0.00    +0.156 A 
ATOM      9  N   UNL     1       0.057   1.388  -2.455  0.00  0.00    -0.221 NA
ATOM     10  N   UNL     1       0.218   3.420  -3.799  0.00  0.00    -0.338 N 
ATOM     11  H   UNL     1       0.178   3.779  -4.698  0.00  0.00    +0.144 HD
ATOM     12  H   UNL     1       0.378   4.011  -3.046  0.00  0.00    +0.144 HD
ENDBRANCH   3   5
BRANCH   2  13
ATOM     13  C   UNL     1       0.120  -0.738   1.262  0.00  0.00    +0.182 C 
BRANCH  13  14
ATOM     14  C   UNL     1      -1.244  -1.047   1.822  0.00  0.00    +0.128 A 
ATOM     15  N   UNL     1      -1.323  -1.724   2.997  0.00  0.00    -0.309 N 
ATOM     16  H   UNL     1      -0.515  -1.999   3.459  0.00  0.00    +0.170 HD
ATOM     17  C   UNL     1      -2.540  -2.013   3.518  0.00  0.00    +0.266 A 
ATOM     18  O   UNL     1      -2.643  -2.619   4.571  0.00  0.00    -0.267 OA
ATOM     19  C   UNL     1      -3.671  -1.596   2.816  0.00  0.00    +0.102 A 
ATOM     20  C   UNL     1      -3.562  -0.896   1.601  0.00  0.00    +0.085 A 
ATOM     21  N   UNL     1      -2.285  -0.650   1.162  0.00  0.00    -0.232 NA
ATOM     22  C   UNL     1      -4.777  -0.538   1.001  0.00  0.00    +0.036 A 
ATOM     23  C   UNL     1      -5.948  -0.865   1.589  0.00  0.00    +0.048 A 
ATOM     24  S   UNL     1      -5.422  -1.722   3.064  0.00  0.00    -0.090 S 
ENDBRANCH  13  14
ENDBRANCH   2  13
TORSDOF 3
