REMARK  Name = ZINC34789010
REMARK  10 active torsions:
REMARK  status: ('A' for Active; 'I' for Inactive)
REMARK    1  A    between atoms: C_1  and  C_2
REMARK    2  A    between atoms: C_5  and  N_8
REMARK    3  A    between atoms: N_16  and  C_19
REMARK    4  A    between atoms: C_19  and  C_20
REMARK    5  A    between atoms: N_22  and  C_23
REMARK    6  A    between atoms: C_23  and  C_25
REMARK    7  A    between atoms: C_23  and  C_26
REMARK    8  A    between atoms: C_26  and  C_27
REMARK    9  A    between atoms: C_35  and  C_37
REMARK   10  A    between atoms: C_35  and  C_38
REMARK                            x       y       z     vdW  Elec       q    Type
REMARK                         _______ _______ _______ _____ _____    ______ ____
ROOT
ATOM      1  N   UNL     1       0.059  -4.172  -0.021  0.00  0.00    -0.228 N 
ATOM      2  C   UNL     1       0.170  -4.831   1.146  0.00  0.00    +0.270 A 
ATOM      3  O   UNL     1       0.254  -4.218   2.194  0.00  0.00    -0.266 OA
ATOM      4  C   UNL     1       0.191  -6.310   1.141  0.00  0.00    +0.074 A 
ATOM      5  C   UNL     1       0.304  -7.226   2.272  0.00  0.00    -0.018 A 
ATOM      6  C   UNL     1       0.294  -8.536   1.947  0.00  0.00    +0.021 A 
ATOM      7  S   UNL     1       0.137  -8.560   0.188  0.00  0.00    -0.073 S 
ATOM      8  C   UNL     1       0.088  -6.916  -0.112  0.00  0.00    +0.098 A 
ATOM      9  N   UNL     1      -0.023  -6.165  -1.253  0.00  0.00    -0.278 N 
ATOM     10  C   UNL     1      -0.041  -4.821  -1.193  0.00  0.00    +0.338 A 
ATOM     11  O   UNL     1      -0.145  -4.179  -2.221  0.00  0.00    -0.246 OA
ATOM     12  C   UNL     1       0.398  -9.681   2.906  0.00  0.00    +0.203 C 
ATOM     13  O   UNL     1       0.831  -9.155   4.171  0.00  0.00    -0.368 OA
ATOM     14  C   UNL     1       0.088  -8.013   4.604  0.00  0.00    +0.068 C 
ATOM     15  C   UNL     1       0.425  -6.800   3.729  0.00  0.00    +0.071 C 
ATOM     16  C   UNL     1       0.439  -7.701   6.060  0.00  0.00    +0.041 C 
ATOM     17  C   UNL     1      -1.409  -8.312   4.499  0.00  0.00    +0.041 C 
ENDROOT
BRANCH   1  22
ATOM     18  C   UNL     1      -0.017   1.503   0.008  0.00  0.00    +0.044 C 
ATOM     19  C   UNL     1       0.003  -0.004   0.001  0.00  0.00    -0.050 A 
ATOM     20  C   UNL     1       1.206  -0.678  -0.110  0.00  0.00    +0.005 A 
ATOM     21  C   UNL     1       1.227  -2.059  -0.118  0.00  0.00    +0.026 A 
ATOM     22  C   UNL     1       0.040  -2.771  -0.013  0.00  0.00    +0.054 A 
ATOM     23  C   UNL     1      -1.166  -2.091   0.099  0.00  0.00    +0.026 A 
ATOM     24  C   UNL     1      -1.180  -0.710   0.110  0.00  0.00    +0.005 A 
ENDBRANCH   1  22
BRANCH   9  25
ATOM     25  C   UNL     1      -0.128  -6.834  -2.553  0.00  0.00    +0.223 C 
BRANCH  25  26
ATOM     26  C   UNL     1      -1.579  -7.083  -2.874  0.00  0.00    +0.233 C 
ATOM     27  O   UNL     1      -2.441  -6.737  -2.094  0.00  0.00    -0.274 OA
ATOM     28  N   UNL     1      -1.919  -7.691  -4.027  0.00  0.00    -0.311 N 
ATOM     29  H   UNL     1      -1.230  -7.968  -4.651  0.00  0.00    +0.149 HD
BRANCH  28  30
ATOM     30  C   UNL     1      -3.330  -7.934  -4.339  0.00  0.00    +0.074 C 
ATOM     31  C   UNL     1      -3.930  -6.686  -4.990  0.00  0.00    +0.028 C 
BRANCH  30  32
ATOM     32  C   UNL     1      -3.443  -9.117  -5.303  0.00  0.00    +0.057 C 
BRANCH  32  33
ATOM     33  C   UNL     1      -2.965 -10.371  -4.617  0.00  0.00    -0.046 A 
ATOM     34  C   UNL     1      -1.633 -10.732  -4.688  0.00  0.00    +0.004 A 
ATOM     35  C   UNL     1      -1.194 -11.882  -4.059  0.00  0.00    +0.000 A 
ATOM     36  C   UNL     1      -2.088 -12.671  -3.359  0.00  0.00    +0.000 A 
ATOM     37  C   UNL     1      -3.420 -12.310  -3.288  0.00  0.00    +0.000 A 
ATOM     38  C   UNL     1      -3.858 -11.157  -3.913  0.00  0.00    +0.004 A 
ENDBRANCH  32  33
ENDBRANCH  30  32
ENDBRANCH  28  30
ENDBRANCH  25  26
ENDBRANCH   9  25
TORSDOF 6
