REMARK  Name = ZINC00978161
REMARK  3 active torsions:
REMARK  status: ('A' for Active; 'I' for Inactive)
REMARK    1  A    between atoms: C_1  and  C_2
REMARK    2  A    between atoms: N_6  and  C_7
REMARK    3  A    between atoms: C_7  and  C_8
REMARK                            x       y       z     vdW  Elec       q    Type
REMARK                         _______ _______ _______ _____ _____    ______ ____
ROOT
ATOM      1  C   UNL     1      -1.245   2.218   0.020  0.00  0.00    +0.066 C 
ATOM      2  C   UNL     1      -0.016   1.346   0.009  0.00  0.00    +0.053 A 
ATOM      3  C   UNL     1       1.267   1.776  -0.001  0.00  0.00    +0.089 A 
ATOM      4  C   UNL     1       2.098   0.650  -0.015  0.00  0.00    +0.249 A 
ATOM      5  N   UNL     1       1.341  -0.417  -0.013  0.00  0.00    -0.145 NA
ATOM      6  N   UNL     1       0.002  -0.004   0.002  0.00  0.00    -0.256 N 
ATOM      7  N   UNL     1       3.578   0.663  -0.029  0.00  0.00    +0.078 N 
ATOM      8  O   UNL     1       4.197  -0.386  -0.042  0.00  0.00    -0.125 OA
ATOM      9  O   UNL     1       4.177   1.724  -0.030  0.00  0.00    -0.125 OA
ATOM     10 BR   UNL     1       1.837   3.579   0.003  0.00  0.00    -0.044 Br
ENDROOT
BRANCH   6  11
ATOM     11  C   UNL     1      -1.171  -0.882   0.008  0.00  0.00    +0.239 C 
BRANCH  11  12
ATOM     12  C   UNL     1      -1.586  -1.175  -1.411  0.00  0.00    +0.232 C 
ATOM     13  O   UNL     1      -0.963  -0.698  -2.336  0.00  0.00    -0.274 OA
ATOM     14  N   UNL     1      -2.649  -1.968  -1.652  0.00  0.00    -0.328 N 
ATOM     15  H   UNL     1      -3.147  -2.350  -0.912  0.00  0.00    +0.145 HD
ATOM     16  H   UNL     1      -2.916  -2.157  -2.565  0.00  0.00    +0.145 HD
ENDBRANCH  11  12
ENDBRANCH   6  11
TORSDOF 2
