REMARK  Name = ZINC63234392
REMARK  8 active torsions:
REMARK  status: ('A' for Active; 'I' for Inactive)
REMARK    1  A    between atoms: C_1  and  C_2
REMARK    2  A    between atoms: C_5  and  C_8
REMARK    3  A    between atoms: C_8  and  N_9
REMARK    4  A    between atoms: N_9  and  C_10
REMARK    5  A    between atoms: N_9  and  C_11
REMARK    6  A    between atoms: C_11  and  N_12
REMARK    7  A    between atoms: N_15  and  C_27
REMARK    8  A    between atoms: C_16  and  C_18
REMARK                            x       y       z     vdW  Elec       q    Type
REMARK                         _______ _______ _______ _____ _____    ______ ____
ROOT
ATOM      1  N   UNL     1       5.312  -4.597   0.078  0.00  0.00    -0.257 N 
ATOM      2  C   UNL     1       6.387  -4.230  -0.648  0.00  0.00    +0.181 A 
ATOM      3  S   UNL     1       6.564  -4.399  -2.342  0.00  0.00    -0.011 S 
ATOM      4  N   UNL     1       7.297  -3.705   0.196  0.00  0.00    -0.272 N 
ATOM      5  C   UNL     1       6.773  -3.748   1.481  0.00  0.00    +0.166 A 
ATOM      6  N   UNL     1       5.573  -4.280   1.418  0.00  0.00    -0.152 NA
ENDROOT
BRANCH   5   7
ATOM      7  C   UNL     1       7.416  -3.294   2.652  0.00  0.00    +0.025 C 
ATOM      8  C   UNL     1       6.896  -3.272   3.941  0.00  0.00    +0.006 A 
ATOM      9  C   UNL     1       5.647  -3.664   4.474  0.00  0.00    +0.010 A 
ATOM     10  C   UNL     1       5.409  -3.525   5.802  0.00  0.00    +0.001 A 
ATOM     11  C   UNL     1       6.372  -3.000   6.668  0.00  0.00    +0.002 A 
ATOM     12  C   UNL     1       7.590  -2.604   6.228  0.00  0.00    +0.026 A 
ATOM     13  C   UNL     1       7.915  -2.718   4.850  0.00  0.00    +0.043 A 
ATOM     14  N   UNL     1       9.007  -2.409   4.184  0.00  0.00    -0.380 N 
ATOM     15  C   UNL     1       8.817  -2.736   2.767  0.00  0.00    +0.152 C 
ATOM     16  H   UNL     1       9.812  -2.030   4.570  0.00  0.00    +0.160 HD
ENDBRANCH   5   7
BRANCH   4  17
ATOM     17  C   UNL     1       8.555  -3.204  -0.162  0.00  0.00    +0.051 A 
ATOM     18  C   UNL     1       9.656  -4.049  -0.199  0.00  0.00    +0.028 A 
ATOM     19  C   UNL     1      10.895  -3.552  -0.552  0.00  0.00    +0.022 A 
ATOM     20  C   UNL     1      11.041  -2.212  -0.867  0.00  0.00    +0.041 A 
ATOM     21  C   UNL     1       9.945  -1.368  -0.830  0.00  0.00    +0.022 A 
ATOM     22  C   UNL     1       8.703  -1.861  -0.485  0.00  0.00    +0.028 A 
ATOM     23 CL   UNL     1      12.600  -1.591  -1.310  0.00  0.00    -0.084 Cl
ENDBRANCH   4  17
BRANCH   1  24
ATOM     24  C   UNL     1       4.087  -5.212  -0.442  0.00  0.00    +0.071 C 
BRANCH  24  25
ATOM     25  N   UNL     1       3.011  -4.213  -0.466  0.00  0.00    +0.393 N 
ATOM     26  C   UNL     1       3.349  -3.151  -1.424  0.00  0.00    -0.093 C 
ATOM     27  H   UNL     1       2.901  -3.813   0.454  0.00  0.00    -0.079 HD
BRANCH  25  28
ATOM     28  C   UNL     1       1.754  -4.857  -0.873  0.00  0.00    -0.031 C 
BRANCH  28  33
ATOM     29  C   UNL     1      -0.886  -1.318  -3.030  0.00  0.00    +0.085 C 
ATOM     30  C   UNL     1      -0.560  -2.556  -2.236  0.00  0.00    +0.091 C 
ATOM     31  C   UNL     1      -1.466  -3.434  -1.865  0.00  0.00    +0.017 C 
ATOM     32  C   UNL     1      -0.751  -4.521  -1.080  0.00  0.00    +0.073 C 
ATOM     33  C   UNL     1       0.610  -3.846  -0.779  0.00  0.00    +0.160 C 
ATOM     34  O   UNL     1       0.694  -2.873  -1.841  0.00  0.00    -0.495 OA
ENDBRANCH  28  33
ENDBRANCH  25  28
ENDBRANCH  24  25
ENDBRANCH   1  24
TORSDOF 6
