REMARK  Name = ZINC08363316
REMARK  7 active torsions:
REMARK  status: ('A' for Active; 'I' for Inactive)
REMARK    1  A    between atoms: C_1  and  C_2
REMARK    2  A    between atoms: C_2  and  C_4
REMARK    3  A    between atoms: C_2  and  N_14
REMARK    4  A    between atoms: C_15  and  C_17
REMARK    5  A    between atoms: C_17  and  O_18
REMARK    6  A    between atoms: O_18  and  C_19
REMARK    7  A    between atoms: C_24  and  N_25
REMARK                            x       y       z     vdW  Elec       q    Type
REMARK                         _______ _______ _______ _____ _____    ______ ____
ROOT
ATOM      1  N   UNL     1      -4.657  -0.137  -0.860  0.00  0.00    -0.306 N 
ATOM      2  C   UNL     1      -5.660  -0.844  -1.419  0.00  0.00    +0.251 C 
ATOM      3  O   UNL     1      -5.762  -2.031  -1.195  0.00  0.00    -0.272 OA
ATOM      4  H   UNL     1      -4.575   0.813  -1.039  0.00  0.00    +0.149 HD
ENDROOT
BRANCH   1   6
ATOM      5  C   UNL     1      -4.250  -0.858   1.441  0.00  0.00    +0.033 C 
ATOM      6  C   UNL     1      -3.692  -0.803   0.018  0.00  0.00    +0.100 C 
BRANCH   6   7
ATOM      7  C   UNL     1      -2.397  -0.033   0.016  0.00  0.00    -0.024 A 
ATOM      8  C   UNL     1      -2.415   1.349   0.026  0.00  0.00    +0.009 A 
ATOM      9  C   UNL     1      -1.229   2.059   0.019  0.00  0.00    +0.050 A 
ATOM     10  C   UNL     1      -0.017   1.385   0.010  0.00  0.00    +0.162 A 
ATOM     11  C   UNL     1       0.002  -0.004   0.002  0.00  0.00    +0.162 A 
ATOM     12  C   UNL     1      -1.192  -0.710   0.004  0.00  0.00    +0.055 A 
ATOM     13  O   UNL     1       1.181  -0.685  -0.007  0.00  0.00    -0.485 OA
ATOM     14  C   UNL     1       2.347   0.053  -0.387  0.00  0.00    +0.270 C 
ATOM     15  C   UNL     1       2.334   1.392   0.364  0.00  0.00    +0.270 C 
ATOM     16  O   UNL     1       1.143   2.098   0.002  0.00  0.00    -0.485 OA
ENDBRANCH   6   7
ENDBRANCH   1   6
BRANCH   2  17
ATOM     17  C   UNL     1      -6.653  -0.158  -2.322  0.00  0.00    +0.324 C 
BRANCH  17  18
ATOM     18  O   UNL     1      -7.611  -1.111  -2.786  0.00  0.00    -0.480 OA
BRANCH  18  19
ATOM     19  C   UNL     1      -8.584  -0.653  -3.618  0.00  0.00    +0.151 A 
ATOM     20  C   UNL     1      -8.616   0.686  -3.978  0.00  0.00    +0.049 A 
ATOM     21  C   UNL     1      -9.605   1.150  -4.823  0.00  0.00    +0.024 A 
ATOM     22  C   UNL     1     -10.565   0.280  -5.309  0.00  0.00    +0.043 A 
ATOM     23  C   UNL     1     -10.535  -1.056  -4.950  0.00  0.00    +0.056 A 
ATOM     24  C   UNL     1      -9.543  -1.525  -4.111  0.00  0.00    +0.169 A 
ATOM     25 CL   UNL     1     -11.808   0.865  -6.370  0.00  0.00    -0.083 Cl
BRANCH  24  26
ATOM     26  N   UNL     1      -9.508  -2.955  -3.732  0.00  0.00    +0.060 N 
ATOM     27  O   UNL     1     -10.351  -3.721  -4.165  0.00  0.00    -0.126 OA
ATOM     28  O   UNL     1      -8.637  -3.367  -2.988  0.00  0.00    -0.126 OA
ENDBRANCH  24  26
ENDBRANCH  18  19
ENDBRANCH  17  18
ENDBRANCH   2  17
TORSDOF 6
