REMARK  Name = ZINC24290573
REMARK  5 active torsions:
REMARK  status: ('A' for Active; 'I' for Inactive)
REMARK    1  A    between atoms: N_9  and  C_12
REMARK    2  A    between atoms: C_12  and  C_13
REMARK    3  A    between atoms: C_13  and  C_14
REMARK    4  A    between atoms: N_16  and  N_17
REMARK    5  A    between atoms: C_18  and  C_20
REMARK                            x       y       z     vdW  Elec       q    Type
REMARK                         _______ _______ _______ _____ _____    ______ ____
ROOT
ATOM      1  C   UNL     1       4.225   5.802  -0.026  0.00  0.00    +0.231 C 
ATOM      2  O   UNL     1       5.153   5.020  -0.027  0.00  0.00    -0.274 OA
ATOM      3  N   UNL     1       2.958   5.343  -0.019  0.00  0.00    -0.234 N 
ATOM      4  H   UNL     1       2.117   6.052  -0.018  0.00  0.00    +0.173 HD
ENDROOT
BRANCH   3   5
ATOM      5  N   UNL     1       2.712   3.964  -0.012  0.00  0.00    -0.230 N 
ATOM      6  C   UNL     1       1.444   3.506  -0.005  0.00  0.00    +0.267 C 
ATOM      7  O   UNL     1       0.514   4.290  -0.004  0.00  0.00    -0.268 OA
ATOM      8  H   UNL     1       3.553   3.255  -0.013  0.00  0.00    +0.173 HD
BRANCH   6   9
ATOM      9  C   UNL     1       1.187   2.063   0.002  0.00  0.00    +0.076 A 
ATOM     10  C   UNL     1      -0.017   1.393   0.010  0.00  0.00    +0.024 A 
ATOM     11  C   UNL     1       0.002  -0.004   0.002  0.00  0.00    -0.036 A 
ATOM     12  C   UNL     1       1.210  -0.601   0.046  0.00  0.00    -0.006 A 
ATOM     13  S   UNL     1       2.348   0.711   0.002  0.00  0.00    -0.088 S 
ATOM     14  C   UNL     1       1.637  -2.039   0.187  0.00  0.00    +0.043 C 
ATOM     15  C   UNL     1       0.445  -2.988   0.319  0.00  0.00    +0.005 C 
ATOM     16  C   UNL     1      -0.170  -3.273  -1.042  0.00  0.00    +0.000 C 
ATOM     17  C   UNL     1      -0.179  -2.057  -1.947  0.00  0.00    +0.000 C 
ATOM     18  C   UNL     1      -1.430  -1.246  -1.597  0.00  0.00    +0.005 C 
ATOM     19  C   UNL     1      -1.314  -0.753  -0.155  0.00  0.00    +0.036 C 
ENDBRANCH   6   9
ENDBRANCH   3   5
BRANCH   1  20
ATOM     20  C   UNL     1       4.490   7.285  -0.033  0.00  0.00    +0.120 C 
BRANCH  20  21
ATOM     21  C   UNL     1       6.000   7.534  -0.041  0.00  0.00    +0.158 C 
BRANCH  21  30
ATOM     22  C   UNL     1       7.020  13.221   2.079  0.00  0.00    +0.001 A 
ATOM     23  C   UNL     1       7.120  13.812   0.826  0.00  0.00    +0.002 A 
ATOM     24  C   UNL     1       6.983  13.062  -0.320  0.00  0.00    +0.030 A 
ATOM     25  C   UNL     1       6.739  11.690  -0.226  0.00  0.00    +0.100 A 
ATOM     26  C   UNL     1       6.638  11.093   1.050  0.00  0.00    +0.068 A 
ATOM     27  C   UNL     1       6.779  11.870   2.198  0.00  0.00    +0.015 A 
ATOM     28  C   UNL     1       6.375   9.647   1.123  0.00  0.00    +0.278 A 
ATOM     29  O   UNL     1       6.272   9.076   2.193  0.00  0.00    -0.265 OA
ATOM     30  N   UNL     1       6.257   8.976  -0.047  0.00  0.00    -0.210 N 
ATOM     31  N   UNL     1       6.374   9.658  -1.261  0.00  0.00    -0.062 NA
ATOM     32  N   UNL     1       6.599  10.920  -1.334  0.00  0.00    -0.131 NA
ENDBRANCH  21  30
ENDBRANCH  20  21
ENDBRANCH   1  20
TORSDOF 5
