REMARK  Name = ZINC02099196
REMARK  4 active torsions:
REMARK  status: ('A' for Active; 'I' for Inactive)
REMARK    1  A    between atoms: C_1  and  C_2
REMARK    2  A    between atoms: C_2  and  O_4
REMARK    3  A    between atoms: O_4  and  C_5
REMARK    4  A    between atoms: C_8  and  N_11
REMARK                            x       y       z     vdW  Elec       q    Type
REMARK                         _______ _______ _______ _____ _____    ______ ____
ROOT
ATOM      1  N   UNL     1       0.360  -6.168  -0.684  0.00  0.00    -0.210 N 
ATOM      2  C   UNL     1       0.255  -6.800   0.490  0.00  0.00    +0.228 C 
ATOM      3  O   UNL     1       0.072  -6.262   1.561  0.00  0.00    -0.275 OA
ATOM      4  C   UNL     1       0.399  -8.289   0.273  0.00  0.00    +0.074 C 
ATOM      5  C   UNL     1      -0.945  -8.981   0.570  0.00  0.00    -0.054 C 
ATOM      6  C   UNL     1      -1.762  -8.108   1.539  0.00  0.00    -0.016 C 
ATOM      7  C   UNL     1      -2.615  -7.187   0.644  0.00  0.00    -0.020 C 
ATOM      8  C   UNL     1      -2.227  -7.558  -0.801  0.00  0.00    -0.076 C 
ATOM      9  N   UNL     1      -1.690  -8.964  -0.726  0.00  0.00    +0.395 N 
ATOM     10  C   UNL     1      -0.653  -9.164  -1.752  0.00  0.00    +0.053 C 
ATOM     11  C   UNL     1       0.606  -8.410  -1.261  0.00  0.00    +0.089 C 
ATOM     12  C   UNL     1       0.554  -6.974  -1.734  0.00  0.00    +0.229 C 
ATOM     13  O   UNL     1       0.672  -6.611  -2.885  0.00  0.00    -0.275 OA
ATOM     14  C   UNL     1      -0.364 -10.622  -1.969  0.00  0.00    -0.026 A 
ATOM     15  C   UNL     1       0.079 -11.633  -1.145  0.00  0.00    +0.019 A 
ATOM     16  C   UNL     1       0.254 -12.911  -1.649  0.00  0.00    +0.018 A 
ATOM     17  C   UNL     1      -0.016 -13.168  -2.982  0.00  0.00    +0.017 A 
ATOM     18  C   UNL     1      -0.460 -12.158  -3.809  0.00  0.00    +0.024 A 
ATOM     19  C   UNL     1      -0.639 -10.870  -3.310  0.00  0.00    +0.036 A 
ATOM     20  N   UNL     1      -1.070  -9.700  -3.939  0.00  0.00    -0.286 N 
ATOM     21  C   UNL     1      -1.107  -8.653  -3.094  0.00  0.00    +0.212 C 
ATOM     22  O   UNL     1      -1.440  -7.518  -3.361  0.00  0.00    -0.277 OA
ATOM     23 BR   UNL     1       0.863 -14.300  -0.520  0.00  0.00    -0.050 Br
ATOM     24  H   UNL     1      -1.316  -9.648  -4.876  0.00  0.00    +0.155 HD
ATOM     25  H   UNL     1      -2.418  -9.661  -0.762  0.00  0.00    -0.079 HD
ENDROOT
BRANCH   1  29
ATOM     26  C   UNL     1       0.086  -2.021  -1.045  0.00  0.00    +0.132 A 
ATOM     27  C   UNL     1      -0.903  -2.830  -1.584  0.00  0.00    +0.048 A 
ATOM     28  C   UNL     1      -0.813  -4.203  -1.465  0.00  0.00    +0.027 A 
ATOM     29  C   UNL     1       0.268  -4.773  -0.806  0.00  0.00    +0.044 A 
ATOM     30  C   UNL     1       1.258  -3.962  -0.267  0.00  0.00    +0.027 A 
ATOM     31  C   UNL     1       1.169  -2.590  -0.391  0.00  0.00    +0.048 A 
BRANCH  26  32
ATOM     32  O   UNL     1      -0.003  -0.669  -1.163  0.00  0.00    -0.426 OA
BRANCH  32  34
ATOM     33  C   UNL     1      -0.910   1.485  -0.367  0.00  0.00    +0.136 C 
ATOM     34  C   UNL     1      -0.856  -0.021  -0.353  0.00  0.00    +0.309 C 
ATOM     35  O   UNL     1      -1.580  -0.645   0.386  0.00  0.00    -0.251 OA
ENDBRANCH  32  34
ENDBRANCH  26  32
ENDBRANCH   1  29
TORSDOF 3
