REMARK  Name = ZINC04860766
REMARK  8 active torsions:
REMARK  status: ('A' for Active; 'I' for Inactive)
REMARK    1  A    between atoms: C_1  and  C_2
REMARK    2  A    between atoms: C_2  and  C_4
REMARK    3  A    between atoms: C_6  and  C_18
REMARK    4  A    between atoms: C_8  and  C_16
REMARK    5  A    between atoms: C_10  and  O_15
REMARK    6  A    between atoms: C_12  and  C_13
REMARK    7  A    between atoms: C_12  and  O_14
REMARK    8  A    between atoms: C_22  and  N_24
REMARK                            x       y       z     vdW  Elec       q    Type
REMARK                         _______ _______ _______ _____ _____    ______ ____
ROOT
ATOM      1  C   UNL     1      -0.018  -0.834  -1.125  0.00  0.00    +0.118 C 
ATOM      2  C   UNL     1      -0.805  -2.143  -0.975  0.00  0.00    +0.060 C 
ATOM      3  C   UNL     1      -0.196  -2.937   0.184  0.00  0.00    +0.184 C 
ATOM      4  C   UNL     1       1.298  -2.983   0.042  0.00  0.00    +0.203 C 
ATOM      5  N   UNL     1       1.972  -2.211  -0.713  0.00  0.00    -0.219 NA
ATOM      6  C   UNL     1       1.407  -1.174  -1.567  0.00  0.00    +0.168 C 
ATOM      7  C   UNL     1       2.275   0.083  -1.479  0.00  0.00    +0.069 C 
ENDROOT
BRANCH   2   8
ATOM      8  C   UNL     1      -2.250  -1.837  -0.679  0.00  0.00    -0.040 A 
ATOM      9  C   UNL     1      -2.885  -0.798  -1.333  0.00  0.00    +0.004 A 
ATOM     10  C   UNL     1      -4.211  -0.517  -1.061  0.00  0.00    +0.002 A 
ATOM     11  C   UNL     1      -4.902  -1.275  -0.135  0.00  0.00    +0.033 A 
ATOM     12  C   UNL     1      -4.268  -2.315   0.519  0.00  0.00    +0.126 A 
ATOM     13  C   UNL     1      -2.943  -2.598   0.244  0.00  0.00    +0.036 A 
BRANCH  12  14
ATOM     14  N   UNL     1      -5.008  -3.126   1.511  0.00  0.00    +0.056 N 
ATOM     15  O   UNL     1      -6.167  -2.880   1.750  0.00  0.00    -0.126 OA
ATOM     16  O   UNL     1      -4.453  -4.035   2.083  0.00  0.00    -0.126 OA
ENDBRANCH  12  14
ENDBRANCH   2   8
BRANCH   1  18
ATOM     17  C   UNL     1      -1.067   0.872   0.549  0.00  0.00    +0.086 C 
ATOM     18  C   UNL     1       0.019  -0.111   0.197  0.00  0.00    +0.139 C 
ATOM     19  O   UNL     1       0.920  -0.320   0.974  0.00  0.00    -0.297 OA
ENDBRANCH   1  18
BRANCH   6  20
ATOM     20  O   UNL     1       1.383  -1.636  -2.919  0.00  0.00    -0.368 OA
ATOM     21  H   UNL     1       2.253  -1.871  -3.269  0.00  0.00    +0.212 HD
ENDBRANCH   6  20
BRANCH   4  22
ATOM     22  O   UNL     1       1.971  -3.903   0.764  0.00  0.00    -0.495 OA
ATOM     23  H   UNL     1       2.929  -3.883   0.631  0.00  0.00    +0.293 HD
ENDBRANCH   4  22
BRANCH   3  24
ATOM     24  C   UNL     1      -0.545  -2.288   1.458  0.00  0.00    +0.076 C 
ATOM     25  N   UNL     1      -0.814  -1.786   2.441  0.00  0.00    -0.196 NA
ENDBRANCH   3  24
TORSDOF 6
