REMARK  Name = ZINC59595778
REMARK  11 active torsions:
REMARK  status: ('A' for Active; 'I' for Inactive)
REMARK    1  A    between atoms: C_1  and  C_2
REMARK    2  A    between atoms: C_2  and  O_3
REMARK    3  A    between atoms: O_3  and  C_4
REMARK    4  A    between atoms: C_7  and  N_10
REMARK    5  A    between atoms: C_14  and  C_15
REMARK    6  A    between atoms: C_17  and  C_31
REMARK    7  A    between atoms: N_18  and  C_21
REMARK    8  A    between atoms: C_19  and  C_20
REMARK    9  A    between atoms: C_24  and  N_28
REMARK   10  A    between atoms: C_26  and  C_27
REMARK   11  A    between atoms: N_34  and  C_37
REMARK                            x       y       z     vdW  Elec       q    Type
REMARK                         _______ _______ _______ _____ _____    ______ ____
ROOT
ATOM      1  N   UNL     1      -2.033  -5.961   0.519  0.00  0.00    -0.217 N 
ATOM      2  C   UNL     1      -3.224  -6.510   0.203  0.00  0.00    +0.262 C 
ATOM      3  O   UNL     1      -4.109  -5.840  -0.296  0.00  0.00    -0.269 OA
ATOM      4  C   UNL     1      -3.425  -7.945   0.478  0.00  0.00    +0.100 C 
ATOM      5  C   UNL     1      -4.620  -8.578   0.180  0.00  0.00    +0.028 C 
ATOM      6  C   UNL     1      -2.296  -8.677   1.083  0.00  0.00    +0.257 C 
ATOM      7  O   UNL     1      -2.385  -9.863   1.338  0.00  0.00    -0.269 OA
ATOM      8  N   UNL     1      -1.162  -7.995   1.345  0.00  0.00    -0.252 N 
ATOM      9  C   UNL     1      -1.048  -6.689   1.063  0.00  0.00    +0.153 C 
ATOM     10  S   UNL     1       0.432  -5.909   1.423  0.00  0.00    -0.017 S 
ATOM     11  C   UNL     1      -0.027  -8.699   1.946  0.00  0.00    +0.140 C 
ENDROOT
BRANCH   5  12
ATOM     12  C   UNL     1      -4.718  -9.987   0.275  0.00  0.00    -0.003 A 
ATOM     13  C   UNL     1      -3.744 -10.977  -0.207  0.00  0.00    +0.031 A 
ATOM     14  C   UNL     1      -4.248 -12.184   0.096  0.00  0.00    +0.022 A 
ATOM     15  N   UNL     1      -5.453 -12.025   0.725  0.00  0.00    -0.317 N 
ATOM     16  C   UNL     1      -5.749 -10.717   0.847  0.00  0.00    +0.028 A 
ATOM     17  C   UNL     1      -6.988 -10.146   1.489  0.00  0.00    +0.064 C 
ATOM     18  C   UNL     1      -3.592 -13.506  -0.209  0.00  0.00    +0.064 C 
BRANCH  15  19
ATOM     19  C   UNL     1      -6.261 -13.074   1.182  0.00  0.00    +0.050 A 
ATOM     20  C   UNL     1      -6.107 -13.559   2.474  0.00  0.00    +0.028 A 
ATOM     21  C   UNL     1      -6.906 -14.592   2.922  0.00  0.00    +0.035 A 
ATOM     22  C   UNL     1      -7.858 -15.145   2.085  0.00  0.00    +0.127 A 
ATOM     23  C   UNL     1      -8.013 -14.665   0.798  0.00  0.00    +0.038 A 
ATOM     24  C   UNL     1      -7.221 -13.627   0.346  0.00  0.00    -0.024 A 
ATOM     25  C   UNL     1      -7.396 -13.101  -1.055  0.00  0.00    +0.046 C 
BRANCH  22  26
ATOM     26  N   UNL     1      -8.712 -16.254   2.568  0.00  0.00    +0.056 N 
ATOM     27  O   UNL     1      -8.576 -16.675   3.694  0.00  0.00    -0.126 OA
ATOM     28  O   UNL     1      -9.544 -16.738   1.838  0.00  0.00    -0.126 OA
ENDBRANCH  22  26
ENDBRANCH  15  19
ENDBRANCH   5  12
BRANCH   1  32
ATOM     29  C   UNL     1      -1.397  -1.908  -0.231  0.00  0.00    +0.121 A 
ATOM     30  C   UNL     1      -1.085  -2.850  -1.201  0.00  0.00    +0.047 A 
ATOM     31  C   UNL     1      -1.295  -4.192  -0.953  0.00  0.00    +0.027 A 
ATOM     32  C   UNL     1      -1.819  -4.598   0.267  0.00  0.00    +0.043 A 
ATOM     33  C   UNL     1      -2.130  -3.655   1.237  0.00  0.00    +0.027 A 
ATOM     34  C   UNL     1      -1.915  -2.314   0.990  0.00  0.00    +0.047 A 
BRANCH  29  35
ATOM     35  O   UNL     1      -1.189  -0.587  -0.476  0.00  0.00    -0.492 OA
BRANCH  35  37
ATOM     36  C   UNL     1      -0.490   1.279  -1.844  0.00  0.00    +0.048 C 
ATOM     37  C   UNL     1      -0.653  -0.240  -1.754  0.00  0.00    +0.225 C 
ENDBRANCH  35  37
ENDBRANCH  29  35
ENDBRANCH   1  32
TORSDOF 6
