REMARK  Name = ZINC14240952
REMARK  7 active torsions:
REMARK  status: ('A' for Active; 'I' for Inactive)
REMARK    1  A    between atoms: C_1  and  C_2
REMARK    2  A    between atoms: C_5  and  S_10
REMARK    3  A    between atoms: N_6  and  C_7
REMARK    4  A    between atoms: S_10  and  C_11
REMARK    5  A    between atoms: C_11  and  C_12
REMARK    6  A    between atoms: C_15  and  C_31
REMARK    7  A    between atoms: C_23  and  C_24
REMARK                            x       y       z     vdW  Elec       q    Type
REMARK                         _______ _______ _______ _____ _____    ______ ____
ROOT
ATOM      1  C   UNL     1      -5.473   5.209   1.627  0.00  0.00    +0.246 C 
ATOM      2  O   UNL     1      -6.042   6.253   1.872  0.00  0.00    -0.273 OA
ATOM      3  N   UNL     1      -4.131   5.133   1.730  0.00  0.00    -0.184 N 
ATOM      4  C   UNL     1      -3.221   6.229   2.139  0.00  0.00    +0.146 C 
ATOM      5  C   UNL     1      -1.887   5.751   1.542  0.00  0.00    +0.067 C 
ATOM      6  C   UNL     1      -0.716   5.993   2.497  0.00  0.00    +0.012 C 
ATOM      7  C   UNL     1       0.526   5.332   1.903  0.00  0.00    +0.005 C 
ATOM      8  C   UNL     1       0.403   3.828   1.771  0.00  0.00    +0.037 C 
ATOM      9  C   UNL     1      -0.987   3.347   1.484  0.00  0.00    -0.023 C 
ATOM     10  C   UNL     1      -1.196   2.038   1.211  0.00  0.00    +0.020 C 
ATOM     11  C   UNL     1      -2.080   4.240   1.488  0.00  0.00    +0.068 C 
ATOM     12  N   UNL     1      -3.347   4.000   1.479  0.00  0.00    -0.181 NA
ENDROOT
BRANCH  10  13
ATOM     13  C   UNL     1      -0.071   1.104   1.199  0.00  0.00    +0.012 A 
ATOM     14  C   UNL     1      -0.068  -0.260   0.946  0.00  0.00    +0.015 A 
ATOM     15  C   UNL     1       1.132  -0.928   0.988  0.00  0.00    +0.008 A 
ATOM     16  C   UNL     1       2.269  -0.239   1.272  0.00  0.00    +0.046 A 
ATOM     17  S   UNL     1       1.660   1.424   1.496  0.00  0.00    -0.097 S 
ENDBRANCH  10  13
BRANCH   4  18
ATOM     18  C   UNL     1      -3.652   7.535   1.522  0.00  0.00    +0.013 A 
ATOM     19  C   UNL     1      -3.537   8.792   2.015  0.00  0.00    +0.013 A 
ATOM     20  C   UNL     1      -4.005   9.853   1.264  0.00  0.00    +0.008 A 
ATOM     21  C   UNL     1      -4.576   9.605   0.060  0.00  0.00    +0.045 A 
ATOM     22  S   UNL     1      -4.455   7.827  -0.046  0.00  0.00    -0.100 S 
ENDBRANCH   4  18
BRANCH   1  23
ATOM     23  C   UNL     1      -6.267   3.998   1.209  0.00  0.00    +0.175 C 
BRANCH  23  24
ATOM     24  S   UNL     1      -8.028   4.417   1.166  0.00  0.00    -0.077 S 
BRANCH  24  29
ATOM     25  C   UNL     1     -11.293   0.473  -0.260  0.00  0.00    +0.088 C 
ATOM     26  C   UNL     1     -10.058   1.267   0.081  0.00  0.00    +0.131 A 
ATOM     27  N   UNL     1      -8.831   0.829   0.070  0.00  0.00    -0.134 NA
ATOM     28  N   UNL     1      -8.024   1.769   0.412  0.00  0.00    -0.122 NA
ATOM     29  C   UNL     1      -8.698   2.867   0.662  0.00  0.00    +0.192 A 
ATOM     30  N   UNL     1     -10.018   2.579   0.464  0.00  0.00    -0.303 N 
BRANCH  30  31
ATOM     31  C   UNL     1     -11.155   3.489   0.626  0.00  0.00    +0.091 C 
ATOM     32  C   UNL     1     -10.859   4.989   0.673  0.00  0.00    +0.027 C 
ATOM     33  C   UNL     1     -11.269   4.250   1.948  0.00  0.00    +0.027 C 
ENDBRANCH  30  31
ENDBRANCH  24  29
ENDBRANCH  23  24
ENDBRANCH   1  23
TORSDOF 6
