REMARK  Name = ZINC01619814
REMARK  0 active torsions:
REMARK  status: ('A' for Active; 'I' for Inactive)
REMARK                            x       y       z     vdW  Elec       q    Type
REMARK                         _______ _______ _______ _____ _____    ______ ____
ROOT
ATOM      1  C   UNL     1       3.175   0.628  -0.784  0.00  0.00    +0.000 C 
ATOM      2  C   UNL     1       2.159   1.714  -1.259  0.00  0.00    +0.001 C 
ATOM      3  C   UNL     1       1.388   2.138   0.000  0.00  0.00    +0.013 C 
ATOM      4  C   UNL     1      -0.019   1.554   0.011  0.00  0.00    +0.080 C 
ATOM      5  C   UNL     1       0.002  -0.004   0.002  0.00  0.00    +0.024 C 
ATOM      6  C   UNL     1       1.328  -0.477   0.552  0.00  0.00    +0.006 C 
ATOM      7  C   UNL     1       2.374  -0.611  -0.529  0.00  0.00    +0.000 C 
ATOM      8  C   UNL     1      -1.142  -0.344   0.973  0.00  0.00    +0.038 C 
ATOM      9  C   UNL     1      -0.773  -1.575   1.798  0.00  0.00    +0.026 C 
ATOM     10  C   UNL     1      -1.912  -1.901   2.766  0.00  0.00    +0.002 C 
ATOM     11  C   UNL     1      -3.193  -2.170   1.974  0.00  0.00    +0.000 C 
ATOM     12  C   UNL     1      -3.563  -0.926   1.163  0.00  0.00    +0.002 C 
ATOM     13  C   UNL     1      -2.428  -0.597   0.190  0.00  0.00    +0.026 C 
ATOM     14  N   UNL     1      -1.298   0.824   1.842  0.00  0.00    -0.309 N 
ATOM     15  C   UNL     1      -0.695   1.904   1.318  0.00  0.00    +0.217 C 
ATOM     16  O   UNL     1      -0.693   3.007   1.823  0.00  0.00    -0.275 OA
ATOM     17  H   UNL     1      -1.774   0.819   2.686  0.00  0.00    +0.149 HD
ENDROOT
TORSDOF 0
