REMARK  Name = ZINC38814721
REMARK  4 active torsions:
REMARK  status: ('A' for Active; 'I' for Inactive)
REMARK    1  A    between atoms: C_9  and  O_30
REMARK    2  A    between atoms: C_10  and  C_11
REMARK    3  A    between atoms: N_12  and  N_13
REMARK    4  A    between atoms: C_14  and  C_16
REMARK                            x       y       z     vdW  Elec       q    Type
REMARK                         _______ _______ _______ _____ _____    ______ ____
ROOT
ATOM      1  N   UNL     1       6.103  -1.935  -0.372  0.00  0.00    -0.205 N 
ATOM      2  C   UNL     1       7.263  -2.586  -0.591  0.00  0.00    +0.263 C 
ATOM      3  O   UNL     1       8.317  -1.990  -0.510  0.00  0.00    -0.271 OA
ATOM      4  H   UNL     1       5.266  -2.425  -0.365  0.00  0.00    +0.177 HD
ENDROOT
BRANCH   2   5
ATOM      5  C   UNL     1       7.250  -4.053  -0.937  0.00  0.00    +0.243 C 
ATOM      6  C   UNL     1       7.111  -4.249  -2.418  0.00  0.00    -0.007 C 
ATOM      7  C   UNL     1       8.250  -4.886  -2.789  0.00  0.00    +0.095 C 
ATOM      8  C   UNL     1       8.463  -5.233  -4.217  0.00  0.00    +0.005 A 
ATOM      9  C   UNL     1       9.458  -6.115  -4.611  0.00  0.00    +0.010 A 
ATOM     10  C   UNL     1       9.597  -6.433  -5.949  0.00  0.00    +0.001 A 
ATOM     11  C   UNL     1       8.743  -5.873  -6.882  0.00  0.00    +0.000 A 
ATOM     12  C   UNL     1       7.759  -4.983  -6.492  0.00  0.00    +0.004 A 
ATOM     13  C   UNL     1       7.619  -4.642  -5.160  0.00  0.00    -0.038 A 
ATOM     14  C   UNL     1       6.601  -3.611  -4.754  0.00  0.00    +0.040 C 
ATOM     15  C   UNL     1       6.013  -3.890  -3.371  0.00  0.00    +0.040 C 
ATOM     16  N   UNL     1       9.031  -5.096  -1.709  0.00  0.00    -0.153 NA
ATOM     17  N   UNL     1       8.559  -4.670  -0.642  0.00  0.00    -0.170 NA
ENDBRANCH   2   5
BRANCH   1  19
ATOM     18  C   UNL     1       4.982   0.090  -0.035  0.00  0.00    +0.142 C 
ATOM     19  N   UNL     1       6.106  -0.551  -0.155  0.00  0.00    -0.188 NA
BRANCH  18  29
ATOM     20  C   UNL     1       3.030  -3.672   2.901  0.00  0.00    +0.001 A 
ATOM     21  C   UNL     1       4.245  -2.991   2.882  0.00  0.00    +0.001 A 
ATOM     22  C   UNL     1       4.485  -2.015   1.962  0.00  0.00    +0.009 A 
ATOM     23  C   UNL     1       3.499  -1.691   1.023  0.00  0.00    -0.006 A 
ATOM     24  C   UNL     1       2.263  -2.382   1.039  0.00  0.00    -0.017 A 
ATOM     25  C   UNL     1       2.049  -3.383   2.002  0.00  0.00    +0.008 A 
ATOM     26  C   UNL     1       1.274  -2.056   0.094  0.00  0.00    +0.012 A 
ATOM     27  C   UNL     1       1.491  -1.086  -0.834  0.00  0.00    +0.046 A 
ATOM     28  C   UNL     1       2.691  -0.379  -0.890  0.00  0.00    +0.126 A 
ATOM     29  C   UNL     1       3.715  -0.651   0.018  0.00  0.00    +0.044 A 
BRANCH  28  30
ATOM     30  O   UNL     1       2.865   0.581  -1.834  0.00  0.00    -0.506 OA
ATOM     31  H   UNL     1       2.515   1.447  -1.583  0.00  0.00    +0.292 HD
ENDBRANCH  28  30
ENDBRANCH  18  29
ENDBRANCH   1  19
TORSDOF 4
