REMARK  Name = ZINC42791109
REMARK  5 active torsions:
REMARK  status: ('A' for Active; 'I' for Inactive)
REMARK    1  A    between atoms: C_1  and  C_2
REMARK    2  A    between atoms: C_2  and  C_4
REMARK    3  A    between atoms: C_2  and  N_13
REMARK    4  A    between atoms: N_13  and  C_14
REMARK    5  A    between atoms: C_14  and  C_15
REMARK                            x       y       z     vdW  Elec       q    Type
REMARK                         _______ _______ _______ _____ _____    ______ ____
ROOT
ATOM      1  N   UNL     1      -1.376  -0.512   0.012  0.00  0.00    +0.386 N 
ATOM      2  H   UNL     1      -1.363  -1.518   0.090  0.00  0.00    -0.085 HD
ATOM      3  H   UNL     1      -1.873  -0.121   0.799  0.00  0.00    -0.085 HD
ENDROOT
BRANCH   1   5
ATOM      4  C   UNL     1      -0.019   1.526   0.010  0.00  0.00    -0.009 C 
ATOM      5  C   UNL     1       0.002  -0.004   0.002  0.00  0.00    -0.043 C 
BRANCH   5   6
ATOM      6  C   UNL     1       0.731  -0.503   1.223  0.00  0.00    -0.058 A 
ATOM      7  C   UNL     1       0.079  -0.558   2.441  0.00  0.00    +0.006 A 
ATOM      8  C   UNL     1       0.744  -1.016   3.564  0.00  0.00    +0.050 A 
ATOM      9  C   UNL     1       2.065  -1.420   3.470  0.00  0.00    +0.166 A 
ATOM     10  C   UNL     1       2.722  -1.365   2.243  0.00  0.00    +0.166 A 
ATOM     11  C   UNL     1       2.048  -0.911   1.121  0.00  0.00    +0.051 A 
ATOM     12  O   UNL     1       4.000  -1.813   2.412  0.00  0.00    -0.453 OA
ATOM     13  C   UNL     1       4.243  -1.757   3.830  0.00  0.00    +0.466 C 
ATOM     14  O   UNL     1       2.932  -1.903   4.408  0.00  0.00    -0.453 OA
ENDBRANCH   5   6
ENDBRANCH   1   5
BRANCH   1  15
ATOM     15  C   UNL     1      -2.050  -0.126  -1.234  0.00  0.00    -0.042 C 
BRANCH  15  16
ATOM     16  C   UNL     1      -3.464  -0.648  -1.224  0.00  0.00    -0.019 A 
ATOM     17  C   UNL     1      -3.777  -1.806  -1.909  0.00  0.00    +0.005 A 
ATOM     18  C   UNL     1      -5.073  -2.288  -1.902  0.00  0.00    +0.004 A 
ATOM     19  C   UNL     1      -6.060  -1.611  -1.210  0.00  0.00    +0.049 A 
ATOM     20  C   UNL     1      -5.753  -0.447  -0.521  0.00  0.00    +0.162 A 
ATOM     21  C   UNL     1      -4.448   0.032  -0.522  0.00  0.00    +0.163 A 
ATOM     22  O   UNL     1      -4.121   1.165   0.159  0.00  0.00    -0.485 OA
ATOM     23  C   UNL     1      -5.204   2.020   0.541  0.00  0.00    +0.270 C 
ATOM     24  C   UNL     1      -6.312   1.151   1.150  0.00  0.00    +0.270 C 
ATOM     25  O   UNL     1      -6.736   0.210   0.153  0.00  0.00    -0.485 OA
ENDBRANCH  15  16
ENDBRANCH   1  15
TORSDOF 4
