REMARK  Name = ZINC61361842
REMARK  5 active torsions:
REMARK  status: ('A' for Active; 'I' for Inactive)
REMARK    1  A    between atoms: C_1  and  C_2
REMARK    2  A    between atoms: C_11  and  N_13
REMARK    3  A    between atoms: N_13  and  C_14
REMARK    4  A    between atoms: C_14  and  C_16
REMARK    5  A    between atoms: C_14  and  C_17
REMARK                            x       y       z     vdW  Elec       q    Type
REMARK                         _______ _______ _______ _____ _____    ______ ____
ROOT
ATOM      1  C   UNL     1       0.110   1.775   0.599  0.00  0.00    +0.046 C 
ATOM      2  C   UNL     1       0.071   0.281   0.407  0.00  0.00    -0.028 A 
ATOM      3  C   UNL     1       0.025  -0.249  -0.866  0.00  0.00    +0.020 A 
ATOM      4  C   UNL     1      -0.012  -1.619  -1.053  0.00  0.00    +0.019 A 
ATOM      5  C   UNL     1      -0.002  -2.464   0.045  0.00  0.00    +0.022 A 
ATOM      6  C   UNL     1       0.044  -1.938   1.316  0.00  0.00    +0.001 A 
ATOM      7  C   UNL     1       0.087  -0.563   1.516  0.00  0.00    +0.042 A 
ATOM      8  N   UNL     1       0.136  -0.276   2.881  0.00  0.00    -0.283 N 
ATOM      9  C   UNL     1       0.135  -1.388   3.635  0.00  0.00    +0.239 C 
ATOM     10  O   UNL     1       0.171  -1.436   4.846  0.00  0.00    -0.273 OA
ATOM     11  C   UNL     1       0.067  -2.568   2.689  0.00  0.00    +0.174 C 
ATOM     12 BR   UNL     1      -0.076  -2.337  -2.801  0.00  0.00    -0.050 Br
ATOM     13  H   UNL     1       0.168   0.624   3.243  0.00  0.00    +0.155 HD
ENDROOT
BRANCH  11  14
ATOM     14  N   UNL     1      -1.154  -3.354   2.914  0.00  0.00    -0.295 NA
ATOM     15  H   UNL     1      -1.417  -3.341   3.888  0.00  0.00    +0.124 HD
BRANCH  14  16
ATOM     16  C   UNL     1      -0.989  -4.732   2.432  0.00  0.00    +0.082 C 
ATOM     17  C   UNL     1      -0.366  -5.588   3.536  0.00  0.00    +0.029 C 
BRANCH  16  18
ATOM     18  C   UNL     1      -2.335  -5.297   2.057  0.00  0.00    -0.024 A 
ATOM     19  C   UNL     1      -2.474  -6.090   0.933  0.00  0.00    +0.013 A 
ATOM     20  C   UNL     1      -3.698  -6.582   0.624  0.00  0.00    +0.045 A 
ATOM     21  S   UNL     1      -4.705  -5.923   1.942  0.00  0.00    -0.105 S 
ATOM     22  C   UNL     1      -3.425  -5.040   2.819  0.00  0.00    +0.050 A 
ENDBRANCH  16  18
ENDBRANCH  14  16
ENDBRANCH  11  14
TORSDOF 3
