REMARK  Name = ZINC02704183
REMARK  5 active torsions:
REMARK  status: ('A' for Active; 'I' for Inactive)
REMARK    1  A    between atoms: C_1  and  C_2
REMARK    2  A    between atoms: N_15  and  C_25
REMARK    3  A    between atoms: C_16  and  C_18
REMARK    4  A    between atoms: C_21  and  O_24
REMARK    5  A    between atoms: C_25  and  C_26
REMARK                            x       y       z     vdW  Elec       q    Type
REMARK                         _______ _______ _______ _____ _____    ______ ____
ROOT
ATOM      1  C   UNL     1       2.734   5.626   0.009  0.00  0.00    +0.044 C 
ATOM      2  C   UNL     1       2.623   4.123   0.002  0.00  0.00    -0.050 A 
ATOM      3  C   UNL     1       3.773   3.346  -0.013  0.00  0.00    +0.007 A 
ATOM      4  C   UNL     1       3.695   1.970  -0.021  0.00  0.00    +0.047 A 
ATOM      5  C   UNL     1       2.451   1.346  -0.013  0.00  0.00    +0.139 A 
ATOM      6  C   UNL     1       1.292   2.142   0.001  0.00  0.00    +0.065 A 
ATOM      7  C   UNL     1       1.390   3.532   0.009  0.00  0.00    +0.018 A 
ATOM      8  C   UNL     1      -0.018   1.462   0.010  0.00  0.00    +0.199 A 
ATOM      9  O   UNL     1      -1.063   2.087   0.018  0.00  0.00    -0.287 OA
ATOM     10  C   UNL     1       0.002  -0.004   0.002  0.00  0.00    +0.072 A 
ATOM     11  C   UNL     1       1.187  -0.663  -0.013  0.00  0.00    +0.199 A 
ATOM     12  O   UNL     1       2.357   0.005  -0.020  0.00  0.00    -0.450 OA
ATOM     13  C   UNL     1       0.910  -2.121  -0.018  0.00  0.00    +0.283 C 
ATOM     14  O   UNL     1       1.759  -2.990  -0.031  0.00  0.00    -0.267 OA
ATOM     15  N   UNL     1      -0.416  -2.343  -0.007  0.00  0.00    -0.279 N 
ATOM     16  C   UNL     1      -1.092  -1.040   0.006  0.00  0.00    +0.145 C 
ENDROOT
BRANCH  16  17
ATOM     17  C   UNL     1      -1.932  -0.902   1.250  0.00  0.00    -0.022 A 
ATOM     18  C   UNL     1      -1.474  -1.410   2.452  0.00  0.00    +0.009 A 
ATOM     19  C   UNL     1      -2.239  -1.280   3.595  0.00  0.00    +0.046 A 
ATOM     20  C   UNL     1      -3.474  -0.649   3.533  0.00  0.00    +0.117 A 
ATOM     21  C   UNL     1      -3.933  -0.146   2.325  0.00  0.00    +0.046 A 
ATOM     22  C   UNL     1      -3.162  -0.274   1.187  0.00  0.00    +0.009 A 
BRANCH  20  23
ATOM     23  O   UNL     1      -4.231  -0.525   4.655  0.00  0.00    -0.507 OA
ATOM     24  H   UNL     1      -4.837  -1.264   4.804  0.00  0.00    +0.292 HD
ENDBRANCH  20  23
ENDBRANCH  16  17
BRANCH  15  25
ATOM     25  C   UNL     1      -1.071  -3.653  -0.009  0.00  0.00    +0.144 C 
BRANCH  25  26
ATOM     26  C   UNL     1      -1.308  -4.094  -1.430  0.00  0.00    -0.030 A 
ATOM     27  C   UNL     1      -2.491  -3.766  -2.067  0.00  0.00    +0.008 A 
ATOM     28  C   UNL     1      -2.707  -4.165  -3.372  0.00  0.00    +0.038 A 
ATOM     29  C   UNL     1      -1.744  -4.904  -4.038  0.00  0.00    +0.123 A 
ATOM     30  C   UNL     1      -0.563  -5.237  -3.398  0.00  0.00    +0.038 A 
ATOM     31  C   UNL     1      -0.346  -4.832  -2.095  0.00  0.00    +0.008 A 
ATOM     32  F   UNL     1      -1.957  -5.300  -5.312  0.00  0.00    -0.205 F 
ENDBRANCH  25  26
ENDBRANCH  15  25
TORSDOF 4
