REMARK  Name = ZINC46760483
REMARK  7 active torsions:
REMARK  status: ('A' for Active; 'I' for Inactive)
REMARK    1  A    between atoms: C_1  and  C_2
REMARK    2  A    between atoms: N_5  and  C_8
REMARK    3  A    between atoms: C_8  and  C_10
REMARK    4  A    between atoms: C_8  and  C_26
REMARK    5  A    between atoms: C_10  and  N_11
REMARK    6  A    between atoms: N_11  and  S_12
REMARK    7  A    between atoms: S_12  and  C_15
REMARK                            x       y       z     vdW  Elec       q    Type
REMARK                         _______ _______ _______ _____ _____    ______ ____
ROOT
ATOM      1  N   UNL     1       0.238  -5.859   2.589  0.00  0.00    -0.191 NA
ATOM      2  H   UNL     1      -0.279  -6.388   1.961  0.00  0.00    +0.148 HD
ENDROOT
BRANCH   1   3
ATOM      3  S   UNL     1       1.295  -6.601   3.624  0.00  0.00    +0.058 S 
ATOM      4  O   UNL     1       1.200  -7.996   3.371  0.00  0.00    -0.153 OA
ATOM      5  O   UNL     1       2.523  -5.891   3.529  0.00  0.00    -0.153 OA
BRANCH   3   6
ATOM      6  C   UNL     1       0.691  -6.345   5.259  0.00  0.00    +0.107 A 
ATOM      7  C   UNL     1       1.086  -5.228   5.973  0.00  0.00    +0.032 A 
ATOM      8  C   UNL     1       0.615  -5.019   7.257  0.00  0.00    +0.049 A 
ATOM      9  C   UNL     1      -0.255  -5.930   7.829  0.00  0.00    +0.142 A 
ATOM     10  C   UNL     1      -0.653  -7.056   7.110  0.00  0.00    +0.078 A 
ATOM     11  C   UNL     1      -0.183  -7.257   5.823  0.00  0.00    +0.055 A 
ATOM     12  N   UNL     1      -1.533  -7.973   7.702  0.00  0.00    -0.280 N 
ATOM     13  C   UNL     1      -2.217  -7.603   8.807  0.00  0.00    +0.255 C 
ATOM     14  O   UNL     1      -2.959  -8.390   9.355  0.00  0.00    -0.272 OA
ATOM     15  C   UNL     1      -2.052  -6.209   9.357  0.00  0.00    +0.325 C 
ATOM     16  O   UNL     1      -0.728  -5.740   9.090  0.00  0.00    -0.481 OA
ATOM     17  H   UNL     1      -1.649  -8.858   7.324  0.00  0.00    +0.155 HD
ENDBRANCH   3   6
ENDBRANCH   1   3
BRANCH   1  18
ATOM     18  C   UNL     1       0.082  -4.402   2.621  0.00  0.00    +0.096 C 
BRANCH  18  19
ATOM     19  C   UNL     1      -0.609  -3.935   1.339  0.00  0.00    -0.015 C 
BRANCH  19  24
ATOM     20  C   UNL     1      -0.345   1.666   0.297  0.00  0.00    +0.007 C 
ATOM     21  C   UNL     1      -0.197   0.147   0.187  0.00  0.00    -0.018 C 
ATOM     22  C   UNL     1      -1.583  -0.503   0.172  0.00  0.00    -0.015 C 
ATOM     23  C   UNL     1      -1.426  -2.025   0.142  0.00  0.00    -0.078 C 
ATOM     24  N   UNL     1      -0.689  -2.468   1.332  0.00  0.00    +0.385 N 
ATOM     25  C   UNL     1       0.666  -1.906   1.316  0.00  0.00    -0.078 C 
ATOM     26  C   UNL     1       0.590  -0.379   1.391  0.00  0.00    -0.015 C 
ATOM     27  H   UNL     1      -1.172  -2.156   2.161  0.00  0.00    -0.081 HD
ENDBRANCH  19  24
BRANCH  19  28
ATOM     28  C   UNL     1      -1.999  -4.514   1.277  0.00  0.00    -0.022 A 
ATOM     29  C   UNL     1      -2.445  -5.591   0.586  0.00  0.00    +0.009 A 
ATOM     30  C   UNL     1      -3.779  -5.944   0.681  0.00  0.00    +0.008 A 
ATOM     31  C   UNL     1      -4.600  -5.202   1.463  0.00  0.00    +0.045 A 
ATOM     32  S   UNL     1      -3.484  -3.964   2.102  0.00  0.00    -0.103 S 
ENDBRANCH  19  28
ENDBRANCH  18  19
ENDBRANCH   1  18
TORSDOF 6
