REMARK  Name = ZINC20019235
REMARK  4 active torsions:
REMARK  status: ('A' for Active; 'I' for Inactive)
REMARK    1  A    between atoms: C_1  and  C_2
REMARK    2  A    between atoms: N_8  and  S_9
REMARK    3  A    between atoms: S_9  and  N_12
REMARK    4  A    between atoms: C_20  and  N_22
REMARK                            x       y       z     vdW  Elec       q    Type
REMARK                         _______ _______ _______ _____ _____    ______ ____
ROOT
ATOM      1  N   UNL     1       0.348   0.574   3.519  0.00  0.00    -0.193 N 
ATOM      2  C   UNL     1      -0.834   1.446   3.491  0.00  0.00    +0.133 C 
ATOM      3  C   UNL     1      -0.954   2.116   4.866  0.00  0.00    +0.025 C 
ATOM      4  C   UNL     1      -1.192   1.038   5.923  0.00  0.00    +0.039 C 
ATOM      5  C   UNL     1      -0.160  -0.052   5.806  0.00  0.00    -0.023 A 
ATOM      6  C   UNL     1       0.556  -0.252   4.635  0.00  0.00    +0.056 A 
ATOM      7  C   UNL     1       1.496  -1.272   4.554  0.00  0.00    +0.027 A 
ATOM      8  C   UNL     1       1.719  -2.096   5.639  0.00  0.00    +0.024 A 
ATOM      9  C   UNL     1       1.004  -1.902   6.812  0.00  0.00    +0.025 A 
ATOM     10  C   UNL     1       0.070  -0.874   6.896  0.00  0.00    +0.028 A 
ENDROOT
BRANCH   1  11
ATOM     11  S   UNL     1       1.415   0.561   2.252  0.00  0.00    +0.114 S 
ATOM     12  O   UNL     1       2.698   0.299   2.804  0.00  0.00    -0.138 OA
ATOM     13  O   UNL     1       1.141   1.721   1.479  0.00  0.00    -0.138 OA
BRANCH  11  20
ATOM     14  C   UNL     1      -0.649   0.747   0.325  0.00  0.00    +0.026 C 
ATOM     15  C   UNL     1      -0.093  -0.677   0.362  0.00  0.00    +0.078 C 
ATOM     16  C   UNL     1       0.404  -1.072  -1.032  0.00  0.00    +0.020 C 
ATOM     17  C   UNL     1       1.085  -2.440  -0.959  0.00  0.00    +0.003 C 
ATOM     18  C   UNL     1       2.291  -2.362  -0.020  0.00  0.00    +0.017 C 
ATOM     19  C   UNL     1       1.815  -1.983   1.386  0.00  0.00    +0.111 C 
ATOM     20  N   UNL     1       1.033  -0.742   1.304  0.00  0.00    -0.161 NA
ENDBRANCH  11  20
ENDBRANCH   1  11
BRANCH   9  21
ATOM     21  N   UNL     1       1.229  -2.734   7.915  0.00  0.00    -0.358 N 
ATOM     22  H   UNL     1       1.885  -3.446   7.860  0.00  0.00    +0.142 HD
ATOM     23  H   UNL     1       0.729  -2.598   8.736  0.00  0.00    +0.142 HD
ENDBRANCH   9  21
TORSDOF 3
