REMARK  Name = ZINC64390659
REMARK  6 active torsions:
REMARK  status: ('A' for Active; 'I' for Inactive)
REMARK    1  A    between atoms: C_3  and  C_11
REMARK    2  A    between atoms: C_5  and  C_7
REMARK    3  A    between atoms: C_13  and  C_16
REMARK    4  A    between atoms: C_16  and  S_17
REMARK    5  A    between atoms: S_17  and  C_18
REMARK    6  A    between atoms: C_28  and  C_30
REMARK                            x       y       z     vdW  Elec       q    Type
REMARK                         _______ _______ _______ _____ _____    ______ ____
ROOT
ATOM      1  S   UNL     1       5.806   5.801   1.696  0.00  0.00    -0.106 S 
ENDROOT
BRANCH   1   2
ATOM      2  C   UNL     1       6.444   7.491   1.530  0.00  0.00    +0.272 C 
ATOM      3  N   UNL     1       7.696   7.481   0.753  0.00  0.00    -0.163 NA
ATOM      4  N   UNL     1       8.019   8.381  -0.027  0.00  0.00    -0.081 NA
ATOM      5  C   UNL     1       7.279   9.500  -0.233  0.00  0.00    +0.276 C 
ATOM      6  O   UNL     1       7.568  10.309  -1.083  0.00  0.00    -0.270 OA
ATOM      7  C   UNL     1       6.084   9.678   0.653  0.00  0.00    +0.193 C 
ATOM      8  N   UNL     1       5.496   8.306   0.801  0.00  0.00    -0.178 NA
ATOM      9  N   UNL     1       4.268   8.606   1.281  0.00  0.00    -0.273 N 
ATOM     10  C   UNL     1       3.828   9.697   0.492  0.00  0.00    +0.053 C 
ATOM     11  C   UNL     1       4.915  10.419   0.064  0.00  0.00    +0.028 C 
ATOM     12  H   UNL     1       3.792   8.170   2.006  0.00  0.00    +0.167 HD
BRANCH  10  13
ATOM     13  C   UNL     1       2.421  10.018   0.188  0.00  0.00    +0.034 A 
ATOM     14  C   UNL     1       1.282   9.368   0.586  0.00  0.00    +0.017 A 
ATOM     15  C   UNL     1       0.063   9.857   0.172  0.00  0.00    +0.008 A 
ATOM     16  C   UNL     1       0.026  10.964  -0.613  0.00  0.00    +0.046 A 
ATOM     17  S   UNL     1       1.758  11.358  -0.787  0.00  0.00    -0.095 S 
ENDBRANCH  10  13
ENDBRANCH   1   2
BRANCH   1  18
ATOM     18  C   UNL     1       5.570   5.250  -0.017  0.00  0.00    +0.171 C 
BRANCH  18  21
ATOM     19  C   UNL     1       3.660   2.164  -0.022  0.00  0.00    +0.202 A 
ATOM     20  N   UNL     1       3.778   3.504  -0.011  0.00  0.00    -0.191 NA
ATOM     21  C   UNL     1       5.036   3.841  -0.023  0.00  0.00    +0.238 A 
ATOM     22  O   UNL     1       5.775   2.724  -0.043  0.00  0.00    -0.337 OA
ATOM     23  N   UNL     1       4.860   1.639  -0.036  0.00  0.00    -0.056 NA
BRANCH  19  26
ATOM     24  C   UNL     1      -0.017   1.379   0.010  0.00  0.00    +0.001 A 
ATOM     25  C   UNL     1       1.168   2.088   0.002  0.00  0.00    +0.012 A 
ATOM     26  C   UNL     1       2.384   1.408  -0.013  0.00  0.00    +0.023 A 
ATOM     27  C   UNL     1       2.397   0.014  -0.021  0.00  0.00    +0.024 A 
ATOM     28  C   UNL     1       1.206  -0.684  -0.013  0.00  0.00    +0.055 A 
ATOM     29  C   UNL     1       0.002  -0.004   0.002  0.00  0.00    +0.012 A 
BRANCH  28  30
ATOM     30  C   UNL     1       1.219  -2.191  -0.022  0.00  0.00    +0.417 C 
ATOM     31  F   UNL     1       1.236  -2.665   1.294  0.00  0.00    -0.166 F 
ATOM     32  F   UNL     1       0.074  -2.663  -0.673  0.00  0.00    -0.166 F 
ATOM     33  F   UNL     1       2.359  -2.644  -0.695  0.00  0.00    -0.166 F 
ENDBRANCH  28  30
ENDBRANCH  19  26
ENDBRANCH  18  21
ENDBRANCH   1  18
TORSDOF 6
