REMARK  Name = ZINC38605667
REMARK  8 active torsions:
REMARK  status: ('A' for Active; 'I' for Inactive)
REMARK    1  A    between atoms: C_1  and  C_2
REMARK    2  A    between atoms: N_7  and  C_9
REMARK    3  A    between atoms: C_9  and  C_11
REMARK    4  A    between atoms: C_9  and  C_12
REMARK    5  A    between atoms: N_14  and  C_15
REMARK    6  A    between atoms: C_23  and  C_25
REMARK    7  A    between atoms: C_25  and  O_27
REMARK    8  A    between atoms: O_27  and  C_28
REMARK                            x       y       z     vdW  Elec       q    Type
REMARK                         _______ _______ _______ _____ _____    ______ ____
ROOT
ATOM      1  C   UNL     1       2.103  -6.498   3.716  0.00  0.00    +0.053 C 
ATOM      2  C   UNL     1       2.288  -7.640   4.476  0.00  0.00    +0.019 A 
ATOM      3  C   UNL     1       3.001  -7.883   5.675  0.00  0.00    +0.026 A 
ATOM      4  C   UNL     1       3.011  -9.130   6.209  0.00  0.00    +0.019 A 
ATOM      5  C   UNL     1       2.332 -10.192   5.604  0.00  0.00    +0.017 A 
ATOM      6  C   UNL     1       1.630 -10.032   4.456  0.00  0.00    +0.027 A 
ATOM      7  C   UNL     1       1.572  -8.757   3.837  0.00  0.00    +0.045 A 
ATOM      8  N   UNL     1       0.970  -8.348   2.738  0.00  0.00    -0.367 N 
ATOM      9  C   UNL     1       1.229  -6.916   2.554  0.00  0.00    +0.234 C 
ATOM     10 BR   UNL     1       3.968  -9.440   7.811  0.00  0.00    -0.050 Br
ATOM     11  H   UNL     1       0.437  -8.904   2.148  0.00  0.00    +0.161 HD
ENDROOT
BRANCH   1  14
ATOM     12  C   UNL     1       2.247  -4.218   3.180  0.00  0.00    +0.203 C 
ATOM     13  O   UNL     1       1.421  -4.373   2.307  0.00  0.00    -0.277 OA
ATOM     14  N   UNL     1       2.601  -5.254   3.965  0.00  0.00    -0.288 N 
ATOM     15  H   UNL     1       3.209  -5.115   4.707  0.00  0.00    +0.155 HD
BRANCH  12  16
ATOM     16  C   UNL     1       2.878  -2.865   3.388  0.00  0.00    +0.016 C 
ATOM     17  C   UNL     1       2.493  -2.329   4.768  0.00  0.00    -0.004 C 
BRANCH  16  23
ATOM     18  C   UNL     1      -1.035  -0.493   1.649  0.00  0.00    +0.005 C 
ATOM     19  C   UNL     1       0.454  -0.771   1.433  0.00  0.00    -0.031 C 
ATOM     20  C   UNL     1       1.228   0.550   1.447  0.00  0.00    -0.001 C 
ATOM     21  C   UNL     1       2.724   0.255   1.309  0.00  0.00    -0.018 C 
ATOM     22  C   UNL     1       3.160  -0.683   2.436  0.00  0.00    -0.078 C 
ATOM     23  N   UNL     1       2.403  -1.938   2.353  0.00  0.00    +0.387 N 
ATOM     24  C   UNL     1       0.973  -1.673   2.555  0.00  0.00    -0.075 C 
ATOM     25  H   UNL     1       2.541  -2.353   1.443  0.00  0.00    -0.081 HD
ENDBRANCH  16  23
ENDBRANCH  12  16
ENDBRANCH   1  14
BRANCH   9  26
ATOM     26  C   UNL     1       1.952  -6.686   1.252  0.00  0.00    +0.335 C 
ATOM     27  O   UNL     1       2.777  -7.481   0.870  0.00  0.00    -0.248 OA
BRANCH  26  28
ATOM     28  O   UNL     1       1.678  -5.596   0.516  0.00  0.00    -0.466 OA
ATOM     29  C   UNL     1       2.401  -5.442  -0.707  0.00  0.00    +0.280 C 
ENDBRANCH  26  28
ENDBRANCH   9  26
TORSDOF 5
