REMARK  Name = ZINC63478293
REMARK  6 active torsions:
REMARK  status: ('A' for Active; 'I' for Inactive)
REMARK    1  A    between atoms: C_1  and  C_2
REMARK    2  A    between atoms: C_2  and  C_3
REMARK    3  A    between atoms: C_3  and  C_5
REMARK    4  A    between atoms: C_3  and  N_6
REMARK    5  A    between atoms: C_11  and  C_29
REMARK    6  A    between atoms: C_29  and  C_30
REMARK                            x       y       z     vdW  Elec       q    Type
REMARK                         _______ _______ _______ _____ _____    ______ ____
ROOT
ATOM      1  N   UNL     1      -0.045  -0.096   2.266  0.00  0.00    -0.239 N 
ATOM      2  C   UNL     1      -1.263  -0.573   2.546  0.00  0.00    +0.227 C 
ATOM      3  O   UNL     1      -1.842  -1.431   1.914  0.00  0.00    -0.275 OA
ATOM      4  C   UNL     1      -1.806   0.123   3.774  0.00  0.00    +0.107 C 
ATOM      5  C   UNL     1      -2.993   1.020   3.362  0.00  0.00    +0.072 C 
ATOM      6  N   UNL     1      -2.748   2.316   4.051  0.00  0.00    -0.295 NA
ATOM      7  C   UNL     1      -1.288   2.504   3.959  0.00  0.00    +0.136 C 
ATOM      8  C   UNL     1      -0.664   1.101   4.165  0.00  0.00    +0.122 C 
ATOM      9  C   UNL     1       0.391   0.844   3.113  0.00  0.00    +0.228 C 
ATOM     10  O   UNL     1       1.464   1.405   3.045  0.00  0.00    -0.275 OA
ATOM     11  C   UNL     1      -0.794   3.478   4.991  0.00  0.00    +0.006 A 
ATOM     12  C   UNL     1      -0.843   3.507   6.367  0.00  0.00    +0.046 A 
ATOM     13  C   UNL     1      -0.285   4.570   7.057  0.00  0.00    +0.124 A 
ATOM     14  C   UNL     1       0.322   5.601   6.360  0.00  0.00    +0.040 A 
ATOM     15  C   UNL     1       0.373   5.574   4.982  0.00  0.00    +0.026 A 
ATOM     16  C   UNL     1      -0.186   4.508   4.280  0.00  0.00    +0.039 A 
ATOM     17  N   UNL     1      -0.260   4.258   2.907  0.00  0.00    -0.283 N 
ATOM     18  C   UNL     1      -0.893   3.100   2.636  0.00  0.00    +0.243 C 
ATOM     19  O   UNL     1      -1.103   2.629   1.538  0.00  0.00    -0.273 OA
ATOM     20  F   UNL     1      -0.333   4.601   8.407  0.00  0.00    -0.205 F 
ATOM     21  H   UNL     1      -3.239   3.068   3.591  0.00  0.00    +0.124 HD
ATOM     22  H   UNL     1       0.102   4.849   2.229  0.00  0.00    +0.155 HD
ENDROOT
BRANCH   1  23
ATOM     23  C   UNL     1       0.749  -0.568   1.130  0.00  0.00    +0.081 C 
ATOM     24  C   UNL     1       1.062   0.608   0.202  0.00  0.00    +0.028 C 
BRANCH  23  26
ATOM     25  C   UNL     1       1.749  -2.436   2.455  0.00  0.00    +0.006 C 
ATOM     26  C   UNL     1       2.057  -1.178   1.640  0.00  0.00    +0.019 C 
ENDBRANCH  23  26
ENDBRANCH   1  23
BRANCH   5  27
ATOM     27  C   UNL     1      -4.313   0.406   3.833  0.00  0.00    +0.052 C 
BRANCH  27  28
ATOM     28  C   UNL     1      -5.463   1.232   3.316  0.00  0.00    -0.040 C 
ATOM     29  C   UNL     1      -6.184   1.010   2.193  0.00  0.00    -0.001 A 
ATOM     30  C   UNL     1      -6.113  -0.025   1.155  0.00  0.00    +0.010 A 
ATOM     31  C   UNL     1      -6.990   0.017   0.126  0.00  0.00    +0.001 A 
ATOM     32  C   UNL     1      -7.960   1.023   0.025  0.00  0.00    +0.002 A 
ATOM     33  C   UNL     1      -8.087   2.009   0.939  0.00  0.00    +0.026 A 
ATOM     34  C   UNL     1      -7.218   2.061   2.064  0.00  0.00    +0.043 A 
ATOM     35  N   UNL     1      -7.140   2.900   3.069  0.00  0.00    -0.380 N 
ATOM     36  C   UNL     1      -6.051   2.472   3.953  0.00  0.00    +0.144 C 
ATOM     37  H   UNL     1      -7.711   3.672   3.207  0.00  0.00    +0.160 HD
ENDBRANCH  27  28
ENDBRANCH   5  27
TORSDOF 4
