REMARK  Name = ZINC15771727
REMARK  9 active torsions:
REMARK  status: ('A' for Active; 'I' for Inactive)
REMARK    1  A    between atoms: C_1  and  C_2
REMARK    2  A    between atoms: C_2  and  C_3
REMARK    3  A    between atoms: C_9  and  C_13
REMARK    4  A    between atoms: C_13  and  O_14
REMARK    5  A    between atoms: O_14  and  C_15
REMARK    6  A    between atoms: C_15  and  C_17
REMARK    7  A    between atoms: C_22  and  N_23
REMARK    8  A    between atoms: C_24  and  C_26
REMARK    9  A    between atoms: C_31  and  C_32
REMARK                            x       y       z     vdW  Elec       q    Type
REMARK                         _______ _______ _______ _____ _____    ______ ____
ROOT
ATOM      1  C   UNL     1       5.997   1.772  -2.590  0.00  0.00    +0.080 A 
ATOM      2  C   UNL     1       5.633   2.681  -3.587  0.00  0.00    +0.017 A 
ATOM      3  C   UNL     1       6.502   2.951  -4.622  0.00  0.00    +0.001 A 
ATOM      4  C   UNL     1       7.738   2.325  -4.679  0.00  0.00    +0.002 A 
ATOM      5  C   UNL     1       8.111   1.425  -3.702  0.00  0.00    +0.024 A 
ATOM      6  C   UNL     1       7.251   1.144  -2.649  0.00  0.00    +0.048 A 
ENDROOT
BRANCH   6   7
ATOM      7  N   UNL     1       7.628   0.241  -1.659  0.00  0.00    -0.281 N 
ATOM      8  C   UNL     1       8.439  -0.791  -1.963  0.00  0.00    +0.249 C 
ATOM      9  O   UNL     1       8.903  -0.891  -3.082  0.00  0.00    -0.270 OA
ATOM     10  H   UNL     1       7.308   0.355  -0.751  0.00  0.00    +0.155 HD
BRANCH   8  11
ATOM     11  C   UNL     1       8.764  -1.803  -0.935  0.00  0.00    +0.040 A 
ATOM     12  C   UNL     1       8.342  -1.623   0.384  0.00  0.00    +0.013 A 
ATOM     13  C   UNL     1       8.645  -2.573   1.337  0.00  0.00    +0.001 A 
ATOM     14  C   UNL     1       9.372  -3.698   0.990  0.00  0.00    +0.000 A 
ATOM     15  C   UNL     1       9.797  -3.880  -0.314  0.00  0.00    +0.004 A 
ATOM     16  C   UNL     1       9.498  -2.940  -1.278  0.00  0.00    -0.038 A 
ATOM     17  C   UNL     1       9.962  -3.139  -2.698  0.00  0.00    +0.044 C 
ENDBRANCH   8  11
ENDBRANCH   6   7
BRANCH   1  18
ATOM     18  C   UNL     1       5.072   1.478  -1.481  0.00  0.00    +0.341 C 
ATOM     19  O   UNL     1       5.346   0.612  -0.674  0.00  0.00    -0.245 OA
BRANCH  18  20
ATOM     20  O   UNL     1       3.922   2.171  -1.361  0.00  0.00    -0.455 OA
BRANCH  20  21
ATOM     21  C   UNL     1       3.060   1.828  -0.245  0.00  0.00    +0.288 C 
BRANCH  21  28
ATOM     22  C   UNL     1      -1.161   6.534  -0.127  0.00  0.00    +0.102 A 
ATOM     23  N   UNL     1      -1.415   5.275  -0.316  0.00  0.00    -0.159 NA
ATOM     24  N   UNL     1      -0.404   4.319  -0.323  0.00  0.00    -0.171 N 
ATOM     25  C   UNL     1      -0.540   2.974  -0.515  0.00  0.00    +0.275 A 
ATOM     26  O   UNL     1      -1.646   2.492  -0.708  0.00  0.00    -0.266 OA
ATOM     27  C   UNL     1       0.585   2.149  -0.486  0.00  0.00    +0.099 A 
ATOM     28  C   UNL     1       1.831   2.700  -0.274  0.00  0.00    +0.087 A 
ATOM     29  N   UNL     1       1.929   4.015  -0.095  0.00  0.00    -0.223 NA
ATOM     30  C   UNL     1       0.867   4.780  -0.119  0.00  0.00    +0.199 A 
ATOM     31  S   UNL     1       0.614   6.531   0.075  0.00  0.00    -0.033 S 
BRANCH  22  33
ATOM     32  C   UNL     1      -3.543   7.194  -0.314  0.00  0.00    +0.011 C 
ATOM     33  C   UNL     1      -2.117   7.698  -0.087  0.00  0.00    +0.061 C 
ENDBRANCH  22  33
ENDBRANCH  21  28
ENDBRANCH  20  21
ENDBRANCH  18  20
ENDBRANCH   1  18
TORSDOF 7
