REMARK  Name = ZINC12553410
REMARK  7 active torsions:
REMARK  status: ('A' for Active; 'I' for Inactive)
REMARK    1  A    between atoms: C_1  and  C_2
REMARK    2  A    between atoms: C_8  and  S_12
REMARK    3  A    between atoms: S_12  and  N_15
REMARK    4  A    between atoms: N_15  and  C_16
REMARK    5  A    between atoms: N_15  and  C_29
REMARK    6  A    between atoms: C_16  and  C_17
REMARK    7  A    between atoms: C_20  and  C_22
REMARK                            x       y       z     vdW  Elec       q    Type
REMARK                         _______ _______ _______ _____ _____    ______ ____
ROOT
ATOM      1  N   UNL     1      -1.678  -1.101  -1.363  0.00  0.00    -0.165 NA
ENDROOT
BRANCH   1   2
ATOM      2  C   UNL     1      -2.502  -0.072  -2.002  0.00  0.00    +0.080 C 
ATOM      3  C   UNL     1      -1.707   1.245  -2.117  0.00  0.00    +0.020 C 
ATOM      4  C   UNL     1      -2.762   2.349  -1.857  0.00  0.00    +0.002 C 
ATOM      5  C   UNL     1      -3.645   1.724  -0.749  0.00  0.00    +0.002 C 
ATOM      6  C   UNL     1      -3.734   0.233  -1.132  0.00  0.00    +0.020 C 
ENDBRANCH   1   2
BRANCH   1   7
ATOM      7  S   UNL     1      -1.254  -2.463  -2.205  0.00  0.00    +0.064 S 
ATOM      8  O   UNL     1      -1.319  -2.125  -3.583  0.00  0.00    -0.153 OA
ATOM      9  O   UNL     1      -0.070  -2.963  -1.598  0.00  0.00    -0.153 OA
BRANCH   7  17
ATOM     10  C   UNL     1      -3.310  -5.731   3.279  0.00  0.00    +0.045 C 
ATOM     11  C   UNL     1      -3.131  -5.207   1.877  0.00  0.00    -0.032 A 
ATOM     12  C   UNL     1      -3.933  -5.663   0.869  0.00  0.00    +0.015 A 
ATOM     13  C   UNL     1      -3.731  -5.146  -0.424  0.00  0.00    +0.003 A 
ATOM     14  C   UNL     1      -4.516  -5.567  -1.510  0.00  0.00    +0.010 A 
ATOM     15  C   UNL     1      -4.291  -5.043  -2.746  0.00  0.00    +0.003 A 
ATOM     16  C   UNL     1      -3.295  -4.090  -2.948  0.00  0.00    +0.031 A 
ATOM     17  C   UNL     1      -2.512  -3.664  -1.920  0.00  0.00    +0.131 A 
ATOM     18  C   UNL     1      -2.714  -4.181  -0.628  0.00  0.00    +0.097 A 
ATOM     19  N   UNL     1      -1.964  -3.777   0.402  0.00  0.00    -0.253 NA
ATOM     20  C   UNL     1      -2.149  -4.256   1.608  0.00  0.00    +0.114 A 
ENDBRANCH   7  17
ENDBRANCH   1   7
BRANCH   1  21
ATOM     21  C   UNL     1      -1.229  -0.925   0.020  0.00  0.00    +0.207 C 
BRANCH  21  22
ATOM     22  C   UNL     1       0.065  -0.153   0.034  0.00  0.00    +0.233 A 
ATOM     23  N   UNL     1       0.195   1.129   0.235  0.00  0.00    -0.111 NA
ATOM     24  N   UNL     1       1.440   1.449   0.179  0.00  0.00    -0.107 NA
ATOM     25  C   UNL     1       2.153   0.373  -0.062  0.00  0.00    +0.248 A 
ATOM     26  O   UNL     1       1.295  -0.662  -0.158  0.00  0.00    -0.419 OA
BRANCH  25  27
ATOM     27  C   UNL     1       3.623   0.310  -0.202  0.00  0.00    +0.039 A 
ATOM     28  C   UNL     1       4.250  -0.911  -0.454  0.00  0.00    +0.014 A 
ATOM     29  C   UNL     1       5.622  -0.964  -0.589  0.00  0.00    +0.021 A 
ATOM     30  C   UNL     1       6.378   0.190  -0.464  0.00  0.00    +0.041 A 
ATOM     31  C   UNL     1       5.761   1.403  -0.209  0.00  0.00    +0.021 A 
ATOM     32  C   UNL     1       4.390   1.469  -0.077  0.00  0.00    +0.014 A 
ATOM     33 CL   UNL     1       8.104   0.115  -0.628  0.00  0.00    -0.084 Cl
ENDBRANCH  25  27
ENDBRANCH  21  22
ENDBRANCH   1  21
TORSDOF 6
