REMARK  Name = ZINC36160702
REMARK  14 active torsions:
REMARK  status: ('A' for Active; 'I' for Inactive)
REMARK    1  A    between atoms: C_1  and  C_2
REMARK    2  A    between atoms: C_7  and  O_8
REMARK    3  A    between atoms: O_8  and  C_9
REMARK    4  A    between atoms: C_9  and  C_10
REMARK    5  A    between atoms: C_10  and  C_12
REMARK    6  A    between atoms: C_10  and  O_33
REMARK    7  A    between atoms: C_12  and  N_13
REMARK    8  A    between atoms: N_13  and  C_14
REMARK    9  A    between atoms: C_14  and  C_16
REMARK   10  A    between atoms: C_14  and  C_30
REMARK   11  A    between atoms: C_18  and  C_21
REMARK   12  A    between atoms: C_24  and  N_27
REMARK   13  A    between atoms: C_30  and  C_31
REMARK   14  A    between atoms: C_30  and  C_32
REMARK                            x       y       z     vdW  Elec       q    Type
REMARK                         _______ _______ _______ _____ _____    ______ ____
ROOT
ATOM      1  C   UNL     1      -0.218  -0.757   8.405  0.00  0.00    +0.022 C 
ENDROOT
BRANCH   1   2
ATOM      2  C   UNL     1      -0.310   0.086   9.650  0.00  0.00    +0.214 A 
ATOM      3  N   UNL     1       0.361  -0.105  10.750  0.00  0.00    -0.193 NA
ATOM      4  C   UNL     1       0.035   0.834  11.657  0.00  0.00    +0.202 A 
ATOM      5  N   UNL     1      -0.855   1.636  11.128  0.00  0.00    -0.056 NA
ATOM      6  O   UNL     1      -1.089   1.163   9.810  0.00  0.00    -0.339 OA
BRANCH   4   7
ATOM      7  C   UNL     1       0.593   0.942  13.028  0.00  0.00    +0.023 A 
ATOM      8  C   UNL     1       1.543   0.025  13.472  0.00  0.00    +0.014 A 
ATOM      9  C   UNL     1       2.058   0.131  14.748  0.00  0.00    +0.033 A 
ATOM     10  C   UNL     1       1.632   1.145  15.586  0.00  0.00    +0.126 A 
ATOM     11  C   UNL     1       0.689   2.058  15.151  0.00  0.00    +0.033 A 
ATOM     12  C   UNL     1       0.171   1.965  13.875  0.00  0.00    +0.014 A 
BRANCH  10  13
ATOM     13  N   UNL     1       2.188   1.254  16.953  0.00  0.00    +0.056 N 
ATOM     14  O   UNL     1       3.013   0.456  17.336  0.00  0.00    -0.126 OA
ATOM     15  O   UNL     1       1.818   2.140  17.688  0.00  0.00    -0.126 OA
ENDBRANCH  10  13
ENDBRANCH   4   7
ENDBRANCH   1   2
BRANCH   1  16
ATOM     16  N   UNL     1      -0.128   0.116   7.227  0.00  0.00    +0.389 N 
ATOM     17  H   UNL     1      -0.902   0.763   7.228  0.00  0.00    -0.085 HD
ATOM     18  H   UNL     1      -0.160  -0.446   6.389  0.00  0.00    -0.085 HD
BRANCH  16  19
ATOM     19  C   UNL     1       1.135   0.864   7.267  0.00  0.00    -0.046 C 
BRANCH  19  20
ATOM     20  C   UNL     1       1.292   1.671   5.977  0.00  0.00    +0.135 C 
BRANCH  20  21
ATOM     21  O   UNL     1       0.267   2.664   5.909  0.00  0.00    -0.390 OA
ATOM     22  H   UNL     1       0.279   3.293   6.642  0.00  0.00    +0.210 HD
ENDBRANCH  20  21
BRANCH  20  23
ATOM     23  C   UNL     1       2.662   2.351   5.964  0.00  0.00    +0.258 C 
BRANCH  23  24
ATOM     24  O   UNL     1       2.856   3.009   4.710  0.00  0.00    -0.489 OA
BRANCH  24  31
ATOM     25  C   UNL     1       3.259   4.315   2.238  0.00  0.00    +0.047 C 
ATOM     26  C   UNL     1       4.286   4.327   3.340  0.00  0.00    -0.009 A 
ATOM     27  C   UNL     1       5.480   5.000   3.166  0.00  0.00    +0.007 A 
ATOM     28  C   UNL     1       6.423   5.011   4.176  0.00  0.00    +0.000 A 
ATOM     29  C   UNL     1       6.174   4.349   5.364  0.00  0.00    +0.004 A 
ATOM     30  C   UNL     1       4.982   3.675   5.544  0.00  0.00    +0.046 A 
ATOM     31  C   UNL     1       4.032   3.666   4.533  0.00  0.00    +0.124 A 
ENDBRANCH  24  31
ENDBRANCH  23  24
ENDBRANCH  20  23
ENDBRANCH  19  20
ENDBRANCH  16  19
ENDBRANCH   1  16
BRANCH   1  32
ATOM     32  C   UNL     1      -1.465  -1.638   8.293  0.00  0.00    -0.022 C 
ATOM     33  C   UNL     1      -1.333  -2.557   7.077  0.00  0.00    +0.006 C 
ATOM     34  C   UNL     1      -1.606  -2.485   9.559  0.00  0.00    +0.006 C 
ENDBRANCH   1  32
TORSDOF 11
