REMARK  Name = ZINC09430111
REMARK  8 active torsions:
REMARK  status: ('A' for Active; 'I' for Inactive)
REMARK    1  A    between atoms: C_1  and  C_2
REMARK    2  A    between atoms: C_5  and  C_9
REMARK    3  A    between atoms: C_6  and  O_8
REMARK    4  A    between atoms: C_14  and  C_19
REMARK    5  A    between atoms: C_22  and  O_25
REMARK    6  A    between atoms: O_25  and  C_26
REMARK    7  A    between atoms: N_29  and  C_34
REMARK    8  A    between atoms: N_32  and  C_33
REMARK                            x       y       z     vdW  Elec       q    Type
REMARK                         _______ _______ _______ _____ _____    ______ ____
ROOT
ATOM      1  C   UNL     1      -3.799   3.878   0.613  0.00  0.00    +0.200 C 
ATOM      2  C   UNL     1      -2.316   4.107   0.424  0.00  0.00    +0.078 A 
ATOM      3  C   UNL     1      -1.375   3.200   0.132  0.00  0.00    +0.083 A 
ATOM      4  C   UNL     1      -0.098   3.930   0.059  0.00  0.00    +0.089 A 
ATOM      5  C   UNL     1      -0.392   5.258   0.321  0.00  0.00    +0.064 A 
ATOM      6  N   UNL     1      -1.730   5.351   0.538  0.00  0.00    -0.337 N 
ATOM      7  C   UNL     1      -2.495   6.566   0.852  0.00  0.00    +0.150 C 
ATOM      8  C   UNL     1      -3.980   6.273   0.601  0.00  0.00    +0.182 C 
ATOM      9  O   UNL     1      -4.345   5.047   1.240  0.00  0.00    -0.364 OA
ATOM     10  C   UNL     1       1.109   3.162  -0.250  0.00  0.00    +0.266 A 
ATOM     11  O   UNL     1       2.194   3.708  -0.325  0.00  0.00    -0.267 OA
ATOM     12  N   UNL     1       0.990   1.831  -0.449  0.00  0.00    -0.263 N 
ATOM     13  C   UNL     1      -0.189   1.200  -0.374  0.00  0.00    +0.332 A 
ATOM     14  O   UNL     1      -0.210  -0.001  -0.567  0.00  0.00    -0.246 OA
ATOM     15  N   UNL     1      -1.351   1.820  -0.103  0.00  0.00    -0.294 N 
ATOM     16  C   UNL     1      -2.594   1.048  -0.048  0.00  0.00    +0.154 C 
ATOM     17  C   UNL     1       2.191   1.052  -0.759  0.00  0.00    +0.157 C 
ENDROOT
BRANCH   1  22
ATOM     18  C   UNL     1      -4.649  -0.734   3.995  0.00  0.00    +0.044 C 
ATOM     19  C   UNL     1      -4.430   0.467   3.112  0.00  0.00    -0.047 A 
ATOM     20  C   UNL     1      -3.346   1.298   3.332  0.00  0.00    +0.004 A 
ATOM     21  C   UNL     1      -3.142   2.401   2.524  0.00  0.00    +0.010 A 
ATOM     22  C   UNL     1      -4.021   2.676   1.494  0.00  0.00    +0.028 A 
ATOM     23  C   UNL     1      -5.112   1.847   1.275  0.00  0.00    +0.123 A 
ATOM     24  C   UNL     1      -5.312   0.739   2.085  0.00  0.00    +0.049 A 
BRANCH  23  25
ATOM     25  O   UNL     1      -5.981   2.119   0.266  0.00  0.00    -0.506 OA
ATOM     26  H   UNL     1      -5.792   1.644  -0.555  0.00  0.00    +0.292 HD
ENDBRANCH  23  25
ENDBRANCH   1  22
BRANCH   5  27
ATOM     27  C   UNL     1       0.575   6.372   0.358  0.00  0.00    -0.000 A 
ATOM     28  C   UNL     1       0.277   7.580  -0.278  0.00  0.00    +0.013 A 
ATOM     29  C   UNL     1       1.180   8.620  -0.235  0.00  0.00    +0.046 A 
ATOM     30  C   UNL     1       2.390   8.465   0.429  0.00  0.00    +0.120 A 
ATOM     31  C   UNL     1       2.693   7.263   1.058  0.00  0.00    +0.046 A 
ATOM     32  C   UNL     1       1.794   6.220   1.025  0.00  0.00    +0.013 A 
BRANCH  30  33
ATOM     33  O   UNL     1       3.280   9.490   0.464  0.00  0.00    -0.495 OA
ATOM     34  C   UNL     1       2.905  10.697  -0.203  0.00  0.00    +0.277 C 
ENDBRANCH  30  33
ENDBRANCH   5  27
TORSDOF 4
