REMARK  Name = ZINC65920136
REMARK  4 active torsions:
REMARK  status: ('A' for Active; 'I' for Inactive)
REMARK    1  A    between atoms: C_11  and  C_13
REMARK    2  A    between atoms: C_13  and  C_14
REMARK    3  A    between atoms: N_16  and  N_17
REMARK    4  A    between atoms: N_20  and  C_21
REMARK                            x       y       z     vdW  Elec       q    Type
REMARK                         _______ _______ _______ _____ _____    ______ ____
ROOT
ATOM      1  C   UNL     1       5.042   2.597  -2.944  0.00  0.00    +0.231 C 
ATOM      2  O   UNL     1       5.487   3.445  -2.200  0.00  0.00    -0.274 OA
ATOM      3  N   UNL     1       4.849   2.877  -4.248  0.00  0.00    -0.233 N 
ATOM      4  H   UNL     1       4.493   2.198  -4.842  0.00  0.00    +0.173 HD
ENDROOT
BRANCH   3   5
ATOM      5  N   UNL     1       5.162   4.149  -4.745  0.00  0.00    -0.218 N 
ATOM      6  C   UNL     1       4.968   4.430  -6.048  0.00  0.00    +0.316 C 
ATOM      7  O   UNL     1       5.240   5.534  -6.480  0.00  0.00    -0.251 OA
ATOM      8  N   UNL     1       4.474   3.486  -6.875  0.00  0.00    -0.295 N 
ATOM      9  H   UNL     1       5.518   4.828  -4.150  0.00  0.00    +0.174 HD
ATOM     10  H   UNL     1       4.257   2.606  -6.531  0.00  0.00    +0.151 HD
BRANCH   8  11
ATOM     11  C   UNL     1       4.264   3.791  -8.292  0.00  0.00    +0.074 C 
ATOM     12  C   UNL     1       2.861   4.398  -8.499  0.00  0.00    +0.022 C 
ATOM     13  C   UNL     1       2.389   3.812  -9.853  0.00  0.00    +0.002 C 
ATOM     14  C   UNL     1       2.933   2.362  -9.805  0.00  0.00    +0.002 C 
ATOM     15  C   UNL     1       4.309   2.496  -9.122  0.00  0.00    +0.022 C 
ENDBRANCH   8  11
ENDBRANCH   3   5
BRANCH   1  16
ATOM     16  C   UNL     1       4.706   1.228  -2.409  0.00  0.00    +0.121 C 
BRANCH  16  27
ATOM     17  C   UNL     1      -0.017   1.379   0.010  0.00  0.00    +0.021 A 
ATOM     18  C   UNL     1       1.173   2.084   0.002  0.00  0.00    +0.018 A 
ATOM     19  C   UNL     1       2.379   1.403  -0.016  0.00  0.00    +0.030 A 
ATOM     20  C   UNL     1       2.407   0.009  -0.032  0.00  0.00    +0.048 A 
ATOM     21  C   UNL     1       1.203  -0.688  -0.018  0.00  0.00    +0.044 A 
ATOM     22  C   UNL     1       0.002  -0.004   0.002  0.00  0.00    +0.043 A 
ATOM     23 CL   UNL     1      -1.493  -0.887   0.017  0.00  0.00    -0.083 Cl
ATOM     24  N   UNL     1       3.602  -0.702  -0.073  0.00  0.00    -0.284 N 
ATOM     25  C   UNL     1       4.799  -0.225  -0.399  0.00  0.00    +0.231 C 
ATOM     26  O   UNL     1       5.762  -0.952  -0.279  0.00  0.00    -0.274 OA
ATOM     27  C   UNL     1       5.017   1.175  -0.912  0.00  0.00    +0.146 C 
ATOM     28  S   UNL     1       3.902   2.297  -0.015  0.00  0.00    -0.110 S 
ATOM     29  H   UNL     1       3.558  -1.643   0.160  0.00  0.00    +0.155 HD
ENDBRANCH  16  27
ENDBRANCH   1  16
TORSDOF 4
