REMARK  Name = ZINC63477206
REMARK  3 active torsions:
REMARK  status: ('A' for Active; 'I' for Inactive)
REMARK    1  A    between atoms: C_4  and  C_7
REMARK    2  A    between atoms: N_9  and  C_10
REMARK    3  A    between atoms: C_10  and  C_14
REMARK                            x       y       z     vdW  Elec       q    Type
REMARK                         _______ _______ _______ _____ _____    ______ ____
ROOT
ATOM      1  C   UNL     1       2.859  -0.454  -2.507  0.00  0.00    +0.217 C 
ATOM      2  O   UNL     1       3.301   0.345  -3.306  0.00  0.00    -0.275 OA
ATOM      3  N   UNL     1       2.998  -1.776  -2.729  0.00  0.00    -0.297 N 
ATOM      4  H   UNL     1       2.644  -2.415  -2.091  0.00  0.00    +0.150 HD
ENDROOT
BRANCH   1   8
ATOM      5  C   UNL     1      -0.019   1.526   0.010  0.00  0.00    +0.000 C 
ATOM      6  C   UNL     1       1.417   2.055  -0.000  0.00  0.00    +0.001 C 
ATOM      7  C   UNL     1       2.133   1.562  -1.259  0.00  0.00    +0.013 C 
ATOM      8  C   UNL     1       2.154   0.032  -1.268  0.00  0.00    +0.075 C 
ATOM      9  C   UNL     1       0.718  -0.497  -1.257  0.00  0.00    +0.013 C 
ATOM     10  C   UNL     1       0.002  -0.004   0.002  0.00  0.00    +0.001 C 
ENDBRANCH   1   8
BRANCH   3  11
ATOM     11  C   UNL     1       3.684  -2.248  -3.935  0.00  0.00    +0.121 C 
ATOM     12  C   UNL     1       2.784  -2.286  -5.181  0.00  0.00    +0.041 C 
ATOM     13  C   UNL     1       3.471  -3.613  -5.541  0.00  0.00    +0.006 C 
ATOM     14  C   UNL     1       3.759  -3.781  -4.040  0.00  0.00    +0.041 C 
BRANCH  11  15
ATOM     15  C   UNL     1       4.975  -1.578  -4.158  0.00  0.00    +0.088 C 
ATOM     16  N   UNL     1       5.971  -1.060  -4.330  0.00  0.00    -0.194 NA
ENDBRANCH  11  15
ENDBRANCH   3  11
TORSDOF 3
