REMARK  Name = ZINC24499533
REMARK  8 active torsions:
REMARK  status: ('A' for Active; 'I' for Inactive)
REMARK    1  A    between atoms: C_1  and  C_2
REMARK    2  A    between atoms: C_3  and  C_13
REMARK    3  A    between atoms: N_5  and  C_7
REMARK    4  A    between atoms: C_13  and  O_15
REMARK    5  A    between atoms: O_15  and  C_16
REMARK    6  A    between atoms: C_16  and  C_18
REMARK    7  A    between atoms: C_16  and  C_19
REMARK    8  A    between atoms: N_24  and  C_25
REMARK                            x       y       z     vdW  Elec       q    Type
REMARK                         _______ _______ _______ _____ _____    ______ ____
ROOT
ATOM      1  C   UNL     1      -0.010  -0.799  -4.870  0.00  0.00    +0.259 C 
ATOM      2  C   UNL     1      -1.457  -0.640  -5.341  0.00  0.00    +0.062 C 
ENDROOT
BRANCH   1   3
ATOM      3  C   UNL     1       0.710  -1.765  -5.776  0.00  0.00    +0.261 C 
ATOM      4  O   UNL     1       1.108  -2.824  -5.340  0.00  0.00    -0.271 OA
ATOM      5  N   UNL     1       0.912  -1.451  -7.071  0.00  0.00    -0.237 N 
ATOM      6  C   UNL     1       1.555  -2.315  -7.882  0.00  0.00    +0.306 C 
ATOM      7  O   UNL     1       1.954  -3.376  -7.444  0.00  0.00    -0.252 OA
ATOM      8  N   UNL     1       1.757  -2.001  -9.177  0.00  0.00    -0.296 N 
ATOM      9  H   UNL     1       0.594  -0.604  -7.420  0.00  0.00    +0.159 HD
ATOM     10  H   UNL     1       1.439  -1.153  -9.526  0.00  0.00    +0.151 HD
BRANCH   8  11
ATOM     11  C   UNL     1       2.456  -2.939 -10.057  0.00  0.00    +0.074 C 
ATOM     12  C   UNL     1       3.967  -2.734  -9.925  0.00  0.00    +0.022 C 
ATOM     13  C   UNL     1       4.697  -3.715 -10.845  0.00  0.00    +0.002 C 
ATOM     14  C   UNL     1       4.274  -3.466 -12.294  0.00  0.00    +0.000 C 
ATOM     15  C   UNL     1       2.764  -3.671 -12.427  0.00  0.00    +0.002 C 
ATOM     16  C   UNL     1       2.033  -2.691 -11.507  0.00  0.00    +0.022 C 
ENDBRANCH   8  11
ENDBRANCH   1   3
BRANCH   1  17
ATOM     17  O   UNL     1       0.004  -1.301  -3.532  0.00  0.00    -0.448 OA
BRANCH  17  18
ATOM     18  C   UNL     1      -0.004  -0.393  -2.538  0.00  0.00    +0.362 C 
ATOM     19  O   UNL     1      -0.022   0.794  -2.799  0.00  0.00    -0.243 OA
BRANCH  18  22
ATOM     20  C   UNL     1      -0.018   1.503   0.010  0.00  0.00    +0.070 C 
ATOM     21  C   UNL     1       0.002  -0.004   0.002  0.00  0.00    +0.095 A 
ATOM     22  C   UNL     1       0.008  -0.838  -1.130  0.00  0.00    +0.192 A 
ATOM     23  N   UNL     1       0.027  -2.091  -0.712  0.00  0.00    -0.140 NA
ATOM     24  N   UNL     1       0.033  -2.112   0.575  0.00  0.00    -0.149 N 
ATOM     25  N   UNL     1       0.023  -0.794   1.050  0.00  0.00    -0.152 NA
BRANCH  24  26
ATOM     26  C   UNL     1       0.052  -3.265   1.371  0.00  0.00    +0.086 A 
ATOM     27  C   UNL     1       0.051  -3.155   2.756  0.00  0.00    +0.029 A 
ATOM     28  C   UNL     1       0.069  -4.293   3.538  0.00  0.00    +0.002 A 
ATOM     29  C   UNL     1       0.090  -5.541   2.944  0.00  0.00    +0.000 A 
ATOM     30  C   UNL     1       0.092  -5.654   1.565  0.00  0.00    +0.002 A 
ATOM     31  C   UNL     1       0.067  -4.520   0.778  0.00  0.00    +0.029 A 
ENDBRANCH  24  26
ENDBRANCH  18  22
ENDBRANCH  17  18
ENDBRANCH   1  17
TORSDOF 6
