REMARK  Name = ZINC02364600
REMARK  2 active torsions:
REMARK  status: ('A' for Active; 'I' for Inactive)
REMARK    1  A    between atoms: C_1  and  C_2
REMARK    2  A    between atoms: C_6  and  N_8
REMARK                            x       y       z     vdW  Elec       q    Type
REMARK                         _______ _______ _______ _____ _____    ______ ____
ROOT
ATOM      1  N   UNL     1       0.050  -2.798   2.395  0.00  0.00    -0.210 N 
ATOM      2  C   UNL     1       0.141  -2.196   3.587  0.00  0.00    +0.228 C 
ATOM      3  O   UNL     1       0.218  -0.999   3.763  0.00  0.00    -0.275 OA
ATOM      4  C   UNL     1       0.131  -3.241   4.680  0.00  0.00    +0.074 C 
ATOM      5  C   UNL     1      -1.169  -3.117   5.494  0.00  0.00    -0.054 C 
ATOM      6  C   UNL     1      -1.708  -1.680   5.374  0.00  0.00    -0.016 C 
ATOM      7  C   UNL     1      -2.659  -1.696   4.161  0.00  0.00    -0.020 C 
ATOM      8  C   UNL     1      -2.600  -3.140   3.623  0.00  0.00    -0.076 C 
ATOM      9  N   UNL     1      -2.159  -3.986   4.789  0.00  0.00    +0.395 N 
ATOM     10  C   UNL     1      -1.370  -5.133   4.311  0.00  0.00    +0.053 C 
ATOM     11  C   UNL     1       0.013  -4.577   3.897  0.00  0.00    +0.089 C 
ATOM     12  C   UNL     1      -0.030  -4.133   2.452  0.00  0.00    +0.229 C 
ATOM     13  O   UNL     1      -0.122  -4.870   1.495  0.00  0.00    -0.275 OA
ATOM     14  C   UNL     1      -1.235  -6.191   5.371  0.00  0.00    -0.026 A 
ATOM     15  C   UNL     1      -0.709  -6.195   6.643  0.00  0.00    +0.004 A 
ATOM     16  C   UNL     1      -0.731  -7.354   7.398  0.00  0.00    +0.002 A 
ATOM     17  C   UNL     1      -1.284  -8.508   6.873  0.00  0.00    +0.022 A 
ATOM     18  C   UNL     1      -1.813  -8.509   5.598  0.00  0.00    +0.062 A 
ATOM     19  C   UNL     1      -1.794  -7.345   4.831  0.00  0.00    +0.054 A 
ATOM     20  N   UNL     1      -2.260  -7.097   3.537  0.00  0.00    -0.285 N 
ATOM     21  C   UNL     1      -2.049  -5.822   3.157  0.00  0.00    +0.212 C 
ATOM     22  O   UNL     1      -2.348  -5.325   2.092  0.00  0.00    -0.277 OA
ATOM     23 CL   UNL     1      -2.504  -9.963   4.948  0.00  0.00    -0.082 Cl
ATOM     24  H   UNL     1      -2.686  -7.765   2.978  0.00  0.00    +0.155 HD
ATOM     25  H   UNL     1      -2.927  -4.259   5.383  0.00  0.00    -0.079 HD
ENDROOT
BRANCH   1  31
ATOM     26  C   UNL     1       2.378   0.042  -0.876  0.00  0.00    +0.044 C 
ATOM     27  C   UNL     1       1.150  -0.704  -0.423  0.00  0.00    -0.049 A 
ATOM     28  C   UNL     1       0.006  -0.688  -1.200  0.00  0.00    +0.003 A 
ATOM     29  C   UNL     1      -1.123  -1.371  -0.786  0.00  0.00    +0.002 A 
ATOM     30  C   UNL     1      -1.111  -2.071   0.404  0.00  0.00    +0.024 A 
ATOM     31  C   UNL     1       0.035  -2.089   1.186  0.00  0.00    +0.044 A 
ATOM     32  C   UNL     1       1.170  -1.407   0.766  0.00  0.00    +0.027 A 
ENDBRANCH   1  31
TORSDOF 1
