REMARK  Name = ZINC67577835
REMARK  11 active torsions:
REMARK  status: ('A' for Active; 'I' for Inactive)
REMARK    1  A    between atoms: C_1  and  C_2
REMARK    2  A    between atoms: N_5  and  C_8
REMARK    3  A    between atoms: C_8  and  C_9
REMARK    4  A    between atoms: C_9  and  C_11
REMARK    5  A    between atoms: C_9  and  O_27
REMARK    6  A    between atoms: C_11  and  N_12
REMARK    7  A    between atoms: N_15  and  C_16
REMARK    8  A    between atoms: C_21  and  S_22
REMARK    9  A    between atoms: S_22  and  C_23
REMARK   10  A    between atoms: C_23  and  C_24
REMARK   11  A    between atoms: C_24  and  C_25
REMARK                            x       y       z     vdW  Elec       q    Type
REMARK                         _______ _______ _______ _____ _____    ______ ____
ROOT
ATOM      1  N   UNL     1       0.650  -6.347   4.000  0.00  0.00    -0.297 N 
ATOM      2  C   UNL     1       0.799  -7.660   4.265  0.00  0.00    +0.304 C 
ATOM      3  O   UNL     1       0.455  -8.489   3.445  0.00  0.00    -0.253 OA
ATOM      4  N   UNL     1       1.328  -8.054   5.441  0.00  0.00    -0.268 N 
ATOM      5  H   UNL     1       0.924  -5.686   4.654  0.00  0.00    +0.150 HD
ATOM      6  H   UNL     1       1.529  -7.398   6.126  0.00  0.00    +0.156 HD
ENDROOT
BRANCH   4   7
ATOM      7  C   UNL     1       1.588  -9.412   5.672  0.00  0.00    +0.048 A 
ATOM      8  C   UNL     1       1.793 -10.272   4.604  0.00  0.00    +0.024 A 
ATOM      9  C   UNL     1       2.049 -11.611   4.835  0.00  0.00    +0.002 A 
ATOM     10  C   UNL     1       2.101 -12.097   6.129  0.00  0.00    +0.001 A 
ATOM     11  C   UNL     1       1.899 -11.247   7.199  0.00  0.00    +0.016 A 
ATOM     12  C   UNL     1       1.647  -9.900   6.977  0.00  0.00    +0.029 A 
BRANCH  12  13
ATOM     13  S   UNL     1       1.395  -8.812   8.340  0.00  0.00    -0.122 S 
BRANCH  13  14
ATOM     14  C   UNL     1       1.564  -9.884   9.794  0.00  0.00    +0.089 C 
BRANCH  14  15
ATOM     15  C   UNL     1       1.366  -9.054  11.065  0.00  0.00    +0.129 C 
BRANCH  15  16
ATOM     16  C   UNL     1       1.503  -9.924  12.245  0.00  0.00    +0.063 C 
ATOM     17  N   UNL     1       1.609 -10.595  13.155  0.00  0.00    -0.197 NA
ENDBRANCH  15  16
ENDBRANCH  14  15
ENDBRANCH  13  14
ENDBRANCH  12  13
ENDBRANCH   4   7
BRANCH   1  18
ATOM     18  C   UNL     1       0.074  -5.919   2.722  0.00  0.00    +0.135 C 
BRANCH  18  19
ATOM     19  C   UNL     1       0.017  -4.391   2.676  0.00  0.00    +0.115 C 
BRANCH  19  20
ATOM     20  O   UNL     1       1.345  -3.864   2.687  0.00  0.00    -0.392 OA
ATOM     21  H   UNL     1       1.889  -4.152   1.942  0.00  0.00    +0.210 HD
ENDBRANCH  19  20
BRANCH  19  22
ATOM     22  C   UNL     1      -0.697  -3.946   1.397  0.00  0.00    -0.046 C 
BRANCH  22  27
ATOM     23  C   UNL     1      -1.867   1.621   0.990  0.00  0.00    +0.007 C 
ATOM     24  C   UNL     1      -1.996   0.098   1.052  0.00  0.00    -0.018 C 
ATOM     25  C   UNL     1      -1.457  -0.408   2.393  0.00  0.00    -0.016 C 
ATOM     26  C   UNL     1      -1.516  -1.937   2.417  0.00  0.00    -0.078 C 
ATOM     27  N   UNL     1      -0.700  -2.479   1.323  0.00  0.00    +0.381 N 
ATOM     28  C   UNL     1      -1.254  -2.057   0.032  0.00  0.00    -0.078 C 
ATOM     29  C   UNL     1      -1.185  -0.532  -0.084  0.00  0.00    -0.016 C 
ATOM     30  H   UNL     1       0.246  -2.138   1.410  0.00  0.00    -0.082 HD
ENDBRANCH  22  27
ENDBRANCH  19  22
ENDBRANCH  18  19
ENDBRANCH   1  18
TORSDOF 10
