REMARK  Name = ZINC58669421
REMARK  9 active torsions:
REMARK  status: ('A' for Active; 'I' for Inactive)
REMARK    1  A    between atoms: C_1  and  C_2
REMARK    2  A    between atoms: C_3  and  C_8
REMARK    3  A    between atoms: C_4  and  N_7
REMARK    4  A    between atoms: C_8  and  O_10
REMARK    5  A    between atoms: O_10  and  C_11
REMARK    6  A    between atoms: C_11  and  C_12
REMARK    7  A    between atoms: N_17  and  C_18
REMARK    8  A    between atoms: C_22  and  C_24
REMARK    9  A    between atoms: C_28  and  C_30
REMARK                            x       y       z     vdW  Elec       q    Type
REMARK                         _______ _______ _______ _____ _____    ______ ____
ROOT
ATOM      1  C   UNL     1      -2.557   1.050  -4.935  0.00  0.00    +0.088 A 
ATOM      2  C   UNL     1      -3.655   1.071  -4.140  0.00  0.00    +0.075 A 
ATOM      3  S   UNL     1      -4.948   1.224  -5.362  0.00  0.00    -0.060 S 
ATOM      4  C   UNL     1      -3.971   1.244  -6.732  0.00  0.00    +0.172 A 
ATOM      5  N   UNL     1      -2.757   1.144  -6.236  0.00  0.00    -0.226 NA
ATOM      6  N   UNL     1      -4.355   1.346  -8.066  0.00  0.00    -0.219 N 
ATOM      7  C   UNL     1      -3.419   1.458  -9.029  0.00  0.00    +0.223 C 
ATOM      8  O   UNL     1      -2.243   1.379  -8.745  0.00  0.00    -0.275 OA
ATOM      9  C   UNL     1      -3.835   1.683 -10.460  0.00  0.00    +0.110 C 
ENDROOT
BRANCH   6  10
ATOM     10  C   UNL     1      -5.713   1.331  -8.407  0.00  0.00    +0.044 A 
ATOM     11  C   UNL     1      -6.321   2.482  -8.893  0.00  0.00    +0.024 A 
ATOM     12  C   UNL     1      -7.660   2.465  -9.229  0.00  0.00    +0.002 A 
ATOM     13  C   UNL     1      -8.396   1.303  -9.081  0.00  0.00    +0.012 A 
ATOM     14  C   UNL     1      -7.795   0.156  -8.597  0.00  0.00    +0.057 A 
ATOM     15  C   UNL     1      -6.454   0.166  -8.265  0.00  0.00    +0.036 A 
BRANCH  14  16
ATOM     16  C   UNL     1      -8.601  -1.107  -8.438  0.00  0.00    +0.417 C 
ATOM     17  F   UNL     1      -9.920  -0.873  -8.841  0.00  0.00    -0.166 F 
ATOM     18  F   UNL     1      -8.044  -2.118  -9.229  0.00  0.00    -0.166 F 
ATOM     19  F   UNL     1      -8.587  -1.503  -7.096  0.00  0.00    -0.166 F 
ENDBRANCH  14  16
ENDBRANCH   6  10
BRANCH   1  20
ATOM     20  C   UNL     1      -1.170   0.931  -4.359  0.00  0.00    +0.288 C 
BRANCH  20  21
ATOM     21  O   UNL     1      -1.251   0.846  -2.934  0.00  0.00    -0.455 OA
BRANCH  21  22
ATOM     22  C   UNL     1      -0.089   0.734  -2.260  0.00  0.00    +0.346 C 
ATOM     23  O   UNL     1       0.966   0.709  -2.866  0.00  0.00    -0.245 OA
BRANCH  22  26
ATOM     24  C   UNL     1       0.057   3.186  -0.252  0.00  0.00    +0.070 C 
ATOM     25  C   UNL     1      -0.032   1.727   0.114  0.00  0.00    +0.097 A 
ATOM     26  C   UNL     1      -0.096   0.643  -0.798  0.00  0.00    +0.142 A 
ATOM     27  C   UNL     1      -0.168  -0.525  -0.043  0.00  0.00    +0.230 A 
ATOM     28  O   UNL     1      -0.148  -0.166   1.249  0.00  0.00    -0.339 OA
ATOM     29  N   UNL     1      -0.057   1.244   1.320  0.00  0.00    -0.081 NA
BRANCH  27  30
ATOM     30  N   UNL     1      -0.244  -1.804  -0.529  0.00  0.00    -0.327 N 
ATOM     31  H   UNL     1      -0.252  -1.958  -1.487  0.00  0.00    +0.145 HD
ATOM     32  H   UNL     1      -0.290  -2.554   0.084  0.00  0.00    +0.145 HD
ENDBRANCH  27  30
ENDBRANCH  22  26
ENDBRANCH  21  22
ENDBRANCH  20  21
ENDBRANCH   1  20
TORSDOF 7
