REMARK  Name = ZINC35745621
REMARK  14 active torsions:
REMARK  status: ('A' for Active; 'I' for Inactive)
REMARK    1  A    between atoms: C_1  and  O_2
REMARK    2  A    between atoms: O_2  and  C_3
REMARK    3  A    between atoms: C_3  and  C_4
REMARK    4  A    between atoms: C_4  and  N_5
REMARK    5  A    between atoms: N_5  and  C_6
REMARK    6  A    between atoms: N_5  and  C_24
REMARK    7  A    between atoms: C_6  and  C_7
REMARK    8  A    between atoms: C_13  and  C_18
REMARK    9  A    between atoms: C_24  and  C_25
REMARK   10  A    between atoms: C_25  and  C_27
REMARK   11  A    between atoms: C_25  and  O_36
REMARK   12  A    between atoms: C_27  and  O_28
REMARK   13  A    between atoms: O_28  and  C_29
REMARK   14  A    between atoms: C_29  and  C_30
REMARK                            x       y       z     vdW  Elec       q    Type
REMARK                         _______ _______ _______ _____ _____    ______ ____
ROOT
ATOM      1  N   UNL     1       1.763  -2.455  -0.675  0.00  0.00    +0.388 N 
ATOM      2  H   UNL     1       1.488  -2.184  -1.607  0.00  0.00    -0.081 HD
ENDROOT
BRANCH   1   3
ATOM      3  C   UNL     1       0.796  -1.923   0.295  0.00  0.00    -0.050 C 
BRANCH   3   4
ATOM      4  C   UNL     1       0.703  -0.404   0.141  0.00  0.00    +0.141 C 
BRANCH   4   6
ATOM      5  C   UNL     1       0.232   1.314  -1.464  0.00  0.00    +0.193 C 
ATOM      6  O   UNL     1       0.249  -0.086  -1.177  0.00  0.00    -0.385 OA
ENDBRANCH   4   6
ENDBRANCH   3   4
ENDBRANCH   1   3
BRANCH   1   7
ATOM      7  C   UNL     1       3.098  -1.917  -0.381  0.00  0.00    -0.003 C 
BRANCH   7   8
ATOM      8  C   UNL     1       4.067  -2.370  -1.442  0.00  0.00    +0.094 A 
ATOM      9  N   UNL     1       5.390  -2.103  -1.296  0.00  0.00    -0.312 N 
ATOM     10  H   UNL     1       5.694  -1.624  -0.510  0.00  0.00    +0.170 HD
ATOM     11  C   UNL     1       6.288  -2.491  -2.220  0.00  0.00    +0.260 A 
ATOM     12  O   UNL     1       7.473  -2.245  -2.073  0.00  0.00    -0.267 OA
ATOM     13  C   UNL     1       5.831  -3.199  -3.378  0.00  0.00    +0.080 A 
ATOM     14  C   UNL     1       6.598  -3.718  -4.504  0.00  0.00    +0.004 A 
ATOM     15  C   UNL     1       5.940  -4.363  -5.497  0.00  0.00    +0.056 A 
ATOM     16  S   UNL     1       4.238  -4.308  -4.970  0.00  0.00    -0.076 S 
ATOM     17  C   UNL     1       4.447  -3.429  -3.443  0.00  0.00    +0.116 A 
ATOM     18  N   UNL     1       3.620  -3.018  -2.485  0.00  0.00    -0.229 NA
BRANCH  14  19
ATOM     19  C   UNL     1       8.069  -3.544  -4.561  0.00  0.00    -0.017 A 
ATOM     20  C   UNL     1       8.633  -2.287  -4.350  0.00  0.00    +0.008 A 
ATOM     21  C   UNL     1      10.003  -2.130  -4.404  0.00  0.00    +0.001 A 
ATOM     22  C   UNL     1      10.816  -3.218  -4.666  0.00  0.00    +0.000 A 
ATOM     23  C   UNL     1      10.262  -4.468  -4.877  0.00  0.00    +0.001 A 
ATOM     24  C   UNL     1       8.893  -4.638  -4.820  0.00  0.00    +0.008 A 
ENDBRANCH  14  19
ENDBRANCH   7   8
ENDBRANCH   1   7
BRANCH   1  25
ATOM     25  C   UNL     1       1.795  -3.921  -0.581  0.00  0.00    -0.044 C 
BRANCH  25  26
ATOM     26  C   UNL     1       0.468  -4.493  -1.085  0.00  0.00    +0.124 C 
BRANCH  26  27
ATOM     27  O   UNL     1      -0.569  -4.182  -0.153  0.00  0.00    -0.391 OA
ATOM     28  H   UNL     1      -0.422  -4.540   0.734  0.00  0.00    +0.210 HD
ENDBRANCH  26  27
BRANCH  26  29
ATOM     29  C   UNL     1       0.589  -6.012  -1.226  0.00  0.00    +0.189 C 
BRANCH  29  30
ATOM     30  O   UNL     1      -0.609  -6.533  -1.806  0.00  0.00    -0.373 OA
BRANCH  30  31
ATOM     31  C   UNL     1      -0.600  -7.951  -1.982  0.00  0.00    +0.195 C 
BRANCH  31  32
ATOM     32  C   UNL     1      -1.904  -8.389  -2.597  0.00  0.00    -0.022 A 
ATOM     33  C   UNL     1      -2.973  -8.723  -1.787  0.00  0.00    +0.006 A 
ATOM     34  C   UNL     1      -4.169  -9.124  -2.351  0.00  0.00    +0.000 A 
ATOM     35  C   UNL     1      -4.296  -9.192  -3.726  0.00  0.00    +0.000 A 
ATOM     36  C   UNL     1      -3.228  -8.857  -4.536  0.00  0.00    +0.000 A 
ATOM     37  C   UNL     1      -2.033  -8.451  -3.972  0.00  0.00    +0.006 A 
ENDBRANCH  31  32
ENDBRANCH  30  31
ENDBRANCH  29  30
ENDBRANCH  26  29
ENDBRANCH  25  26
ENDBRANCH   1  25
TORSDOF 13
