REMARK  Name = ZINC47263425
REMARK  4 active torsions:
REMARK  status: ('A' for Active; 'I' for Inactive)
REMARK    1  A    between atoms: C_3  and  N_8
REMARK    2  A    between atoms: C_9  and  C_11
REMARK    3  A    between atoms: C_11  and  N_12
REMARK    4  A    between atoms: C_16  and  C_19
REMARK                            x       y       z     vdW  Elec       q    Type
REMARK                         _______ _______ _______ _____ _____    ______ ____
ROOT
ATOM      1  N   UNL     1       4.716   5.510  -0.328  0.00  0.00    +0.386 N 
ATOM      2  C   UNL     1       3.984   5.811  -1.564  0.00  0.00    -0.078 C 
ATOM      3  C   UNL     1       3.667   7.307  -1.621  0.00  0.00    -0.018 C 
ATOM      4  C   UNL     1       4.976   8.102  -1.593  0.00  0.00    +0.009 C 
ATOM      5  C   UNL     1       5.765   7.724  -0.336  0.00  0.00    +0.059 C 
ATOM      6  C   UNL     1       6.004   6.213  -0.327  0.00  0.00    -0.065 C 
ATOM      7  H   UNL     1       4.169   5.810   0.466  0.00  0.00    -0.081 HD
ENDROOT
BRANCH   5   8
ATOM      8  C   UNL     1       7.088   8.444  -0.337  0.00  0.00    +0.220 C 
ATOM      9  O   UNL     1       8.123   7.811  -0.327  0.00  0.00    -0.275 OA
ATOM     10  N   UNL     1       7.123   9.791  -0.349  0.00  0.00    -0.265 N 
ATOM     11  C   UNL     1       8.344  10.456  -0.350  0.00  0.00    +0.164 A 
ATOM     12  N   UNL     1       9.554   9.941  -0.346  0.00  0.00    -0.233 NA
ATOM     13  C   UNL     1      10.624  10.714  -0.348  0.00  0.00    +0.120 A 
ATOM     14  C   UNL     1      10.416  12.054  -0.353  0.00  0.00    +0.068 A 
ATOM     15  S   UNL     1       8.632  12.114  -0.364  0.00  0.00    -0.061 S 
ATOM     16  H   UNL     1       6.295  10.298  -0.357  0.00  0.00    +0.157 HD
ENDBRANCH   5   8
BRANCH   1  17
ATOM     17  C   UNL     1       4.950   4.062  -0.240  0.00  0.00    +0.019 C 
BRANCH  17  19
ATOM     18  N   UNL     1       3.597   2.002  -0.022  0.00  0.00    -0.272 N 
ATOM     19  C   UNL     1       3.629   3.346  -0.117  0.00  0.00    +0.202 C 
ATOM     20  O   UNL     1       2.595   3.980  -0.104  0.00  0.00    -0.278 OA
ATOM     21  H   UNL     1       4.425   1.501   0.042  0.00  0.00    +0.156 HD
BRANCH  18  24
ATOM     22  C   UNL     1       1.130  -0.710  -0.017  0.00  0.00    +0.025 A 
ATOM     23  C   UNL     1       2.350  -0.057  -0.024  0.00  0.00    +0.045 A 
ATOM     24  C   UNL     1       2.374   1.332  -0.015  0.00  0.00    +0.125 A 
ATOM     25  N   UNL     1       1.247   2.026  -0.000  0.00  0.00    -0.239 NA
ATOM     26  C   UNL     1       0.069   1.433   0.007  0.00  0.00    +0.132 A 
ATOM     27  C   UNL     1      -0.030   0.054  -0.001  0.00  0.00    +0.059 A 
ATOM     28 CL   UNL     1      -1.587  -0.714   0.009  0.00  0.00    -0.082 Cl
ENDBRANCH  18  24
ENDBRANCH  17  19
ENDBRANCH   1  17
TORSDOF 4
