REMARK  Name = ZINC01198585
REMARK  6 active torsions:
REMARK  status: ('A' for Active; 'I' for Inactive)
REMARK    1  A    between atoms: C_1  and  C_2
REMARK    2  A    between atoms: C_2  and  O_3
REMARK    3  A    between atoms: O_3  and  C_4
REMARK    4  A    between atoms: C_6  and  C_12
REMARK    5  A    between atoms: C_9  and  O_10
REMARK    6  A    between atoms: N_19  and  C_22
REMARK                            x       y       z     vdW  Elec       q    Type
REMARK                         _______ _______ _______ _____ _____    ______ ____
ROOT
ATOM      1  C   UNL     1       5.413   2.832   0.030  0.00  0.00    +0.026 C 
ATOM      2  C   UNL     1       5.832   3.450   1.192  0.00  0.00    +0.100 C 
ATOM      3  C   UNL     1       6.928   4.439   1.188  0.00  0.00    +0.255 C 
ATOM      4  O   UNL     1       7.495   4.740   0.154  0.00  0.00    -0.270 OA
ATOM      5  N   UNL     1       7.280   5.005   2.361  0.00  0.00    -0.263 N 
ATOM      6  C   UNL     1       6.668   4.679   3.508  0.00  0.00    +0.150 C 
ATOM      7  S   UNL     1       7.187   5.445   4.949  0.00  0.00    -0.018 S 
ATOM      8  N   UNL     1       5.671   3.787   3.588  0.00  0.00    -0.217 N 
ATOM      9  C   UNL     1       5.209   3.145   2.495  0.00  0.00    +0.262 C 
ATOM     10  O   UNL     1       4.304   2.337   2.581  0.00  0.00    -0.269 OA
ATOM     11  H   UNL     1       7.995   5.660   2.376  0.00  0.00    +0.157 HD
ENDROOT
BRANCH   1  14
ATOM     12  C   UNL     1       3.015   0.026  -0.607  0.00  0.00    +0.163 A 
ATOM     13  C   UNL     1       4.171   0.778  -0.609  0.00  0.00    +0.057 A 
ATOM     14  C   UNL     1       4.191   2.028   0.028  0.00  0.00    -0.019 A 
ATOM     15  C   UNL     1       3.034   2.505   0.663  0.00  0.00    +0.027 A 
ATOM     16  C   UNL     1       1.884   1.748   0.655  0.00  0.00    +0.063 A 
ATOM     17  C   UNL     1       1.869   0.507   0.027  0.00  0.00    +0.173 A 
ATOM     18 BR   UNL     1       0.324   2.395   1.504  0.00  0.00    -0.046 Br
BRANCH  17  19
ATOM     19  O   UNL     1       0.733  -0.236   0.026  0.00  0.00    -0.503 OA
ATOM     20  H   UNL     1       0.657  -0.839   0.778  0.00  0.00    +0.292 HD
ENDBRANCH  17  19
BRANCH  12  21
ATOM     21  O   UNL     1       2.993  -1.187  -1.223  0.00  0.00    -0.489 OA
BRANCH  21  23
ATOM     22  C   UNL     1       3.984  -2.993  -2.486  0.00  0.00    +0.048 C 
ATOM     23  C   UNL     1       4.201  -1.617  -1.852  0.00  0.00    +0.226 C 
ENDBRANCH  21  23
ENDBRANCH  12  21
ENDBRANCH   1  14
BRANCH   8  24
ATOM     24  C   UNL     1       5.095   3.514   4.836  0.00  0.00    +0.043 A 
ATOM     25  C   UNL     1       5.818   2.823   5.800  0.00  0.00    +0.025 A 
ATOM     26  C   UNL     1       5.251   2.561   7.031  0.00  0.00    +0.022 A 
ATOM     27  C   UNL     1       3.959   2.976   7.301  0.00  0.00    +0.041 A 
ATOM     28  C   UNL     1       3.234   3.660   6.341  0.00  0.00    +0.022 A 
ATOM     29  C   UNL     1       3.799   3.930   5.110  0.00  0.00    +0.025 A 
ATOM     30 CL   UNL     1       3.246   2.638   8.848  0.00  0.00    -0.084 Cl
ENDBRANCH   8  24
TORSDOF 5
