REMARK  Name = ZINC59369375
REMARK  10 active torsions:
REMARK  status: ('A' for Active; 'I' for Inactive)
REMARK    1  A    between atoms: C_1  and  C_2
REMARK    2  A    between atoms: C_2  and  O_3
REMARK    3  A    between atoms: O_3  and  C_4
REMARK    4  A    between atoms: C_9  and  N_10
REMARK    5  A    between atoms: N_10  and  C_11
REMARK    6  A    between atoms: C_13  and  C_14
REMARK    7  A    between atoms: C_13  and  C_16
REMARK    8  A    between atoms: C_16  and  C_18
REMARK    9  A    between atoms: C_22  and  C_23
REMARK   10  A    between atoms: C_27  and  C_30
REMARK                            x       y       z     vdW  Elec       q    Type
REMARK                         _______ _______ _______ _____ _____    ______ ____
ROOT
ATOM      1  C   UNL     1       4.054  -1.654  -6.492  0.00  0.00    +0.212 C 
ATOM      2  O   UNL     1       4.148  -2.859  -6.638  0.00  0.00    -0.286 OA
ENDROOT
BRANCH   1   3
ATOM      3  C   UNL     1       4.712  -0.741  -7.447  0.00  0.00    +0.064 A 
ATOM      4  C   UNL     1       4.696   0.672  -7.404  0.00  0.00    +0.146 A 
ATOM      5  N   UNL     1       5.388   1.116  -8.416  0.00  0.00    -0.172 NA
ATOM      6  N   UNL     1       5.875   0.026  -9.146  0.00  0.00    -0.218 N 
ATOM      7  C   UNL     1       5.462  -1.107  -8.545  0.00  0.00    +0.054 A 
ATOM      8  C   UNL     1       5.762  -2.514  -8.992  0.00  0.00    +0.066 C 
ATOM      9  C   UNL     1       6.660   0.100 -10.300  0.00  0.00    +0.154 A 
ATOM     10  C   UNL     1       6.604   1.235 -11.100  0.00  0.00    +0.049 A 
ATOM     11  C   UNL     1       7.386   1.296 -12.239  0.00  0.00    +0.017 A 
ATOM     12  C   UNL     1       8.202   0.214 -12.541  0.00  0.00    +0.073 A 
ATOM     13  C   UNL     1       8.207  -0.883 -11.701  0.00  0.00    +0.125 A 
ATOM     14  N   UNL     1       7.454  -0.910 -10.619  0.00  0.00    -0.236 NA
BRANCH  12  15
ATOM     15  C   UNL     1       9.071   0.234 -13.771  0.00  0.00    +0.419 C 
ATOM     16  F   UNL     1      10.318   0.783 -13.453  0.00  0.00    -0.166 F 
ATOM     17  F   UNL     1       9.243  -1.071 -14.243  0.00  0.00    -0.166 F 
ATOM     18  F   UNL     1       8.460   1.011 -14.761  0.00  0.00    -0.166 F 
ENDBRANCH  12  15
ENDBRANCH   1   3
BRANCH   1  21
ATOM     19  C   UNL     1       2.666  -1.974  -4.468  0.00  0.00    +0.262 C 
ATOM     20  O   UNL     1       2.771  -3.307  -4.629  0.00  0.00    -0.269 OA
ATOM     21  C   UNL     1       3.288  -1.111  -5.370  0.00  0.00    +0.161 C 
BRANCH  19  22
ATOM     22  N   UNL     1       1.953  -1.468  -3.424  0.00  0.00    -0.278 N 
ATOM     23  H   UNL     1       1.804  -0.512  -3.356  0.00  0.00    +0.155 HD
BRANCH  22  29
ATOM     24  C   UNL     1       0.324  -1.947  -1.699  0.00  0.00    +0.142 A 
ATOM     25  C   UNL     1      -0.188  -2.805  -0.739  0.00  0.00    +0.047 A 
ATOM     26  C   UNL     1       0.408  -4.034  -0.521  0.00  0.00    +0.004 A 
ATOM     27  C   UNL     1       1.514  -4.410  -1.260  0.00  0.00    +0.002 A 
ATOM     28  C   UNL     1       2.030  -3.561  -2.220  0.00  0.00    +0.027 A 
ATOM     29  C   UNL     1       1.435  -2.329  -2.448  0.00  0.00    +0.076 A 
BRANCH  24  30
ATOM     30  O   UNL     1      -0.261  -0.738  -1.914  0.00  0.00    -0.490 OA
BRANCH  30  32
ATOM     31  C   UNL     1      -1.913   0.974  -1.492  0.00  0.00    +0.048 C 
ATOM     32  C   UNL     1      -1.396  -0.414  -1.109  0.00  0.00    +0.226 C 
ENDBRANCH  30  32
ENDBRANCH  24  30
ENDBRANCH  22  29
ENDBRANCH  19  22
BRANCH  21  33
ATOM     33  C   UNL     1       3.176   0.306  -5.199  0.00  0.00    +0.108 C 
ATOM     34  N   UNL     1       3.088   1.431  -5.063  0.00  0.00    -0.191 NA
ENDBRANCH  21  33
ENDBRANCH   1  21
TORSDOF 8
