REMARK  Name = ZINC22502468
REMARK  9 active torsions:
REMARK  status: ('A' for Active; 'I' for Inactive)
REMARK    1  A    between atoms: C_1  and  C_2
REMARK    2  A    between atoms: C_6  and  C_27
REMARK    3  A    between atoms: C_7  and  O_8
REMARK    4  A    between atoms: O_8  and  C_9
REMARK    5  A    between atoms: C_9  and  C_10
REMARK    6  A    between atoms: C_13  and  C_18
REMARK    7  A    between atoms: C_20  and  C_24
REMARK    8  A    between atoms: C_24  and  C_25
REMARK    9  A    between atoms: C_24  and  C_26
REMARK                            x       y       z     vdW  Elec       q    Type
REMARK                         _______ _______ _______ _____ _____    ______ ____
ROOT
ATOM      1  C   UNL     1       5.302   3.940   0.817  0.00  0.00    +0.140 A 
ATOM      2  N   UNL     1       4.280   3.160   0.627  0.00  0.00    -0.157 NA
ATOM      3  N   UNL     1       3.035   3.668   0.283  0.00  0.00    -0.184 N 
ATOM      4  C   UNL     1       1.748   3.227   0.003  0.00  0.00    +0.203 A 
ATOM      5  N   UNL     1       1.012   4.283  -0.265  0.00  0.00    -0.125 NA
ATOM      6  N   UNL     1       1.725   5.350  -0.167  0.00  0.00    -0.120 NA
ATOM      7  C   UNL     1       2.945   5.033   0.155  0.00  0.00    +0.218 A 
ATOM      8  S   UNL     1       4.601   5.556   0.520  0.00  0.00    -0.028 S 
ENDROOT
BRANCH   4   9
ATOM      9  C   UNL     1       1.292   1.826  -0.001  0.00  0.00    +0.105 A 
ATOM     10  C   UNL     1      -0.017   1.390   0.010  0.00  0.00    +0.056 A 
ATOM     11  C   UNL     1       0.002  -0.004   0.002  0.00  0.00    +0.066 A 
ATOM     12  N   UNL     1       1.247  -0.407  -0.012  0.00  0.00    -0.178 NA
ATOM     13  N   UNL     1       2.085   0.715  -0.014  0.00  0.00    -0.274 N 
ATOM     14  H   UNL     1       3.180   0.820  -0.024  0.00  0.00    +0.189 HD
BRANCH  11  15
ATOM     15  C   UNL     1      -1.211  -0.899   0.008  0.00  0.00    +0.033 C 
ATOM     16  C   UNL     1      -1.683  -1.108   1.449  0.00  0.00    +0.014 C 
ATOM     17  C   UNL     1      -2.330  -0.246  -0.805  0.00  0.00    +0.014 C 
ENDBRANCH  11  15
ENDBRANCH   4   9
BRANCH   1  18
ATOM     18  C   UNL     1       6.715   3.575   1.191  0.00  0.00    +0.293 C 
BRANCH  18  19
ATOM     19  O   UNL     1       7.481   3.358   0.004  0.00  0.00    -0.485 OA
BRANCH  19  26
ATOM     20  C   UNL     1       9.369   5.457   0.114  0.00  0.00    +0.047 C 
ATOM     21  C   UNL     1       9.759   4.006   0.228  0.00  0.00    -0.009 A 
ATOM     22  C   UNL     1      11.086   3.659   0.398  0.00  0.00    +0.007 A 
ATOM     23  C   UNL     1      11.445   2.327   0.496  0.00  0.00    +0.001 A 
ATOM     24  C   UNL     1      10.479   1.341   0.430  0.00  0.00    +0.007 A 
ATOM     25  C   UNL     1       9.150   1.683   0.265  0.00  0.00    -0.009 A 
ATOM     26  C   UNL     1       8.787   3.019   0.166  0.00  0.00    +0.127 A 
ATOM     27  C   UNL     1       8.097   0.608   0.193  0.00  0.00    +0.047 C 
ENDBRANCH  19  26
ENDBRANCH  18  19
ENDBRANCH   1  18
TORSDOF 5
