REMARK  Name = ZINC59264516
REMARK  9 active torsions:
REMARK  status: ('A' for Active; 'I' for Inactive)
REMARK    1  A    between atoms: C_1  and  N_2
REMARK    2  A    between atoms: N_2  and  C_3
REMARK    3  A    between atoms: N_2  and  C_4
REMARK    4  A    between atoms: C_4  and  C_6
REMARK    5  A    between atoms: C_4  and  C_26
REMARK    6  A    between atoms: C_6  and  N_7
REMARK    7  A    between atoms: C_14  and  C_16
REMARK    8  A    between atoms: C_30  and  O_32
REMARK    9  A    between atoms: O_32  and  C_33
REMARK                            x       y       z     vdW  Elec       q    Type
REMARK                         _______ _______ _______ _____ _____    ______ ____
ROOT
ATOM      1  N   UNL     1      -1.766   1.531  -1.169  0.00  0.00    -0.300 N 
ATOM      2  C   UNL     1      -2.260   2.263  -2.188  0.00  0.00    +0.303 C 
ATOM      3  O   UNL     1      -2.936   1.731  -3.047  0.00  0.00    -0.253 OA
ATOM      4  N   UNL     1      -2.004   3.585  -2.254  0.00  0.00    -0.279 N 
ATOM      5  C   UNL     1      -1.198   4.353  -1.288  0.00  0.00    +0.110 C 
ATOM      6  C   UNL     1      -1.700   5.812  -1.424  0.00  0.00    +0.021 C 
ATOM      7  C   UNL     1      -1.965   5.909  -2.950  0.00  0.00    +0.029 C 
ATOM      8  C   UNL     1      -2.478   4.498  -3.304  0.00  0.00    +0.108 C 
ATOM      9  H   UNL     1      -1.227   1.956  -0.484  0.00  0.00    +0.150 HD
ENDROOT
BRANCH   8  10
ATOM     10  C   UNL     1      -1.928   4.070  -4.641  0.00  0.00    -0.023 A 
ATOM     11  C   UNL     1      -0.636   3.589  -4.733  0.00  0.00    +0.009 A 
ATOM     12  C   UNL     1      -0.127   3.197  -5.957  0.00  0.00    +0.050 A 
ATOM     13  C   UNL     1      -0.913   3.287  -7.097  0.00  0.00    +0.162 A 
ATOM     14  C   UNL     1      -2.213   3.768  -7.003  0.00  0.00    +0.162 A 
ATOM     15  C   UNL     1      -2.719   4.156  -5.771  0.00  0.00    +0.055 A 
ATOM     16  O   UNL     1      -3.004   3.857  -8.108  0.00  0.00    -0.485 OA
ATOM     17  C   UNL     1      -2.345   3.806  -9.377  0.00  0.00    +0.270 C 
ATOM     18  C   UNL     1      -1.335   2.651  -9.349  0.00  0.00    +0.270 C 
ATOM     19  O   UNL     1      -0.398   2.901  -8.296  0.00  0.00    -0.485 OA
ENDBRANCH   8  10
BRANCH   1  20
ATOM     20  C   UNL     1      -2.044   0.095  -1.098  0.00  0.00    +0.095 C 
BRANCH  20  21
ATOM     21  C   UNL     1      -1.281  -0.514   0.081  0.00  0.00    -0.021 C 
BRANCH  21  22
ATOM     22  C   UNL     1      -1.799   0.070   1.370  0.00  0.00    -0.056 A 
ATOM     23  C   UNL     1      -2.968  -0.415   1.928  0.00  0.00    +0.002 A 
ATOM     24  C   UNL     1      -3.445   0.119   3.110  0.00  0.00    +0.004 A 
ATOM     25  C   UNL     1      -2.756   1.138   3.738  0.00  0.00    +0.045 A 
ATOM     26  C   UNL     1      -1.583   1.626   3.180  0.00  0.00    +0.120 A 
ATOM     27  C   UNL     1      -1.102   1.085   1.996  0.00  0.00    +0.047 A 
BRANCH  26  28
ATOM     28  O   UNL     1      -0.902   2.629   3.795  0.00  0.00    -0.495 OA
ATOM     29  C   UNL     1      -1.452   3.134   5.014  0.00  0.00    +0.277 C 
ENDBRANCH  26  28
ENDBRANCH  21  22
BRANCH  21  31
ATOM     30  C   UNL     1      -0.969  -2.540  -1.166  0.00  0.00    -0.096 C 
ATOM     31  N   UNL     1      -1.475  -1.970   0.090  0.00  0.00    +0.382 N 
ATOM     32  C   UNL     1      -0.744  -2.555   1.222  0.00  0.00    -0.096 C 
ATOM     33  H   UNL     1      -2.459  -2.178   0.181  0.00  0.00    -0.082 HD
ENDBRANCH  21  31
ENDBRANCH  20  21
ENDBRANCH   1  20
TORSDOF 6
