REMARK  Name = ZINC09661257
REMARK  8 active torsions:
REMARK  status: ('A' for Active; 'I' for Inactive)
REMARK    1  A    between atoms: C_1  and  C_2
REMARK    2  A    between atoms: C_2  and  C_3
REMARK    3  A    between atoms: C_3  and  C_4
REMARK    4  A    between atoms: N_6  and  C_7
REMARK    5  A    between atoms: C_9  and  C_29
REMARK    6  A    between atoms: N_16  and  C_21
REMARK    7  A    between atoms: C_24  and  C_28
REMARK    8  A    between atoms: C_26  and  C_27
REMARK                            x       y       z     vdW  Elec       q    Type
REMARK                         _______ _______ _______ _____ _____    ______ ____
ROOT
ATOM      1  C   UNL     1       0.203   4.149   1.598  0.00  0.00    +0.130 A 
ATOM      2  C   UNL     1       0.644   5.428   1.735  0.00  0.00    +0.068 A 
ATOM      3  C   UNL     1       2.030   5.427   1.548  0.00  0.00    +0.062 A 
ATOM      4  N   UNL     1       2.416   4.199   1.313  0.00  0.00    -0.169 NA
ATOM      5  N   UNL     1       1.289   3.368   1.341  0.00  0.00    -0.199 N 
ATOM      6  C   UNL     1       1.280   1.991   1.136  0.00  0.00    +0.170 A 
ATOM      7  C   UNL     1       2.473   1.295   0.872  0.00  0.00    +0.083 A 
ATOM      8  C   UNL     1       3.831   1.662   0.745  0.00  0.00    +0.148 A 
ATOM      9  N   UNL     1       4.527   0.590   0.491  0.00  0.00    -0.172 NA
ATOM     10  N   UNL     1       3.680  -0.524   0.440  0.00  0.00    -0.214 N 
ATOM     11  C   UNL     1       2.402  -0.100   0.674  0.00  0.00    +0.168 A 
ATOM     12  N   UNL     1       1.216  -0.698   0.745  0.00  0.00    -0.216 NA
ATOM     13  C   UNL     1       0.128  -0.003   0.994  0.00  0.00    +0.226 A 
ATOM     14  N   UNL     1       0.146   1.304   1.186  0.00  0.00    -0.216 NA
ATOM     15  C   UNL     1       2.928   6.636   1.607  0.00  0.00    +0.067 C 
ENDROOT
BRANCH  10  16
ATOM     16  C   UNL     1       4.074  -1.844   0.191  0.00  0.00    +0.071 A 
ATOM     17  C   UNL     1       3.153  -2.878   0.304  0.00  0.00    +0.028 A 
ATOM     18  C   UNL     1       3.543  -4.179   0.053  0.00  0.00    +0.005 A 
ATOM     19  C   UNL     1       4.852  -4.454  -0.301  0.00  0.00    -0.050 A 
ATOM     20  C   UNL     1       5.772  -3.427  -0.410  0.00  0.00    +0.008 A 
ATOM     21  C   UNL     1       5.386  -2.124  -0.165  0.00  0.00    -0.025 A 
ATOM     22  C   UNL     1       6.390  -1.006  -0.283  0.00  0.00    +0.046 C 
ATOM     23  C   UNL     1       5.276  -5.875  -0.569  0.00  0.00    +0.044 C 
ENDBRANCH  10  16
BRANCH   1  26
ATOM     24  C   UNL     1      -2.099   4.603   1.964  0.00  0.00    +0.218 C 
ATOM     25  O   UNL     1      -1.832   5.778   2.104  0.00  0.00    -0.275 OA
ATOM     26  N   UNL     1      -1.118   3.716   1.704  0.00  0.00    -0.270 N 
ATOM     27  H   UNL     1      -1.331   2.777   1.592  0.00  0.00    +0.156 HD
BRANCH  24  28
ATOM     28  C   UNL     1      -3.527   4.136   2.079  0.00  0.00    +0.096 C 
BRANCH  28  30
ATOM     29  C   UNL     1      -5.883   4.857   2.491  0.00  0.00    +0.004 C 
ATOM     30  C   UNL     1      -4.433   5.332   2.374  0.00  0.00    +0.006 C 
ENDBRANCH  28  30
ENDBRANCH  24  28
ENDBRANCH   1  26
TORSDOF 4
