REMARK  Name = ZINC67313355
REMARK  8 active torsions:
REMARK  status: ('A' for Active; 'I' for Inactive)
REMARK    1  A    between atoms: C_1  and  C_2
REMARK    2  A    between atoms: C_2  and  O_3
REMARK    3  A    between atoms: O_3  and  C_4
REMARK    4  A    between atoms: C_4  and  C_5
REMARK    5  A    between atoms: C_5  and  C_6
REMARK    6  A    between atoms: C_6  and  N_7
REMARK    7  A    between atoms: N_10  and  N_11
REMARK    8  A    between atoms: C_12  and  C_14
REMARK                            x       y       z     vdW  Elec       q    Type
REMARK                         _______ _______ _______ _____ _____    ______ ____
ROOT
ATOM      1  N   UNL     1       3.567  -4.778  -6.221  0.00  0.00    -0.229 N 
ATOM      2  C   UNL     1       4.212  -5.110  -7.357  0.00  0.00    +0.260 C 
ATOM      3  O   UNL     1       4.383  -6.281  -7.638  0.00  0.00    -0.269 OA
ATOM      4  H   UNL     1       3.430  -3.844  -5.997  0.00  0.00    +0.173 HD
ENDROOT
BRANCH   2   5
ATOM      5  C   UNL     1       4.710  -4.054  -8.258  0.00  0.00    +0.040 A 
ATOM      6  C   UNL     1       4.518  -2.709  -7.932  0.00  0.00    +0.014 A 
ATOM      7  C   UNL     1       4.981  -1.720  -8.772  0.00  0.00    +0.017 A 
ATOM      8  C   UNL     1       5.641  -2.064  -9.946  0.00  0.00    +0.029 A 
ATOM      9  C   UNL     1       5.837  -3.406 -10.278  0.00  0.00    +0.048 A 
ATOM     10  C   UNL     1       5.379  -4.400  -9.437  0.00  0.00    +0.037 A 
ATOM     11  N   UNL     1       6.510  -3.730 -11.467  0.00  0.00    -0.285 N 
ATOM     12  C   UNL     1       7.691  -3.167 -11.750  0.00  0.00    +0.218 C 
ATOM     13  O   UNL     1       8.165  -3.305 -12.858  0.00  0.00    -0.275 OA
ATOM     14  C   UNL     1       8.440  -2.370 -10.724  0.00  0.00    +0.107 C 
ATOM     15  C   UNL     1       8.046  -0.885 -10.804  0.00  0.00    +0.083 C 
ATOM     16  S   UNL     1       6.238  -0.812 -11.036  0.00  0.00    -0.123 S 
ATOM     17  H   UNL     1       6.117  -4.365 -12.086  0.00  0.00    +0.155 HD
ENDBRANCH   2   5
BRANCH   1  21
ATOM     18  N   UNL     1       2.259  -4.151  -3.917  0.00  0.00    -0.298 N 
ATOM     19  C   UNL     1       2.449  -5.448  -4.229  0.00  0.00    +0.316 C 
ATOM     20  O   UNL     1       2.038  -6.318  -3.486  0.00  0.00    -0.251 OA
ATOM     21  N   UNL     1       3.094  -5.781  -5.365  0.00  0.00    -0.218 N 
ATOM     22  H   UNL     1       2.587  -3.456  -4.510  0.00  0.00    +0.150 HD
ATOM     23  H   UNL     1       3.230  -6.714  -5.590  0.00  0.00    +0.174 HD
BRANCH  18  24
ATOM     24  C   UNL     1       1.558  -3.789  -2.683  0.00  0.00    +0.108 C 
BRANCH  24  25
ATOM     25  C   UNL     1       1.478  -2.265  -2.569  0.00  0.00    +0.047 C 
BRANCH  25  26
ATOM     26  C   UNL     1       0.746  -1.888  -1.280  0.00  0.00    +0.161 C 
BRANCH  26  27
ATOM     27  O   UNL     1       0.671  -0.465  -1.174  0.00  0.00    -0.380 OA
BRANCH  27  29
ATOM     28  C   UNL     1      -0.019   1.526   0.010  0.00  0.00    +0.034 C 
ATOM     29  C   UNL     1       0.002  -0.004   0.002  0.00  0.00    +0.156 C 
ENDBRANCH  27  29
ENDBRANCH  26  27
ENDBRANCH  25  26
ENDBRANCH  24  25
ENDBRANCH  18  24
ENDBRANCH   1  21
TORSDOF 7
