REMARK  Name = ZINC63333587
REMARK  7 active torsions:
REMARK  status: ('A' for Active; 'I' for Inactive)
REMARK    1  A    between atoms: C_1  and  C_2
REMARK    2  A    between atoms: C_4  and  C_8
REMARK    3  A    between atoms: C_5  and  C_7
REMARK    4  A    between atoms: N_10  and  N_11
REMARK    5  A    between atoms: N_14  and  C_15
REMARK    6  A    between atoms: N_18  and  C_21
REMARK    7  A    between atoms: C_21  and  C_22
REMARK                            x       y       z     vdW  Elec       q    Type
REMARK                         _______ _______ _______ _____ _____    ______ ____
ROOT
ATOM      1  N   UNL     1      -3.659  -5.029  -0.144  0.00  0.00    -0.218 N 
ATOM      2  C   UNL     1      -4.999  -4.886  -0.135  0.00  0.00    +0.316 C 
ATOM      3  O   UNL     1      -5.716  -5.866  -0.186  0.00  0.00    -0.251 OA
ATOM      4  N   UNL     1      -5.545  -3.655  -0.070  0.00  0.00    -0.296 N 
ATOM      5  H   UNL     1      -3.267  -5.915  -0.191  0.00  0.00    +0.174 HD
ATOM      6  H   UNL     1      -4.973  -2.872  -0.030  0.00  0.00    +0.151 HD
ENDROOT
BRANCH   4   7
ATOM      7  C   UNL     1      -7.001  -3.499  -0.060  0.00  0.00    +0.071 C 
ATOM      8  C   UNL     1      -7.525  -3.484  -1.499  0.00  0.00    +0.004 C 
ATOM      9  C   UNL     1      -9.036  -3.241  -1.484  0.00  0.00    -0.077 C 
ATOM     10  N   UNL     1      -9.321  -1.951  -0.844  0.00  0.00    +0.380 N 
ATOM     11  C   UNL     1      -8.886  -1.983   0.557  0.00  0.00    -0.077 C 
ATOM     12  C   UNL     1      -7.370  -2.177   0.621  0.00  0.00    +0.004 C 
ATOM     13  H   UNL     1      -8.827  -1.219  -1.332  0.00  0.00    -0.082 HD
BRANCH  10  14
ATOM     14  C   UNL     1     -10.765  -1.687  -0.902  0.00  0.00    -0.075 C 
BRANCH  14  15
ATOM     15  C   UNL     1     -11.190  -1.491  -2.358  0.00  0.00    -0.028 C 
ATOM     16  C   UNL     1     -10.562  -0.201  -2.924  0.00  0.00    +0.002 C 
ATOM     17  C   UNL     1     -11.662   0.387  -3.842  0.00  0.00    +0.000 C 
ATOM     18  C   UNL     1     -12.962   0.083  -3.056  0.00  0.00    +0.000 C 
ATOM     19  C   UNL     1     -12.716  -1.311  -2.443  0.00  0.00    +0.002 C 
ENDBRANCH  14  15
ENDBRANCH  10  14
ENDBRANCH   4   7
BRANCH   1  22
ATOM     20  C   UNL     1      -1.493  -4.043  -0.096  0.00  0.00    +0.263 C 
ATOM     21  O   UNL     1      -1.001  -5.153  -0.154  0.00  0.00    -0.269 OA
ATOM     22  N   UNL     1      -2.833  -3.899  -0.086  0.00  0.00    -0.229 N 
ATOM     23  H   UNL     1      -3.226  -3.013  -0.039  0.00  0.00    +0.173 HD
BRANCH  20  27
ATOM     24  C   UNL     1       0.158   0.778   0.156  0.00  0.00    +0.086 C 
ATOM     25  C   UNL     1       0.084  -0.725   0.076  0.00  0.00    +0.103 A 
ATOM     26  C   UNL     1      -1.046  -1.447   0.040  0.00  0.00    +0.057 A 
ATOM     27  C   UNL     1      -0.624  -2.854  -0.035  0.00  0.00    +0.079 A 
ATOM     28  C   UNL     1       0.740  -2.828  -0.035  0.00  0.00    +0.114 A 
ATOM     29  O   UNL     1       1.138  -1.554   0.025  0.00  0.00    -0.464 OA
ATOM     30  C   UNL     1       1.644  -4.032  -0.100  0.00  0.00    +0.087 C 
ENDBRANCH  20  27
ENDBRANCH   1  22
TORSDOF 5
