REMARK  Name = ZINC44565519
REMARK  4 active torsions:
REMARK  status: ('A' for Active; 'I' for Inactive)
REMARK    1  A    between atoms: C_1  and  N_2
REMARK    2  A    between atoms: C_7  and  C_9
REMARK    3  A    between atoms: C_9  and  N_10
REMARK    4  A    between atoms: C_17  and  C_20
REMARK                            x       y       z     vdW  Elec       q    Type
REMARK                         _______ _______ _______ _____ _____    ______ ____
ROOT
ATOM      1  N   UNL     1       1.923   1.766   1.357  0.00  0.00    -0.301 N 
ATOM      2  C   UNL     1       2.984   2.598   1.335  0.00  0.00    +0.302 C 
ATOM      3  O   UNL     1       4.112   2.145   1.322  0.00  0.00    -0.253 OA
ATOM      4  N   UNL     1       2.793   3.932   1.327  0.00  0.00    -0.280 N 
ATOM      5  C   UNL     1       3.928   4.858   1.186  0.00  0.00    +0.137 C 
ATOM      6  C   UNL     1       3.601   5.857   0.070  0.00  0.00    +0.180 C 
ATOM      7  O   UNL     1       2.326   6.450   0.327  0.00  0.00    -0.362 OA
ATOM      8  C   UNL     1       1.239   5.521   0.329  0.00  0.00    +0.248 C 
ATOM      9  C   UNL     1       1.444   4.505   1.453  0.00  0.00    +0.152 C 
ATOM     10  H   UNL     1       1.026   2.126   1.430  0.00  0.00    +0.150 HD
ENDROOT
BRANCH   8  11
ATOM     11  C   UNL     1      -0.056   6.262   0.547  0.00  0.00    +0.386 C 
ATOM     12  O   UNL     1      -0.048   7.473   0.687  0.00  0.00    -0.243 OA
ATOM     13  O   UNL     1      -1.110   5.651   0.583  0.00  0.00    -0.243 OA
ENDBRANCH   8  11
BRANCH   1  14
ATOM     14  C   UNL     1       2.127   0.318   1.271  0.00  0.00    +0.090 C 
BRANCH  14  21
ATOM     15  C   UNL     1       0.668  -0.262   3.599  0.00  0.00    -0.096 C 
ATOM     16  N   UNL     1      -0.050   0.031   2.352  0.00  0.00    +0.381 N 
ATOM     17  C   UNL     1      -1.326  -0.696   2.342  0.00  0.00    -0.079 C 
ATOM     18  C   UNL     1      -2.114  -0.331   1.082  0.00  0.00    -0.019 C 
ATOM     19  C   UNL     1      -1.297  -0.714  -0.154  0.00  0.00    -0.003 C 
ATOM     20  C   UNL     1       0.061  -0.009  -0.095  0.00  0.00    -0.014 C 
ATOM     21  C   UNL     1       0.769  -0.385   1.208  0.00  0.00    -0.052 C 
ATOM     22  H   UNL     1      -0.230   1.022   2.293  0.00  0.00    -0.082 HD
ENDBRANCH  14  21
ENDBRANCH   1  14
TORSDOF 3
