REMARK  Name = ZINC05442970
REMARK  6 active torsions:
REMARK  status: ('A' for Active; 'I' for Inactive)
REMARK    1  A    between atoms: C_1  and  C_2
REMARK    2  A    between atoms: C_5  and  C_8
REMARK    3  A    between atoms: C_10  and  C_29
REMARK    4  A    between atoms: C_11  and  N_28
REMARK    5  A    between atoms: C_18  and  C_20
REMARK    6  A    between atoms: C_18  and  C_21
REMARK                            x       y       z     vdW  Elec       q    Type
REMARK                         _______ _______ _______ _____ _____    ______ ____
ROOT
ATOM      1  C   UNL     1       0.059  -4.275  -0.021  0.00  0.00    +0.097 C 
ATOM      2  C   UNL     1       1.307  -4.755   0.660  0.00  0.00    +0.077 C 
ATOM      3  C   UNL     1       1.273  -5.232   1.931  0.00  0.00    +0.109 C 
ATOM      4  N   UNL     1       0.080  -5.289   2.616  0.00  0.00    -0.228 N 
ATOM      5  C   UNL     1      -1.112  -5.258   1.941  0.00  0.00    +0.028 C 
ATOM      6  C   UNL     1      -1.174  -4.789   0.677  0.00  0.00    +0.025 C 
ATOM      7  C   UNL     1      -2.390  -4.769  -0.027  0.00  0.00    +0.162 C 
ATOM      8  O   UNL     1      -2.414  -4.335  -1.162  0.00  0.00    -0.292 OA
ATOM      9  C   UNL     1      -3.663  -5.273   0.597  0.00  0.00    +0.086 C 
ATOM     10  C   UNL     1      -3.318  -6.351   1.630  0.00  0.00    -0.023 C 
ATOM     11  C   UNL     1      -2.350  -5.754   2.647  0.00  0.00    +0.058 C 
ATOM     12  C   UNL     1      -2.660  -7.542   0.930  0.00  0.00    +0.011 C 
ATOM     13  C   UNL     1      -4.594  -6.808   2.340  0.00  0.00    +0.011 C 
ATOM     14  C   UNL     1       0.085  -5.381   4.012  0.00  0.00    +0.246 A 
ATOM     15  N   UNL     1      -0.999  -5.449   4.791  0.00  0.00    -0.202 NA
ATOM     16  C   UNL     1      -0.639  -5.526   6.046  0.00  0.00    +0.217 A 
ATOM     17  N   UNL     1       0.704  -5.509   6.099  0.00  0.00    -0.264 N 
ATOM     18  H   UNL     1       1.255  -5.553   6.896  0.00  0.00    +0.190 HD
ATOM     19  N   UNL     1       1.153  -5.420   4.771  0.00  0.00    -0.136 NA
ENDROOT
BRANCH   1  24
ATOM     20  C   UNL     1      -0.018   1.503   0.010  0.00  0.00    +0.044 C 
ATOM     21  C   UNL     1       0.002  -0.004   0.002  0.00  0.00    -0.050 A 
ATOM     22  C   UNL     1       0.006  -0.689  -1.199  0.00  0.00    +0.003 A 
ATOM     23  C   UNL     1       0.025  -2.071  -1.206  0.00  0.00    +0.005 A 
ATOM     24  C   UNL     1       0.040  -2.768  -0.013  0.00  0.00    -0.035 A 
ATOM     25  C   UNL     1       0.037  -2.084   1.188  0.00  0.00    +0.005 A 
ATOM     26  C   UNL     1       0.023  -0.702   1.195  0.00  0.00    +0.003 A 
ENDBRANCH   1  24
BRANCH   3  27
ATOM     27  N   UNL     1       2.432  -5.659   2.535  0.00  0.00    -0.345 N 
ATOM     28  H   UNL     1       3.272  -5.619   2.054  0.00  0.00    +0.144 HD
ATOM     29  H   UNL     1       2.408  -5.999   3.443  0.00  0.00    +0.144 HD
ENDBRANCH   3  27
BRANCH   2  30
ATOM     30  C   UNL     1       2.554  -4.709  -0.041  0.00  0.00    +0.099 C 
ATOM     31  N   UNL     1       3.544  -4.673  -0.598  0.00  0.00    -0.191 NA
ENDBRANCH   2  30
TORSDOF 3
