REMARK  Name = ZINC12158839
REMARK  4 active torsions:
REMARK  status: ('A' for Active; 'I' for Inactive)
REMARK    1  A    between atoms: C_4  and  C_7
REMARK    2  A    between atoms: C_7  and  C_13
REMARK    3  A    between atoms: C_22  and  C_24
REMARK    4  A    between atoms: N_29  and  C_32
REMARK                            x       y       z     vdW  Elec       q    Type
REMARK                         _______ _______ _______ _____ _____    ______ ____
ROOT
ATOM      1  C   UNL     1      -9.724   9.883  -4.412  0.00  0.00    +0.226 C 
ATOM      2  O   UNL     1     -10.914   9.679  -4.527  0.00  0.00    -0.275 OA
ATOM      3  N   UNL     1      -8.860   8.849  -4.413  0.00  0.00    -0.301 N 
ATOM      4  C   UNL     1      -9.335   7.484  -4.676  0.00  0.00    +0.108 C 
ATOM      5  C   UNL     1      -8.948   6.589  -3.493  0.00  0.00    +0.026 C 
ATOM      6  C   UNL     1      -7.453   6.766  -3.210  0.00  0.00    -0.015 C 
ATOM      7  C   UNL     1      -7.006   8.210  -2.958  0.00  0.00    +0.026 C 
ATOM      8  C   UNL     1      -7.433   9.073  -4.152  0.00  0.00    +0.108 C 
ATOM      9  C   UNL     1      -6.478   5.839  -3.934  0.00  0.00    +0.021 C 
ATOM     10  C   UNL     1      -6.739   5.657  -2.437  0.00  0.00    +0.082 C 
ENDROOT
BRANCH  10  11
ATOM     11  C   UNL     1      -5.645   6.066  -1.486  0.00  0.00    +0.219 C 
ATOM     12  O   UNL     1      -4.574   6.439  -1.917  0.00  0.00    -0.275 OA
ATOM     13  N   UNL     1      -5.855   6.015  -0.155  0.00  0.00    -0.298 N 
ATOM     14  C   UNL     1      -4.800   6.409   0.791  0.00  0.00    +0.126 C 
ATOM     15  C   UNL     1      -4.627   5.287   1.821  0.00  0.00    +0.125 C 
ATOM     16  N   UNL     1      -5.928   4.983   2.432  0.00  0.00    -0.314 N 
ATOM     17  C   UNL     1      -6.880   4.477   1.435  0.00  0.00    +0.125 C 
ATOM     18  C   UNL     1      -7.145   5.565   0.389  0.00  0.00    +0.126 C 
BRANCH  16  19
ATOM     19  C   UNL     1      -5.787   4.087   3.485  0.00  0.00    +0.099 A 
ATOM     20  C   UNL     1      -6.911   3.669   4.191  0.00  0.00    +0.042 A 
ATOM     21  C   UNL     1      -6.755   2.781   5.240  0.00  0.00    +0.005 A 
ATOM     22  C   UNL     1      -5.476   2.331   5.542  0.00  0.00    +0.018 A 
ATOM     23  C   UNL     1      -4.406   2.783   4.797  0.00  0.00    +0.084 A 
ATOM     24  N   UNL     1      -4.521   3.659   3.763  0.00  0.00    -0.350 N 
ATOM     25  H   UNL     1      -3.707   3.978   3.225  0.00  0.00    +0.166 HD
ENDBRANCH  16  19
ENDBRANCH  10  11
BRANCH   1  26
ATOM     26  C   UNL     1      -9.212  11.293  -4.266  0.00  0.00    +0.072 C 
ATOM     27  C   UNL     1     -10.390  12.269  -4.297  0.00  0.00    +0.021 C 
ATOM     28  C   UNL     1     -11.132  12.131  -5.627  0.00  0.00    +0.001 C 
ATOM     29  C   UNL     1     -10.177  12.448  -6.780  0.00  0.00    +0.000 C 
ATOM     30  C   UNL     1      -8.999  11.471  -6.749  0.00  0.00    +0.001 C 
ATOM     31  C   UNL     1      -8.257  11.610  -5.419  0.00  0.00    +0.021 C 
BRANCH  26  35
ATOM     32  C   UNL     1      -7.138  11.678  -0.552  0.00  0.00    +0.000 A 
ATOM     33  C   UNL     1      -8.440  11.213  -0.572  0.00  0.00    +0.000 A 
ATOM     34  C   UNL     1      -9.111  11.088  -1.774  0.00  0.00    +0.004 A 
ATOM     35  C   UNL     1      -8.481  11.429  -2.956  0.00  0.00    -0.032 A 
ATOM     36  C   UNL     1      -7.177  11.889  -2.936  0.00  0.00    +0.004 A 
ATOM     37  C   UNL     1      -6.508  12.018  -1.734  0.00  0.00    +0.000 A 
ENDBRANCH  26  35
ENDBRANCH   1  26
TORSDOF 4
