REMARK  Name = ZINC28579304
REMARK  3 active torsions:
REMARK  status: ('A' for Active; 'I' for Inactive)
REMARK    1  A    between atoms: C_10  and  N_11
REMARK    2  A    between atoms: N_14  and  C_15
REMARK    3  A    between atoms: C_16  and  C_26
REMARK                            x       y       z     vdW  Elec       q    Type
REMARK                         _______ _______ _______ _____ _____    ______ ____
ROOT
ATOM      1  N   UNL     1      -3.576   7.739   3.791  0.00  0.00    -0.269 N 
ATOM      2  C   UNL     1      -3.093   6.907   2.847  0.00  0.00    +0.309 C 
ATOM      3  O   UNL     1      -3.281   7.148   1.671  0.00  0.00    -0.252 OA
ATOM      4  N   UNL     1      -2.401   5.809   3.208  0.00  0.00    -0.263 N 
ATOM      5  H   UNL     1      -3.471   7.484   4.856  0.00  0.00    +0.156 HD
ATOM      6  H   UNL     1      -2.230   5.591   4.273  0.00  0.00    +0.157 HD
ENDROOT
BRANCH   1  16
ATOM      7  C   UNL     1      -3.840  12.391   5.733  0.00  0.00    +0.001 A 
ATOM      8  C   UNL     1      -3.199  11.217   6.124  0.00  0.00    +0.001 A 
ATOM      9  C   UNL     1      -3.308  10.079   5.384  0.00  0.00    +0.010 A 
ATOM     10  C   UNL     1      -4.081  10.084   4.213  0.00  0.00    +0.003 A 
ATOM     11  C   UNL     1      -4.729  11.278   3.811  0.00  0.00    -0.016 A 
ATOM     12  C   UNL     1      -4.594  12.433   4.600  0.00  0.00    +0.008 A 
ATOM     13  C   UNL     1      -5.498  11.285   2.635  0.00  0.00    +0.008 A 
ATOM     14  C   UNL     1      -5.611  10.152   1.889  0.00  0.00    +0.002 A 
ATOM     15  C   UNL     1      -4.974   8.974   2.271  0.00  0.00    +0.024 A 
ATOM     16  C   UNL     1      -4.211   8.926   3.417  0.00  0.00    +0.042 A 
ENDBRANCH   1  16
BRANCH   4  17
ATOM     17  C   UNL     1      -1.906   4.957   2.241  0.00  0.00    +0.083 C 
ATOM     18  C   UNL     1      -1.185   3.803   2.438  0.00  0.00    +0.061 C 
ATOM     19  C   UNL     1      -0.700   3.083   1.226  0.00  0.00    +0.045 C 
ATOM     20  C   UNL     1      -0.740   1.550   1.297  0.00  0.00    +0.010 C 
ATOM     21  C   UNL     1      -0.052   1.066   0.006  0.00  0.00    +0.001 C 
ATOM     22  C   UNL     1      -0.752   1.562  -1.253  0.00  0.00    +0.001 C 
ATOM     23  C   UNL     1      -0.953   3.092  -1.240  0.00  0.00    +0.015 C 
ATOM     24  C   UNL     1      -1.651   3.414   0.036  0.00  0.00    +0.061 C 
ATOM     25  S   UNL     1      -2.022   5.130   0.464  0.00  0.00    -0.105 S 
BRANCH  18  26
ATOM     26  C   UNL     1      -0.911   3.312   3.755  0.00  0.00    +0.097 C 
ATOM     27  N   UNL     1      -0.693   2.923   4.799  0.00  0.00    -0.191 NA
ENDBRANCH  18  26
ENDBRANCH   4  17
TORSDOF 3
