REMARK  Name = ZINC13069641
REMARK  10 active torsions:
REMARK  status: ('A' for Active; 'I' for Inactive)
REMARK    1  A    between atoms: C_1  and  C_2
REMARK    2  A    between atoms: C_2  and  C_3
REMARK    3  A    between atoms: C_5  and  C_30
REMARK    4  A    between atoms: C_6  and  C_11
REMARK    5  A    between atoms: C_11  and  N_12
REMARK    6  A    between atoms: N_15  and  S_18
REMARK    7  A    between atoms: S_18  and  C_21
REMARK    8  A    between atoms: C_30  and  O_32
REMARK    9  A    between atoms: O_32  and  C_33
REMARK   10  A    between atoms: C_33  and  C_34
REMARK                            x       y       z     vdW  Elec       q    Type
REMARK                         _______ _______ _______ _____ _____    ______ ____
ROOT
ATOM      1  N   UNL     1       3.173  -0.757  -0.929  0.00  0.00    -0.294 NA
ATOM      2  C   UNL     1       2.471  -0.510  -2.196  0.00  0.00    +0.102 C 
ATOM      3  C   UNL     1       3.364  -0.944  -3.363  0.00  0.00    +0.125 C 
ATOM      4  N   UNL     1       3.777  -2.338  -3.143  0.00  0.00    -0.174 NA
ATOM      5  C   UNL     1       4.364  -2.692  -1.841  0.00  0.00    +0.125 C 
ATOM      6  C   UNL     1       3.432  -2.190  -0.734  0.00  0.00    +0.102 C 
ENDROOT
BRANCH   4   7
ATOM      7  S   UNL     1       3.586  -3.479  -4.328  0.00  0.00    +0.064 S 
ATOM      8  O   UNL     1       3.548  -2.778  -5.563  0.00  0.00    -0.153 OA
ATOM      9  O   UNL     1       4.535  -4.503  -4.062  0.00  0.00    -0.153 OA
BRANCH   7  10
ATOM     10  C   UNL     1       1.993  -4.199  -4.107  0.00  0.00    +0.144 A 
ATOM     11  C   UNL     1       1.017  -4.025  -5.071  0.00  0.00    +0.034 A 
ATOM     12  C   UNL     1      -0.231  -4.594  -4.902  0.00  0.00    +0.043 A 
ATOM     13  C   UNL     1      -0.510  -5.328  -3.763  0.00  0.00    +0.161 A 
ATOM     14  C   UNL     1       0.465  -5.498  -2.793  0.00  0.00    +0.195 A 
ATOM     15  C   UNL     1       1.718  -4.932  -2.966  0.00  0.00    +0.187 A 
ATOM     16  F   UNL     1       2.671  -5.097  -2.022  0.00  0.00    -0.200 F 
ATOM     17  F   UNL     1       0.194  -6.215  -1.680  0.00  0.00    -0.199 F 
ATOM     18  F   UNL     1      -1.733  -5.879  -3.596  0.00  0.00    -0.202 F 
ENDBRANCH   7  10
ENDBRANCH   4   7
BRANCH   1  19
ATOM     19  C   UNL     1       2.425  -0.198   0.205  0.00  0.00    +0.136 C 
BRANCH  19  22
ATOM     20  C   UNL     1       1.218   3.442  -0.189  0.00  0.00    +0.113 C 
ATOM     21  C   UNL     1       1.208   1.930  -0.087  0.00  0.00    +0.075 C 
ATOM     22  C   UNL     1       2.391   1.304   0.093  0.00  0.00    +0.038 C 
ATOM     23  N   UNL     1       3.557   2.010   0.169  0.00  0.00    -0.271 N 
ATOM     24  C   UNL     1       3.624   3.345   0.086  0.00  0.00    +0.304 C 
ATOM     25  O   UNL     1       4.709   3.886   0.170  0.00  0.00    -0.253 OA
ATOM     26  N   UNL     1       2.527   4.109  -0.088  0.00  0.00    -0.292 N 
ATOM     27  H   UNL     1       4.512   1.482   0.307  0.00  0.00    +0.156 HD
ATOM     28  H   UNL     1       2.592   5.205  -0.155  0.00  0.00    +0.151 HD
BRANCH  20  30
ATOM     29  C   UNL     1       0.473   5.351  -1.618  0.00  0.00    +0.006 C 
ATOM     30  C   UNL     1       0.594   3.829  -1.531  0.00  0.00    +0.024 C 
ENDBRANCH  20  30
BRANCH  21  31
ATOM     31  C   UNL     1      -0.001   1.199  -0.172  0.00  0.00    +0.338 C 
ATOM     32  O   UNL     1      -0.494   0.962  -1.258  0.00  0.00    -0.245 OA
BRANCH  31  33
ATOM     33  O   UNL     1      -0.610   0.770   0.954  0.00  0.00    -0.462 OA
BRANCH  33  34
ATOM     34  C   UNL     1      -1.830   0.044   0.794  0.00  0.00    +0.229 C 
ATOM     35  C   UNL     1      -2.369  -0.357   2.169  0.00  0.00    +0.048 C 
ENDBRANCH  33  34
ENDBRANCH  31  33
ENDBRANCH  21  31
ENDBRANCH  19  22
ENDBRANCH   1  19
TORSDOF 8
