REMARK  Name = ZINC53106760
REMARK  9 active torsions:
REMARK  status: ('A' for Active; 'I' for Inactive)
REMARK    1  A    between atoms: C_1  and  C_2
REMARK    2  A    between atoms: C_7  and  C_9
REMARK    3  A    between atoms: C_7  and  N_11
REMARK    4  A    between atoms: C_9  and  O_10
REMARK    5  A    between atoms: C_12  and  C_14
REMARK    6  A    between atoms: C_14  and  C_16
REMARK    7  A    between atoms: C_14  and  N_19
REMARK    8  A    between atoms: C_16  and  C_17
REMARK    9  A    between atoms: C_16  and  C_18
REMARK                            x       y       z     vdW  Elec       q    Type
REMARK                         _______ _______ _______ _____ _____    ______ ____
ROOT
ATOM      1  N   UNL     1       2.145   1.361   0.822  0.00  0.00    -0.306 N 
ATOM      2  C   UNL     1       3.067   2.333   0.974  0.00  0.00    +0.234 C 
ATOM      3  O   UNL     1       4.237   2.044   1.105  0.00  0.00    -0.274 OA
ATOM      4  H   UNL     1       1.203   1.588   0.784  0.00  0.00    +0.149 HD
ENDROOT
BRANCH   1  10
ATOM      5  C   UNL     1       0.321   1.009  -0.850  0.00  0.00    +0.007 C 
ATOM      6  C   UNL     1       0.762  -0.452  -0.963  0.00  0.00    -0.012 C 
ATOM      7  C   UNL     1       1.815  -0.584  -2.064  0.00  0.00    +0.003 C 
ATOM      8  C   UNL     1       3.025   0.288  -1.720  0.00  0.00    +0.002 C 
ATOM      9  C   UNL     1       3.620  -0.169  -0.387  0.00  0.00    +0.028 C 
ATOM     10  C   UNL     1       2.567  -0.038   0.714  0.00  0.00    +0.058 C 
ATOM     11  C   UNL     1       1.357  -0.910   0.370  0.00  0.00    +0.031 C 
BRANCH  10  12
ATOM     12  C   UNL     1       3.162  -0.495   2.047  0.00  0.00    +0.181 C 
BRANCH  12  13
ATOM     13  O   UNL     1       4.304   0.306   2.358  0.00  0.00    -0.393 OA
ATOM     14  H   UNL     1       4.734   0.071   3.192  0.00  0.00    +0.209 HD
ENDBRANCH  12  13
ENDBRANCH  10  12
ENDBRANCH   1  10
BRANCH   2  15
ATOM     15  C   UNL     1       2.642   3.779   0.981  0.00  0.00    +0.163 C 
BRANCH  15  16
ATOM     16  N   UNL     1       3.786   4.625   0.631  0.00  0.00    -0.288 N 
ATOM     17  C   UNL     1       3.583   5.842   0.087  0.00  0.00    +0.298 C 
ATOM     18  O   UNL     1       2.451   6.237  -0.113  0.00  0.00    -0.253 OA
ATOM     19  N   UNL     1       4.636   6.620  -0.234  0.00  0.00    -0.313 N 
ATOM     20  H   UNL     1       4.689   4.310   0.790  0.00  0.00    +0.151 HD
ATOM     21  H   UNL     1       5.539   6.304  -0.075  0.00  0.00    +0.146 HD
ATOM     22  H   UNL     1       4.490   7.495  -0.625  0.00  0.00    +0.146 HD
ENDBRANCH  15  16
BRANCH  15  23
ATOM     23  C   UNL     1       2.137   4.156   2.375  0.00  0.00    +0.012 C 
ATOM     24  C   UNL     1       1.660   5.609   2.369  0.00  0.00    +0.009 C 
ATOM     25  C   UNL     1       0.975   3.239   2.761  0.00  0.00    +0.009 C 
ENDBRANCH  15  23
ENDBRANCH   2  15
TORSDOF 6
