REMARK  Name = ZINC01961254
REMARK  11 active torsions:
REMARK  status: ('A' for Active; 'I' for Inactive)
REMARK    1  A    between atoms: C_1  and  C_2
REMARK    2  A    between atoms: N_7  and  C_10
REMARK    3  A    between atoms: C_10  and  C_11
REMARK    4  A    between atoms: N_13  and  C_14
REMARK    5  A    between atoms: C_17  and  O_21
REMARK    6  A    between atoms: O_21  and  C_22
REMARK    7  A    between atoms: C_24  and  C_25
REMARK    8  A    between atoms: C_25  and  O_27
REMARK    9  A    between atoms: O_27  and  C_28
REMARK   10  A    between atoms: C_28  and  C_29
REMARK   11  A    between atoms: C_28  and  C_30
REMARK                            x       y       z     vdW  Elec       q    Type
REMARK                         _______ _______ _______ _____ _____    ______ ____
ROOT
ATOM      1  C   UNL     1       0.464  -3.057  -0.045  0.00  0.00    +0.046 C 
ATOM      2  C   UNL     1       1.591  -2.056  -0.041  0.00  0.00    -0.015 A 
ATOM      3  C   UNL     1       1.311  -0.689  -0.023  0.00  0.00    +0.076 A 
ATOM      4  C   UNL     1       2.435   0.170  -0.020  0.00  0.00    +0.116 A 
ATOM      5  N   UNL     1       2.307   1.490  -0.004  0.00  0.00    -0.230 NA
ATOM      6  C   UNL     1       1.135   2.064   0.010  0.00  0.00    +0.203 A 
ATOM      7  N   UNL     1      -0.015   1.346   0.009  0.00  0.00    -0.290 N 
ATOM      8  C   UNL     1      -0.000  -0.001  -0.007  0.00  0.00    +0.263 A 
ATOM      9  O   UNL     1      -1.039  -0.638  -0.008  0.00  0.00    -0.267 OA
ATOM     10  S   UNL     1       3.808  -0.956  -0.042  0.00  0.00    -0.062 S 
ATOM     11  C   UNL     1       2.887  -2.485  -0.054  0.00  0.00    +0.102 A 
ENDROOT
BRANCH  11  12
ATOM     12  C   UNL     1       3.395  -3.858  -0.072  0.00  0.00    +0.346 C 
ATOM     13  O   UNL     1       2.619  -4.794  -0.078  0.00  0.00    -0.244 OA
BRANCH  12  14
ATOM     14  O   UNL     1       4.725  -4.085  -0.083  0.00  0.00    -0.458 OA
BRANCH  14  15
ATOM     15  C   UNL     1       5.157  -5.471  -0.102  0.00  0.00    +0.171 C 
ATOM     16  C   UNL     1       5.300  -5.941  -1.551  0.00  0.00    +0.052 C 
ATOM     17  C   UNL     1       6.506  -5.594   0.610  0.00  0.00    +0.052 C 
ENDBRANCH  14  15
ENDBRANCH  12  14
ENDBRANCH  11  12
BRANCH   7  18
ATOM     18  C   UNL     1      -1.300   2.049   0.019  0.00  0.00    +0.222 C 
BRANCH  18  19
ATOM     19  C   UNL     1      -1.739   2.274   1.443  0.00  0.00    +0.237 C 
ATOM     20  O   UNL     1      -1.046   1.885   2.360  0.00  0.00    -0.274 OA
ATOM     21  N   UNL     1      -2.901   2.907   1.699  0.00  0.00    -0.284 N 
ATOM     22  H   UNL     1      -3.422   3.277   0.969  0.00  0.00    +0.155 HD
BRANCH  21  23
ATOM     23  C   UNL     1      -3.356   3.030   3.018  0.00  0.00    +0.035 A 
ATOM     24  C   UNL     1      -4.717   2.982   3.290  0.00  0.00    +0.027 A 
ATOM     25  C   UNL     1      -5.165   3.099   4.591  0.00  0.00    +0.049 A 
ATOM     26  C   UNL     1      -4.258   3.275   5.625  0.00  0.00    +0.138 A 
ATOM     27  C   UNL     1      -2.897   3.329   5.353  0.00  0.00    +0.084 A 
ATOM     28  C   UNL     1      -2.447   3.207   4.052  0.00  0.00    +0.047 A 
ATOM     29 CL   UNL     1      -1.762   3.549   6.648  0.00  0.00    -0.080 Cl
BRANCH  26  30
ATOM     30  O   UNL     1      -4.700   3.396   6.905  0.00  0.00    -0.494 OA
ATOM     31  C   UNL     1      -6.113   3.331   7.112  0.00  0.00    +0.277 C 
ENDBRANCH  26  30
ENDBRANCH  21  23
ENDBRANCH  18  19
ENDBRANCH   7  18
TORSDOF 7
