REMARK  Name = ZINC09588499
REMARK  5 active torsions:
REMARK  status: ('A' for Active; 'I' for Inactive)
REMARK    1  A    between atoms: C_4  and  C_7
REMARK    2  A    between atoms: C_7  and  N_8
REMARK    3  A    between atoms: N_15  and  C_22
REMARK    4  A    between atoms: C_22  and  C_23
REMARK    5  A    between atoms: N_25  and  C_26
REMARK                            x       y       z     vdW  Elec       q    Type
REMARK                         _______ _______ _______ _____ _____    ______ ____
ROOT
ATOM      1  N   UNL     1      -1.089   7.292  -0.391  0.00  0.00    -0.295 N 
ATOM      2  C   UNL     1      -1.066   5.949  -0.505  0.00  0.00    +0.307 C 
ATOM      3  O   UNL     1      -1.955   5.375  -1.103  0.00  0.00    -0.252 OA
ATOM      4  N   UNL     1      -0.056   5.244   0.043  0.00  0.00    -0.245 N 
ATOM      5  C   UNL     1       1.091   5.920   0.666  0.00  0.00    +0.211 C 
ATOM      6  C   UNL     1       2.357   5.206   0.270  0.00  0.00    +0.238 C 
ATOM      7  O   UNL     1       3.398   5.825   0.200  0.00  0.00    -0.273 OA
ATOM      8  N   UNL     1       2.348   3.888  -0.008  0.00  0.00    -0.260 N 
ATOM      9  C   UNL     1       1.153   3.161   0.016  0.00  0.00    +0.058 A 
ATOM     10  C   UNL     1      -0.066   3.840   0.035  0.00  0.00    +0.060 A 
ATOM     11  C   UNL     1      -1.256   3.135   0.051  0.00  0.00    +0.025 A 
ATOM     12  C   UNL     1      -1.233   1.751   0.044  0.00  0.00    +0.002 A 
ATOM     13  C   UNL     1      -0.026   1.076   0.033  0.00  0.00    +0.002 A 
ATOM     14  C   UNL     1       1.167   1.776   0.016  0.00  0.00    +0.025 A 
ATOM     15  H   UNL     1      -0.345   7.757   0.022  0.00  0.00    +0.151 HD
ENDROOT
BRANCH   1  16
ATOM     16  C   UNL     1      -2.240   8.050  -0.890  0.00  0.00    +0.141 C 
BRANCH  16  20
ATOM     17  C   UNL     1      -1.614  12.217  -0.188  0.00  0.00    +0.000 A 
ATOM     18  C   UNL     1      -1.185  11.643  -1.370  0.00  0.00    +0.000 A 
ATOM     19  C   UNL     1      -1.387  10.294  -1.597  0.00  0.00    +0.005 A 
ATOM     20  C   UNL     1      -2.019   9.520  -0.642  0.00  0.00    -0.030 A 
ATOM     21  C   UNL     1      -2.453  10.095   0.538  0.00  0.00    +0.005 A 
ATOM     22  C   UNL     1      -2.246  11.442   0.767  0.00  0.00    +0.000 A 
ENDBRANCH  16  20
ENDBRANCH   1  16
BRANCH   8  23
ATOM     23  C   UNL     1       3.603   3.209  -0.338  0.00  0.00    +0.209 C 
BRANCH  23  24
ATOM     24  C   UNL     1       3.829   3.267  -1.827  0.00  0.00    +0.231 C 
ATOM     25  O   UNL     1       3.022   3.821  -2.542  0.00  0.00    -0.274 OA
ATOM     26  N   UNL     1       4.929   2.703  -2.364  0.00  0.00    -0.311 N 
ATOM     27  H   UNL     1       5.575   2.260  -1.792  0.00  0.00    +0.149 HD
BRANCH  26  28
ATOM     28  C   UNL     1       5.149   2.760  -3.811  0.00  0.00    +0.073 C 
ATOM     29  C   UNL     1       4.406   1.604  -4.485  0.00  0.00    +0.022 C 
ATOM     30  C   UNL     1       4.636   1.663  -5.997  0.00  0.00    +0.002 C 
ATOM     31  C   UNL     1       6.133   1.548  -6.290  0.00  0.00    +0.000 C 
ATOM     32  C   UNL     1       6.876   2.703  -5.616  0.00  0.00    +0.002 C 
ATOM     33  C   UNL     1       6.646   2.644  -4.105  0.00  0.00    +0.022 C 
ENDBRANCH  26  28
ENDBRANCH  23  24
ENDBRANCH   8  23
TORSDOF 5
