REMARK  Name = ZINC39720061
REMARK  2 active torsions:
REMARK  status: ('A' for Active; 'I' for Inactive)
REMARK    1  A    between atoms: C_7  and  C_10
REMARK    2  A    between atoms: N_15  and  C_18
REMARK                            x       y       z     vdW  Elec       q    Type
REMARK                         _______ _______ _______ _____ _____    ______ ____
ROOT
ATOM      1  C   UNL     1       0.662  -3.133  -0.022  0.00  0.00    +0.024 C 
ATOM      2  C   UNL     1       1.145  -4.428  -0.139  0.00  0.00    +0.102 C 
ATOM      3  C   UNL     1       0.359  -5.672  -0.264  0.00  0.00    +0.266 C 
ATOM      4  O   UNL     1      -0.853  -5.764  -0.285  0.00  0.00    -0.268 OA
ATOM      5  N   UNL     1       1.243  -6.684  -0.349  0.00  0.00    -0.223 N 
ATOM      6  N   UNL     1       2.550  -6.202  -0.291  0.00  0.00    -0.184 N 
ATOM      7  C   UNL     1       2.556  -4.861  -0.171  0.00  0.00    +0.272 C 
ATOM      8  O   UNL     1       3.536  -4.144  -0.101  0.00  0.00    -0.268 OA
ATOM      9  H   UNL     1       1.003  -7.620  -0.439  0.00  0.00    +0.174 HD
ENDROOT
BRANCH   1  16
ATOM     10  C   UNL     1      -0.050   1.343  -0.134  0.00  0.00    +0.001 A 
ATOM     11  C   UNL     1       1.115   2.117  -0.235  0.00  0.00    +0.002 A 
ATOM     12  C   UNL     1       2.343   1.555  -0.292  0.00  0.00    +0.026 A 
ATOM     13  C   UNL     1       2.461   0.089  -0.248  0.00  0.00    +0.043 A 
ATOM     14  N   UNL     1       3.498  -0.702  -0.286  0.00  0.00    -0.380 N 
ATOM     15  C   UNL     1       3.050  -2.096  -0.209  0.00  0.00    +0.149 C 
ATOM     16  C   UNL     1       1.541  -2.047  -0.115  0.00  0.00    -0.018 C 
ATOM     17  C   UNL     1       1.210  -0.698  -0.141  0.00  0.00    +0.003 A 
ATOM     18  C   UNL     1      -0.021  -0.010  -0.088  0.00  0.00    +0.010 A 
ATOM     19  H   UNL     1       4.421  -0.413  -0.355  0.00  0.00    +0.160 HD
ENDBRANCH   1  16
BRANCH   6  20
ATOM     20  C   UNL     1       3.697  -7.000  -0.353  0.00  0.00    +0.056 A 
ATOM     21  C   UNL     1       4.955  -6.417  -0.279  0.00  0.00    +0.026 A 
ATOM     22  C   UNL     1       6.086  -7.208  -0.340  0.00  0.00    +0.022 A 
ATOM     23  C   UNL     1       5.965  -8.580  -0.476  0.00  0.00    +0.041 A 
ATOM     24  C   UNL     1       4.713  -9.164  -0.550  0.00  0.00    +0.022 A 
ATOM     25  C   UNL     1       3.579  -8.378  -0.483  0.00  0.00    +0.026 A 
ATOM     26 CL   UNL     1       7.389  -9.571  -0.553  0.00  0.00    -0.084 Cl
ENDBRANCH   6  20
TORSDOF 2
