REMARK  Name = ZINC00706038
REMARK  8 active torsions:
REMARK  status: ('A' for Active; 'I' for Inactive)
REMARK    1  A    between atoms: C_1  and  N_54
REMARK    2  A    between atoms: N_5  and  N_6
REMARK    3  A    between atoms: C_7  and  C_9
REMARK    4  A    between atoms: C_9  and  N_10
REMARK    5  A    between atoms: N_10  and  C_11
REMARK    6  A    between atoms: N_10  and  S_17
REMARK    7  A    between atoms: S_17  and  C_20
REMARK    8  A    between atoms: C_25  and  N_26
REMARK                            x       y       z     vdW  Elec       q    Type
REMARK                         _______ _______ _______ _____ _____    ______ ____
ROOT
ATOM      1  N   UNL     1       7.142   0.169  -2.782  0.00  0.00    -0.194 N 
ENDROOT
BRANCH   1   2
ATOM      2  C   UNL     1       6.393   0.402  -1.627  0.00  0.00    +0.052 A 
ATOM      3  C   UNL     1       5.303  -0.406  -1.329  0.00  0.00    +0.025 A 
ATOM      4  C   UNL     1       4.564  -0.172  -0.185  0.00  0.00    +0.002 A 
ATOM      5  C   UNL     1       4.909   0.865   0.662  0.00  0.00    +0.000 A 
ATOM      6  C   UNL     1       5.994   1.671   0.368  0.00  0.00    +0.002 A 
ATOM      7  C   UNL     1       6.737   1.443  -0.773  0.00  0.00    +0.025 A 
ENDBRANCH   1   2
BRANCH   1   8
ATOM      8  S   UNL     1       6.534   0.594  -4.263  0.00  0.00    +0.077 S 
ATOM      9  O   UNL     1       7.136  -0.274  -5.214  0.00  0.00    -0.150 OA
ATOM     10  O   UNL     1       5.125   0.696  -4.109  0.00  0.00    -0.150 OA
BRANCH   8  11
ATOM     11  C   UNL     1       7.121   2.217  -4.620  0.00  0.00    +0.139 A 
ATOM     12  C   UNL     1       8.154   2.757  -3.878  0.00  0.00    +0.031 A 
ATOM     13  C   UNL     1       8.618   4.028  -4.161  0.00  0.00    +0.002 A 
ATOM     14  C   UNL     1       8.040   4.763  -5.180  0.00  0.00    +0.002 A 
ATOM     15  C   UNL     1       7.004   4.225  -5.918  0.00  0.00    +0.035 A 
ATOM     16  C   UNL     1       6.544   2.952  -5.638  0.00  0.00    +0.153 A 
BRANCH  16  17
ATOM     17  N   UNL     1       5.433   2.375  -6.429  0.00  0.00    +0.058 N 
ATOM     18  O   UNL     1       4.501   3.080  -6.774  0.00  0.00    -0.126 OA
ATOM     19  O   UNL     1       5.451   1.197  -6.736  0.00  0.00    -0.126 OA
ENDBRANCH  16  17
ENDBRANCH   8  11
ENDBRANCH   1   8
BRANCH   1  20
ATOM     20  C   UNL     1       8.465  -0.453  -2.685  0.00  0.00    +0.228 C 
BRANCH  20  22
ATOM     21  N   UNL     1       9.407  -2.737  -2.565  0.00  0.00    -0.206 N 
ATOM     22  C   UNL     1       8.315  -1.952  -2.653  0.00  0.00    +0.251 C 
ATOM     23  O   UNL     1       7.211  -2.452  -2.707  0.00  0.00    -0.272 OA
ATOM     24  H   UNL     1      10.290  -2.337  -2.522  0.00  0.00    +0.177 HD
BRANCH  21  29
ATOM     25  C   UNL     1      12.978  -7.162  -0.024  0.00  0.00    -0.096 C 
ATOM     26  C   UNL     1      10.862  -6.977  -1.186  0.00  0.00    -0.073 C 
ATOM     27  C   UNL     1      10.194  -6.381  -2.430  0.00  0.00    +0.034 C 
ATOM     28  C   UNL     1      10.293  -4.872  -2.345  0.00  0.00    +0.033 C 
ATOM     29  N   UNL     1       9.268  -4.130  -2.536  0.00  0.00    -0.189 NA
ATOM     30  C   UNL     1      11.648  -4.271  -2.034  0.00  0.00    +0.034 C 
ATOM     31  C   UNL     1      12.222  -5.000  -0.810  0.00  0.00    -0.073 C 
ATOM     32  N   UNL     1      12.243  -6.453  -1.091  0.00  0.00    +0.378 N 
ATOM     33  H   UNL     1      12.720  -6.611  -1.986  0.00  0.00    -0.082 HD
ENDBRANCH  21  29
ENDBRANCH  20  22
ENDBRANCH   1  20
TORSDOF 7
