REMARK  Name = ZINC20858078
REMARK  11 active torsions:
REMARK  status: ('A' for Active; 'I' for Inactive)
REMARK    1  A    between atoms: C_1  and  O_2
REMARK    2  A    between atoms: O_2  and  C_3
REMARK    3  A    between atoms: C_6  and  C_11
REMARK    4  A    between atoms: C_8  and  O_9
REMARK    5  A    between atoms: O_9  and  C_10
REMARK    6  A    between atoms: C_13  and  C_31
REMARK    7  A    between atoms: C_14  and  C_19
REMARK    8  A    between atoms: C_19  and  S_20
REMARK    9  A    between atoms: S_20  and  C_23
REMARK   10  A    between atoms: C_31  and  O_33
REMARK   11  A    between atoms: O_33  and  C_34
REMARK                            x       y       z     vdW  Elec       q    Type
REMARK                         _______ _______ _______ _____ _____    ______ ____
ROOT
ATOM      1  C   UNL     1      -1.309  -0.774   0.004  0.00  0.00    +0.144 C 
ATOM      2  C   UNL     1      -1.660  -1.226   1.407  0.00  0.00    +0.080 C 
ATOM      3  C   UNL     1      -1.766  -2.553   1.632  0.00  0.00    +0.045 C 
ATOM      4  N   UNL     1      -1.562  -3.457   0.628  0.00  0.00    -0.271 N 
ATOM      5  C   UNL     1      -1.250  -3.113  -0.628  0.00  0.00    +0.304 C 
ATOM      6  O   UNL     1      -1.088  -3.990  -1.454  0.00  0.00    -0.252 OA
ATOM      7  N   UNL     1      -1.111  -1.827  -1.006  0.00  0.00    -0.288 N 
ATOM      8  H   UNL     1      -1.652  -4.534   0.831  0.00  0.00    +0.156 HD
ATOM      9  H   UNL     1      -0.855  -1.555  -2.041  0.00  0.00    +0.151 HD
ENDROOT
BRANCH   1  13
ATOM     10  C   UNL     1       2.286   1.532   0.223  0.00  0.00    +0.162 A 
ATOM     11  C   UNL     1       2.345   0.147   0.238  0.00  0.00    +0.050 A 
ATOM     12  C   UNL     1       1.181  -0.595   0.167  0.00  0.00    +0.009 A 
ATOM     13  C   UNL     1      -0.043   0.040   0.081  0.00  0.00    -0.019 A 
ATOM     14  C   UNL     1      -0.110   1.421   0.066  0.00  0.00    +0.055 A 
ATOM     15  C   UNL     1       1.053   2.171   0.137  0.00  0.00    +0.162 A 
BRANCH  10  17
ATOM     16  C   UNL     1       4.659   1.540   0.379  0.00  0.00    +0.277 C 
ATOM     17  O   UNL     1       3.430   2.264   0.292  0.00  0.00    -0.491 OA
ENDBRANCH  10  17
BRANCH  15  18
ATOM     18  O   UNL     1       0.990   3.530   0.122  0.00  0.00    -0.491 OA
ATOM     19  C   UNL     1      -0.309   4.118   0.030  0.00  0.00    +0.277 C 
ENDBRANCH  15  18
ENDBRANCH   1  13
BRANCH   2  20
ATOM     20  C   UNL     1      -1.870  -0.289   2.446  0.00  0.00    +0.339 C 
ATOM     21  O   UNL     1      -2.930   0.304   2.525  0.00  0.00    -0.245 OA
BRANCH  20  22
ATOM     22  O   UNL     1      -0.896  -0.054   3.349  0.00  0.00    -0.465 OA
ATOM     23  C   UNL     1      -1.177   0.905   4.371  0.00  0.00    +0.280 C 
ENDBRANCH  20  22
ENDBRANCH   2  20
BRANCH   3  24
ATOM     24  C   UNL     1      -2.113  -3.046   3.013  0.00  0.00    +0.223 C 
BRANCH  24  25
ATOM     25  S   UNL     1      -3.843  -3.589   3.044  0.00  0.00    +0.002 S 
ATOM     26  O   UNL     1      -4.709  -2.474   2.882  0.00  0.00    -0.169 OA
ATOM     27  O   UNL     1      -4.005  -4.753   2.246  0.00  0.00    -0.169 OA
BRANCH  25  28
ATOM     28  C   UNL     1      -4.117  -4.135   4.697  0.00  0.00    +0.090 A 
ATOM     29  C   UNL     1      -3.889  -5.455   5.035  0.00  0.00    +0.030 A 
ATOM     30  C   UNL     1      -4.097  -5.884   6.332  0.00  0.00    +0.042 A 
ATOM     31  C   UNL     1      -4.547  -4.993   7.291  0.00  0.00    +0.142 A 
ATOM     32  C   UNL     1      -4.782  -3.670   6.950  0.00  0.00    +0.078 A 
ATOM     33  C   UNL     1      -4.566  -3.243   5.653  0.00  0.00    +0.049 A 
ATOM     34 CL   UNL     1      -5.345  -2.551   8.152  0.00  0.00    -0.081 Cl
ATOM     35  F   UNL     1      -4.757  -5.412   8.558  0.00  0.00    -0.204 F 
ENDBRANCH  25  28
ENDBRANCH  24  25
ENDBRANCH   3  24
TORSDOF 8
