REMARK  Name = ZINC26331871
REMARK  10 active torsions:
REMARK  status: ('A' for Active; 'I' for Inactive)
REMARK    1  A    between atoms: C_1  and  C_2
REMARK    2  A    between atoms: C_2  and  N_3
REMARK    3  A    between atoms: C_7  and  C_9
REMARK    4  A    between atoms: C_9  and  N_10
REMARK    5  A    between atoms: N_10  and  C_11
REMARK    6  A    between atoms: C_11  and  C_12
REMARK    7  A    between atoms: C_18  and  C_24
REMARK    8  A    between atoms: N_27  and  C_28
REMARK    9  A    between atoms: C_33  and  O_34
REMARK   10  A    between atoms: O_34  and  C_35
REMARK                            x       y       z     vdW  Elec       q    Type
REMARK                         _______ _______ _______ _____ _____    ______ ____
ROOT
ATOM      1  N   UNL     1       1.205   3.870   0.910  0.00  0.00    -0.282 N 
ATOM      2  C   UNL     1       0.053   3.977   1.602  0.00  0.00    +0.307 C 
ATOM      3  O   UNL     1      -1.010   3.774   1.047  0.00  0.00    -0.252 OA
ATOM      4  N   UNL     1       0.080   4.309   2.908  0.00  0.00    -0.266 N 
ATOM      5  H   UNL     1       1.032   4.581   3.387  0.00  0.00    +0.156 HD
ENDROOT
BRANCH   4   6
ATOM      6  C   UNL     1      -1.106   4.308   3.655  0.00  0.00    +0.077 A 
ATOM      7  C   UNL     1      -2.211   3.599   3.206  0.00  0.00    +0.027 A 
ATOM      8  C   UNL     1      -3.378   3.599   3.946  0.00  0.00    +0.002 A 
ATOM      9  C   UNL     1      -3.449   4.304   5.133  0.00  0.00    +0.004 A 
ATOM     10  C   UNL     1      -2.352   5.013   5.587  0.00  0.00    +0.047 A 
ATOM     11  C   UNL     1      -1.177   5.014   4.854  0.00  0.00    +0.141 A 
BRANCH  11  12
ATOM     12  O   UNL     1      -0.095   5.707   5.301  0.00  0.00    -0.493 OA
ATOM     13  C   UNL     1      -0.240   6.407   6.539  0.00  0.00    +0.277 C 
ENDBRANCH  11  12
ENDBRANCH   4   6
BRANCH   1  14
ATOM     14  C   UNL     1       2.486   4.114   1.578  0.00  0.00    +0.094 C 
BRANCH  14  19
ATOM     15  N   UNL     1       2.849   6.011   0.038  0.00  0.00    +0.382 N 
ATOM     16  C   UNL     1       3.946   6.974  -0.169  0.00  0.00    -0.078 C 
ATOM     17  C   UNL     1       4.672   7.138   1.183  0.00  0.00    -0.020 C 
ATOM     18  C   UNL     1       4.302   5.835   1.939  0.00  0.00    -0.016 C 
ATOM     19  C   UNL     1       2.849   5.595   1.457  0.00  0.00    -0.051 C 
ATOM     20  H   UNL     1       2.999   5.134  -0.608  0.00  0.00    -0.081 HD
BRANCH  15  22
ATOM     21  C   UNL     1       1.625   7.104  -1.780  0.00  0.00    -0.017 C 
ATOM     22  C   UNL     1       1.556   6.599  -0.337  0.00  0.00    -0.082 C 
ENDBRANCH  15  22
ENDBRANCH  14  19
ENDBRANCH   1  14
BRANCH   1  23
ATOM     23  C   UNL     1       1.176   3.509  -0.509  0.00  0.00    +0.149 C 
BRANCH  23  24
ATOM     24  C   UNL     1       1.247   2.010  -0.648  0.00  0.00    +0.035 A 
ATOM     25  C   UNL     1       0.106   1.288  -0.773  0.00  0.00    +0.020 A 
ATOM     26  C   UNL     1       0.209  -0.166  -0.906  0.00  0.00    -0.001 A 
ATOM     27  C   UNL     1      -0.932  -0.964  -1.038  0.00  0.00    +0.010 A 
ATOM     28  C   UNL     1      -0.802  -2.318  -1.161  0.00  0.00    +0.001 A 
ATOM     29  C   UNL     1       0.454  -2.910  -1.154  0.00  0.00    +0.005 A 
ATOM     30  C   UNL     1       1.592  -2.144  -1.025  0.00  0.00    -0.026 A 
ATOM     31  C   UNL     1       1.484  -0.763  -0.899  0.00  0.00    +0.052 A 
ATOM     32  N   UNL     1       2.606   0.027  -0.768  0.00  0.00    -0.322 N 
ATOM     33  H   UNL     1       3.605  -0.433  -0.761  0.00  0.00    +0.169 HD
ATOM     34  C   UNL     1       2.501   1.362  -0.646  0.00  0.00    +0.254 A 
ATOM     35  O   UNL     1       3.514   2.030  -0.532  0.00  0.00    -0.268 OA
ATOM     36  C   UNL     1       2.949  -2.801  -1.019  0.00  0.00    +0.046 C 
ENDBRANCH  23  24
ENDBRANCH   1  23
TORSDOF 7
