REMARK  Name = ZINC47057759
REMARK  7 active torsions:
REMARK  status: ('A' for Active; 'I' for Inactive)
REMARK    1  A    between atoms: C_1  and  C_2
REMARK    2  A    between atoms: C_2  and  C_3
REMARK    3  A    between atoms: C_2  and  N_4
REMARK    4  A    between atoms: C_11  and  C_14
REMARK    5  A    between atoms: N_16  and  C_17
REMARK    6  A    between atoms: C_17  and  C_18
REMARK    7  A    between atoms: N_20  and  C_21
REMARK                            x       y       z     vdW  Elec       q    Type
REMARK                         _______ _______ _______ _____ _____    ______ ____
ROOT
ATOM      1  N   UNL     1      -1.371  -0.513   0.017  0.00  0.00    -0.297 N 
ATOM      2  C   UNL     1      -1.643  -1.734  -0.485  0.00  0.00    +0.302 C 
ATOM      3  O   UNL     1      -0.766  -2.378  -1.028  0.00  0.00    -0.253 OA
ATOM      4  N   UNL     1      -2.888  -2.242  -0.385  0.00  0.00    -0.285 N 
ATOM      5  C   UNL     1      -3.985  -1.431   0.160  0.00  0.00    +0.109 C 
ATOM      6  C   UNL     1      -5.141  -1.429  -0.846  0.00  0.00    +0.020 C 
ATOM      7  C   UNL     1      -5.529  -2.872  -1.174  0.00  0.00    +0.016 C 
ATOM      8  C   UNL     1      -4.337  -3.590  -1.811  0.00  0.00    +0.092 C 
ATOM      9  C   UNL     1      -3.173  -3.615  -0.823  0.00  0.00    +0.122 C 
ATOM     10  H   UNL     1      -2.086   0.030   0.385  0.00  0.00    +0.150 HD
ENDROOT
BRANCH   8  11
ATOM     11  C   UNL     1      -4.730  -5.002  -2.164  0.00  0.00    +0.218 C 
ATOM     12  O   UNL     1      -5.853  -5.395  -1.930  0.00  0.00    -0.275 OA
ATOM     13  N   UNL     1      -3.834  -5.827  -2.741  0.00  0.00    -0.306 N 
ATOM     14  H   UNL     1      -2.936  -5.512  -2.928  0.00  0.00    +0.149 HD
BRANCH  13  15
ATOM     15  C   UNL     1      -4.216  -7.199  -3.084  0.00  0.00    +0.200 C 
BRANCH  15  16
ATOM     16  C   UNL     1      -3.042  -7.905  -3.711  0.00  0.00    +0.230 C 
ATOM     17  O   UNL     1      -1.989  -7.320  -3.857  0.00  0.00    -0.274 OA
ATOM     18  N   UNL     1      -3.161  -9.187  -4.110  0.00  0.00    -0.317 N 
ATOM     19  C   UNL     1      -2.019  -9.873  -4.720  0.00  0.00    +0.128 C 
ATOM     20  H   UNL     1      -4.003  -9.655  -3.994  0.00  0.00    +0.148 HD
ENDBRANCH  15  16
ENDBRANCH  13  15
ENDBRANCH   8  11
BRANCH   1  22
ATOM     21  C   UNL     1      -0.017   1.524   0.020  0.00  0.00    +0.027 C 
ATOM     22  C   UNL     1       0.003  -0.006   0.006  0.00  0.00    +0.068 C 
ATOM     23  C   UNL     1       0.745  -0.518   1.242  0.00  0.00    +0.027 C 
ENDBRANCH   1  22
TORSDOF 4
