REMARK  Name = ZINC09510550
REMARK  8 active torsions:
REMARK  status: ('A' for Active; 'I' for Inactive)
REMARK    1  A    between atoms: C_1  and  C_2
REMARK    2  A    between atoms: C_2  and  C_4
REMARK    3  A    between atoms: C_2  and  C_5
REMARK    4  A    between atoms: C_5  and  C_7
REMARK    5  A    between atoms: C_5  and  N_16
REMARK    6  A    between atoms: N_9  and  C_10
REMARK    7  A    between atoms: C_17  and  C_19
REMARK    8  A    between atoms: N_24  and  C_26
REMARK                            x       y       z     vdW  Elec       q    Type
REMARK                         _______ _______ _______ _____ _____    ______ ____
ROOT
ATOM      1  N   UNL     1       6.710  -0.143   6.184  0.00  0.00    -0.303 N 
ATOM      2  C   UNL     1       5.718  -0.850   5.606  0.00  0.00    +0.219 C 
ATOM      3  O   UNL     1       4.948  -1.487   6.293  0.00  0.00    -0.275 OA
ATOM      4  H   UNL     1       7.326   0.366   5.636  0.00  0.00    +0.149 HD
ENDROOT
BRANCH   2   5
ATOM      5  C   UNL     1       5.567  -0.848   4.107  0.00  0.00    +0.101 C 
ATOM      6  C   UNL     1       5.143   0.548   3.595  0.00  0.00    +0.110 C 
ATOM      7  C   UNL     1       3.633   0.476   3.528  0.00  0.00    +0.221 C 
ATOM      8  O   UNL     1       2.895   1.435   3.440  0.00  0.00    -0.275 OA
ATOM      9  N   UNL     1       3.228  -0.804   3.583  0.00  0.00    -0.271 N 
ATOM     10  C   UNL     1       4.370  -1.722   3.671  0.00  0.00    +0.127 C 
BRANCH   9  11
ATOM     11  C   UNL     1       1.887  -1.211   3.555  0.00  0.00    +0.040 A 
ATOM     12  C   UNL     1       1.573  -2.562   3.497  0.00  0.00    +0.027 A 
ATOM     13  C   UNL     1       0.252  -2.965   3.470  0.00  0.00    +0.051 A 
ATOM     14  C   UNL     1      -0.763  -2.023   3.499  0.00  0.00    +0.166 A 
ATOM     15  C   UNL     1      -0.451  -0.666   3.557  0.00  0.00    +0.168 A 
ATOM     16  C   UNL     1       0.874  -0.264   3.585  0.00  0.00    +0.073 A 
ATOM     17  O   UNL     1      -1.614   0.049   3.575  0.00  0.00    -0.453 OA
ATOM     18  C   UNL     1      -2.639  -0.894   3.940  0.00  0.00    +0.466 C 
ATOM     19  O   UNL     1      -2.123  -2.157   3.481  0.00  0.00    -0.453 OA
ENDBRANCH   9  11
ENDBRANCH   2   5
BRANCH   1  20
ATOM     20  C   UNL     1       6.857  -0.145   7.642  0.00  0.00    +0.161 C 
BRANCH  20  21
ATOM     21  C   UNL     1       7.565   1.112   8.077  0.00  0.00    +0.234 C 
ATOM     22  O   UNL     1       8.233   1.738   7.282  0.00  0.00    -0.274 OA
ATOM     23  N   UNL     1       7.455   1.541   9.350  0.00  0.00    -0.311 N 
ATOM     24  H   UNL     1       6.981   1.004  10.004  0.00  0.00    +0.149 HD
BRANCH  23  25
ATOM     25  C   UNL     1       8.052   2.819   9.746  0.00  0.00    +0.073 C 
ATOM     26  C   UNL     1       9.525   2.606  10.099  0.00  0.00    +0.022 C 
ATOM     27  C   UNL     1      10.149   3.941  10.513  0.00  0.00    +0.002 C 
ATOM     28  C   UNL     1       9.407   4.494  11.732  0.00  0.00    +0.000 C 
ATOM     29  C   UNL     1       7.934   4.707  11.378  0.00  0.00    +0.002 C 
ATOM     30  C   UNL     1       7.310   3.373  10.964  0.00  0.00    +0.022 C 
ENDBRANCH  23  25
ENDBRANCH  20  21
BRANCH  20  32
ATOM     31  C   UNL     1       6.901  -2.641   7.734  0.00  0.00    +0.009 C 
ATOM     32  C   UNL     1       7.674  -1.365   8.071  0.00  0.00    +0.012 C 
ATOM     33  C   UNL     1       9.012  -1.369   7.329  0.00  0.00    +0.009 C 
ENDBRANCH  20  32
ENDBRANCH   1  20
TORSDOF 6
