REMARK  Name = ZINC60391012
REMARK  16 active torsions:
REMARK  status: ('A' for Active; 'I' for Inactive)
REMARK    1  A    between atoms: C_1  and  C_2
REMARK    2  A    between atoms: C_2  and  N_3
REMARK    3  A    between atoms: N_3  and  C_4
REMARK    4  A    between atoms: N_3  and  C_6
REMARK    5  A    between atoms: C_4  and  C_5
REMARK    6  A    between atoms: C_6  and  C_8
REMARK    7  A    between atoms: C_6  and  C_30
REMARK    8  A    between atoms: C_8  and  N_9
REMARK    9  A    between atoms: C_10  and  C_12
REMARK   10  A    between atoms: C_12  and  C_14
REMARK   11  A    between atoms: C_12  and  N_18
REMARK   12  A    between atoms: C_14  and  C_15
REMARK   13  A    between atoms: C_15  and  S_16
REMARK   14  A    between atoms: S_16  and  C_17
REMARK   15  A    between atoms: C_19  and  C_21
REMARK   16  A    between atoms: C_25  and  N_27
REMARK                            x       y       z     vdW  Elec       q    Type
REMARK                         _______ _______ _______ _____ _____    ______ ____
ROOT
ATOM      1  N   UNL     1       1.963   0.990  -1.088  0.00  0.00    -0.315 N 
ATOM      2  C   UNL     1       2.838   2.005  -0.947  0.00  0.00    +0.233 C 
ATOM      3  O   UNL     1       3.697   2.187  -1.784  0.00  0.00    -0.274 OA
ATOM      4  H   UNL     1       1.239   0.882  -0.452  0.00  0.00    +0.149 HD
ENDROOT
BRANCH   1   5
ATOM      5  C   UNL     1       2.106   0.049  -2.203  0.00  0.00    +0.093 C 
BRANCH   5   6
ATOM      6  C   UNL     1       0.920  -0.918  -2.209  0.00  0.00    -0.020 C 
BRANCH   6   7
ATOM      7  C   UNL     1       1.111  -1.939  -3.301  0.00  0.00    -0.059 A 
ATOM      8  C   UNL     1       2.384  -2.258  -3.735  0.00  0.00    +0.002 A 
ATOM      9  C   UNL     1       2.558  -3.194  -4.736  0.00  0.00    +0.000 A 
ATOM     10  C   UNL     1       1.460  -3.812  -5.304  0.00  0.00    +0.000 A 
ATOM     11  C   UNL     1       0.186  -3.494  -4.870  0.00  0.00    +0.000 A 
ATOM     12  C   UNL     1       0.012  -2.560  -3.865  0.00  0.00    +0.002 A 
ENDBRANCH   6   7
BRANCH   6  13
ATOM     13  N   UNL     1       0.838  -1.599  -0.910  0.00  0.00    +0.385 N 
ATOM     14  H   UNL     1       0.773  -0.913  -0.173  0.00  0.00    -0.081 HD
BRANCH  13  16
ATOM     15  C   UNL     1      -1.611  -1.590  -0.935  0.00  0.00    -0.017 C 
ATOM     16  C   UNL     1      -0.353  -2.459  -0.883  0.00  0.00    -0.081 C 
ENDBRANCH  13  16
BRANCH  13  17
ATOM     17  C   UNL     1       2.039  -2.421  -0.711  0.00  0.00    -0.081 C 
ATOM     18  C   UNL     1       3.122  -1.583  -0.026  0.00  0.00    -0.017 C 
ENDBRANCH  13  17
ENDBRANCH   6  13
ENDBRANCH   5   6
ENDBRANCH   1   5
BRANCH   2  19
ATOM     19  C   UNL     1       2.750   2.915   0.251  0.00  0.00    +0.160 C 
BRANCH  19  20
ATOM     20  N   UNL     1       3.688   4.029   0.088  0.00  0.00    -0.300 N 
ATOM     21  C   UNL     1       3.463   5.197   0.721  0.00  0.00    +0.245 C 
ATOM     22  O   UNL     1       2.482   5.327   1.427  0.00  0.00    -0.270 OA
ATOM     23  H   UNL     1       4.471   3.925  -0.474  0.00  0.00    +0.150 HD
BRANCH  21  24
ATOM     24  C   UNL     1       4.410   6.321   0.558  0.00  0.00    +0.039 A 
ATOM     25  C   UNL     1       5.535   6.176  -0.256  0.00  0.00    +0.013 A 
ATOM     26  C   UNL     1       6.415   7.229  -0.405  0.00  0.00    +0.003 A 
ATOM     27  C   UNL     1       6.184   8.425   0.251  0.00  0.00    +0.033 A 
ATOM     28  C   UNL     1       5.071   8.574   1.060  0.00  0.00    +0.127 A 
ATOM     29  C   UNL     1       4.180   7.532   1.212  0.00  0.00    +0.045 A 
BRANCH  28  30
ATOM     30  N   UNL     1       4.832   9.858   1.758  0.00  0.00    +0.056 N 
ATOM     31  O   UNL     1       5.609  10.774   1.621  0.00  0.00    -0.126 OA
ATOM     32  O   UNL     1       3.861   9.990   2.464  0.00  0.00    -0.126 OA
ENDBRANCH  28  30
ENDBRANCH  21  24
ENDBRANCH  19  20
BRANCH  19  33
ATOM     33  C   UNL     1       3.103   2.130   1.515  0.00  0.00    +0.042 C 
BRANCH  33  34
ATOM     34  C   UNL     1       2.992   3.048   2.734  0.00  0.00    +0.071 C 
BRANCH  34  35
ATOM     35  S   UNL     1       3.411   2.117   4.233  0.00  0.00    -0.164 S 
ATOM     36  C   UNL     1       3.232   3.332   5.568  0.00  0.00    +0.084 C 
ENDBRANCH  34  35
ENDBRANCH  33  34
ENDBRANCH  19  33
ENDBRANCH   2  19
TORSDOF 13
