REMARK  Name = ZINC09481666
REMARK  8 active torsions:
REMARK  status: ('A' for Active; 'I' for Inactive)
REMARK    1  A    between atoms: C_1  and  C_2
REMARK    2  A    between atoms: C_2  and  S_3
REMARK    3  A    between atoms: S_3  and  N_6
REMARK    4  A    between atoms: C_13  and  C_15
REMARK    5  A    between atoms: C_15  and  C_17
REMARK    6  A    between atoms: C_17  and  N_18
REMARK    7  A    between atoms: C_21  and  C_26
REMARK    8  A    between atoms: C_26  and  C_27
REMARK                            x       y       z     vdW  Elec       q    Type
REMARK                         _______ _______ _______ _____ _____    ______ ____
ROOT
ATOM      1  N   UNL     1       0.305   2.078  -3.197  0.00  0.00    -0.217 N 
ATOM      2  C   UNL     1      -0.137   1.018  -2.492  0.00  0.00    +0.244 C 
ATOM      3  O   UNL     1      -0.059  -0.151  -2.801  0.00  0.00    -0.273 OA
ATOM      4  C   UNL     1      -0.753   1.593  -1.232  0.00  0.00    +0.165 C 
ATOM      5  N   UNL     1      -0.568   3.046  -1.387  0.00  0.00    -0.287 N 
ATOM      6  C   UNL     1       0.058   3.230  -2.564  0.00  0.00    +0.310 C 
ATOM      7  O   UNL     1       0.364   4.322  -3.002  0.00  0.00    -0.252 OA
ATOM      8  H   UNL     1      -0.844   3.735  -0.763  0.00  0.00    +0.151 HD
ENDROOT
BRANCH   1   9
ATOM      9  C   UNL     1       0.976   1.981  -4.496  0.00  0.00    +0.197 C 
BRANCH   9  10
ATOM     10  C   UNL     1      -0.052   2.036  -5.597  0.00  0.00    +0.181 C 
ATOM     11  O   UNL     1      -1.229   2.147  -5.323  0.00  0.00    -0.290 OA
BRANCH  10  19
ATOM     12  N   UNL     1       1.360   1.751 -11.029  0.00  0.00    -0.207 N 
ATOM     13  C   UNL     1       0.075   1.841 -11.727  0.00  0.00    +0.136 C 
ATOM     14  C   UNL     1      -0.980   1.965 -10.615  0.00  0.00    +0.058 C 
ATOM     15  C   UNL     1      -0.180   1.935  -9.332  0.00  0.00    -0.023 A 
ATOM     16  C   UNL     1       1.167   1.809  -9.655  0.00  0.00    +0.054 A 
ATOM     17  C   UNL     1       2.116   1.758  -8.627  0.00  0.00    +0.026 A 
ATOM     18  C   UNL     1       1.729   1.836  -7.322  0.00  0.00    +0.013 A 
ATOM     19  C   UNL     1       0.371   1.957  -7.000  0.00  0.00    +0.019 A 
ATOM     20  C   UNL     1      -0.580   2.008  -8.028  0.00  0.00    +0.017 A 
BRANCH  12  21
ATOM     21  S   UNL     1       2.833   1.601 -11.772  0.00  0.00    +0.045 S 
ATOM     22  O   UNL     1       2.652   2.183 -13.056  0.00  0.00    -0.155 OA
ATOM     23  O   UNL     1       3.762   2.153 -10.850  0.00  0.00    -0.155 OA
BRANCH  21  25
ATOM     24  C   UNL     1       4.441  -0.447 -12.609  0.00  0.00    +0.030 C 
ATOM     25  C   UNL     1       3.096  -0.187 -11.928  0.00  0.00    +0.185 C 
ENDBRANCH  21  25
ENDBRANCH  12  21
ENDBRANCH  10  19
ENDBRANCH   9  10
ENDBRANCH   1   9
BRANCH   4  26
ATOM     26  C   UNL     1      -0.013   1.086   0.008  0.00  0.00    +0.069 C 
BRANCH  26  27
ATOM     27  C   UNL     1      -0.718   1.572   1.248  0.00  0.00    -0.020 A 
ATOM     28  C   UNL     1      -0.420   2.672   1.957  0.00  0.00    +0.087 A 
ATOM     29  N   UNL     1      -1.277   2.791   3.017  0.00  0.00    -0.360 N 
ATOM     30  H   UNL     1      -1.258   3.506   3.672  0.00  0.00    +0.165 HD
ATOM     31  C   UNL     1      -2.171   1.743   3.016  0.00  0.00    +0.047 A 
ATOM     32  C   UNL     1      -1.863   0.937   1.904  0.00  0.00    +0.003 A 
ATOM     33  C   UNL     1      -2.611  -0.215   1.651  0.00  0.00    +0.010 A 
ATOM     34  C   UNL     1      -3.645  -0.548   2.480  0.00  0.00    +0.001 A 
ATOM     35  C   UNL     1      -3.956   0.247   3.575  0.00  0.00    +0.002 A 
ATOM     36  C   UNL     1      -3.228   1.385   3.846  0.00  0.00    +0.026 A 
ENDBRANCH  26  27
ENDBRANCH   4  26
TORSDOF 7
