REMARK  Name = ZINC09424587
REMARK  5 active torsions:
REMARK  status: ('A' for Active; 'I' for Inactive)
REMARK    1  A    between atoms: C_8  and  C_11
REMARK    2  A    between atoms: N_21  and  S_22
REMARK    3  A    between atoms: S_22  and  O_24
REMARK    4  A    between atoms: O_24  and  C_25
REMARK    5  A    between atoms: C_28  and  N_31
REMARK                            x       y       z     vdW  Elec       q    Type
REMARK                         _______ _______ _______ _____ _____    ______ ____
ROOT
ATOM      1  C   UNL     1       1.709  -1.901  -0.024  0.00  0.00    +0.167 C 
ATOM      2  C   UNL     1       1.984  -2.358   1.386  0.00  0.00    -0.013 A 
ATOM      3  C   UNL     1       0.972  -2.844   2.180  0.00  0.00    +0.006 A 
ATOM      4  C   UNL     1       1.240  -3.237   3.480  0.00  0.00    +0.000 A 
ATOM      5  C   UNL     1       2.523  -3.141   3.990  0.00  0.00    +0.001 A 
ATOM      6  C   UNL     1       3.550  -2.662   3.202  0.00  0.00    +0.008 A 
ATOM      7  C   UNL     1       3.290  -2.283   1.886  0.00  0.00    -0.018 A 
ATOM      8  C   UNL     1       4.368  -1.778   1.015  0.00  0.00    +0.024 C 
ATOM      9  C   UNL     1       4.150  -1.669  -0.302  0.00  0.00    +0.089 C 
ATOM     10  N   UNL     1       2.928  -2.057  -0.826  0.00  0.00    -0.212 N 
ENDROOT
BRANCH   1  18
ATOM     11  C   UNL     1       0.593   4.082   0.018  0.00  0.00    +0.001 A 
ATOM     12  C   UNL     1      -0.730   3.659   0.029  0.00  0.00    +0.002 A 
ATOM     13  C   UNL     1      -1.038   2.317   0.029  0.00  0.00    +0.026 A 
ATOM     14  C   UNL     1      -0.017   1.373   0.010  0.00  0.00    +0.047 A 
ATOM     15  C   UNL     1       1.322   1.806  -0.001  0.00  0.00    -0.000 A 
ATOM     16  C   UNL     1       1.612   3.172   0.004  0.00  0.00    +0.010 A 
ATOM     17  C   UNL     1       2.140   0.591  -0.015  0.00  0.00    +0.033 A 
ATOM     18  C   UNL     1       1.295  -0.452  -0.013  0.00  0.00    +0.043 A 
ATOM     19  N   UNL     1       0.002  -0.004   0.002  0.00  0.00    -0.356 N 
ATOM     20  H   UNL     1      -0.784  -0.572   0.007  0.00  0.00    +0.166 HD
ENDBRANCH   1  18
BRANCH  10  21
ATOM     21  S   UNL     1       2.842  -2.693  -2.353  0.00  0.00    +0.312 S 
ATOM     22  O   UNL     1       2.220  -1.670  -3.118  0.00  0.00    -0.193 OA
BRANCH  21  23
ATOM     23  O   UNL     1       4.286  -2.687  -2.836  0.00  0.00    -0.386 OA
BRANCH  23  24
ATOM     24  C   UNL     1       4.451  -3.178  -4.092  0.00  0.00    +0.143 A 
ATOM     25  C   UNL     1       4.696  -4.529  -4.283  0.00  0.00    +0.049 A 
ATOM     26  C   UNL     1       4.859  -5.027  -5.562  0.00  0.00    +0.036 A 
ATOM     27  C   UNL     1       4.787  -4.176  -6.650  0.00  0.00    +0.126 A 
ATOM     28  C   UNL     1       4.548  -2.827  -6.462  0.00  0.00    +0.036 A 
ATOM     29  C   UNL     1       4.380  -2.326  -5.185  0.00  0.00    +0.049 A 
BRANCH  27  30
ATOM     30  N   UNL     1       4.968  -4.710  -8.018  0.00  0.00    +0.056 N 
ATOM     31  O   UNL     1       4.905  -3.962  -8.977  0.00  0.00    -0.126 OA
ATOM     32  O   UNL     1       5.179  -5.898  -8.185  0.00  0.00    -0.126 OA
ENDBRANCH  27  30
ENDBRANCH  23  24
ENDBRANCH  21  23
ENDBRANCH  10  21
TORSDOF 5
