REMARK  Name = ZINC05619737
REMARK  8 active torsions:
REMARK  status: ('A' for Active; 'I' for Inactive)
REMARK    1  A    between atoms: C_1  and  C_2
REMARK    2  A    between atoms: C_6  and  O_8
REMARK    3  A    between atoms: O_8  and  C_9
REMARK    4  A    between atoms: C_9  and  C_11
REMARK    5  A    between atoms: C_9  and  C_12
REMARK    6  A    between atoms: N_14  and  N_15
REMARK    7  A    between atoms: C_16  and  C_17
REMARK    8  A    between atoms: C_21  and  N_23
REMARK                            x       y       z     vdW  Elec       q    Type
REMARK                         _______ _______ _______ _____ _____    ______ ____
ROOT
ATOM      1  C   UNL     1      -2.244   1.077   1.486  0.00  0.00    +0.273 C 
ATOM      2  O   UNL     1      -2.465   0.164   2.254  0.00  0.00    -0.270 OA
ATOM      3  N   UNL     1      -3.229   1.545   0.695  0.00  0.00    -0.204 N 
ATOM      4  H   UNL     1      -3.053   2.275   0.081  0.00  0.00    +0.177 HD
ENDROOT
BRANCH   1   5
ATOM      5  C   UNL     1      -0.868   1.688   1.418  0.00  0.00    +0.257 C 
ATOM      6  C   UNL     1      -0.260   1.422   0.039  0.00  0.00    +0.062 C 
BRANCH   5   7
ATOM      7  O   UNL     1      -0.038   1.106   2.425  0.00  0.00    -0.480 OA
BRANCH   7  13
ATOM      8  C   UNL     1       3.709   1.657   5.503  0.00  0.00    +0.044 C 
ATOM      9  C   UNL     1       2.862   2.149   4.358  0.00  0.00    -0.047 A 
ATOM     10  C   UNL     1       3.155   3.357   3.750  0.00  0.00    +0.003 A 
ATOM     11  C   UNL     1       2.380   3.811   2.700  0.00  0.00    +0.004 A 
ATOM     12  C   UNL     1       1.310   3.059   2.254  0.00  0.00    +0.046 A 
ATOM     13  C   UNL     1       1.014   1.847   2.861  0.00  0.00    +0.122 A 
ATOM     14  C   UNL     1       1.791   1.396   3.919  0.00  0.00    +0.049 A 
ENDBRANCH   7  13
ENDBRANCH   5   7
ENDBRANCH   1   5
BRANCH   3  15
ATOM     15  N   UNL     1      -4.509   0.977   0.759  0.00  0.00    -0.188 NA
ATOM     16  C   UNL     1      -5.457   1.428  -0.003  0.00  0.00    +0.138 C 
BRANCH  16  17
ATOM     17  C   UNL     1      -6.804   0.830   0.064  0.00  0.00    -0.003 A 
ATOM     18  C   UNL     1      -7.060  -0.225   0.943  0.00  0.00    +0.011 A 
ATOM     19  C   UNL     1      -8.322  -0.776   1.005  0.00  0.00    +0.023 A 
ATOM     20  C   UNL     1      -9.333  -0.292   0.190  0.00  0.00    +0.071 A 
ATOM     21  C   UNL     1      -9.084   0.750  -0.687  0.00  0.00    +0.145 A 
ATOM     22  C   UNL     1      -7.827   1.313  -0.754  0.00  0.00    +0.043 A 
ATOM     23 CL   UNL     1     -10.918  -0.996   0.270  0.00  0.00    -0.081 Cl
BRANCH  21  24
ATOM     24  N   UNL     1     -10.170   1.260  -1.554  0.00  0.00    +0.058 N 
ATOM     25  O   UNL     1      -9.953   2.177  -2.326  0.00  0.00    -0.126 OA
ATOM     26  O   UNL     1     -11.280   0.763  -1.495  0.00  0.00    -0.126 OA
ENDBRANCH  21  24
ENDBRANCH  16  17
ENDBRANCH   3  15
TORSDOF 6
