REMARK  Name = ZINC00931361
REMARK  11 active torsions:
REMARK  status: ('A' for Active; 'I' for Inactive)
REMARK    1  A    between atoms: C_1  and  C_2
REMARK    2  A    between atoms: C_2  and  O_3
REMARK    3  A    between atoms: O_3  and  C_4
REMARK    4  A    between atoms: C_7  and  N_10
REMARK    5  A    between atoms: N_10  and  C_11
REMARK    6  A    between atoms: C_11  and  C_13
REMARK    7  A    between atoms: C_11  and  C_20
REMARK    8  A    between atoms: N_15  and  C_19
REMARK    9  A    between atoms: C_17  and  C_18
REMARK   10  A    between atoms: N_22  and  C_23
REMARK   11  A    between atoms: C_29  and  C_31
REMARK                            x       y       z     vdW  Elec       q    Type
REMARK                         _______ _______ _______ _____ _____    ______ ____
ROOT
ATOM      1  N   UNL     1      -0.049   2.347  -5.628  0.00  0.00    -0.252 N 
ATOM      2  C   UNL     1      -1.134   2.484  -6.415  0.00  0.00    +0.265 C 
ATOM      3  O   UNL     1      -1.181   3.378  -7.234  0.00  0.00    -0.271 OA
ENDROOT
BRANCH   2   4
ATOM      4  C   UNL     1      -2.290   1.527  -6.278  0.00  0.00    +0.296 C 
ATOM      5  C   UNL     1      -1.853   0.122  -6.712  0.00  0.00    +0.283 C 
ATOM      6  O   UNL     1      -2.976  -0.757  -6.581  0.00  0.00    -0.484 OA
ATOM      7  C   UNL     1      -4.164  -0.310  -7.074  0.00  0.00    +0.162 A 
ATOM      8  C   UNL     1      -5.188  -1.215  -7.306  0.00  0.00    +0.049 A 
ATOM      9  C   UNL     1      -6.401  -0.776  -7.803  0.00  0.00    +0.004 A 
ATOM     10  C   UNL     1      -6.596   0.567  -8.069  0.00  0.00    +0.004 A 
ATOM     11  C   UNL     1      -5.579   1.474  -7.840  0.00  0.00    +0.049 A 
ATOM     12  C   UNL     1      -4.359   1.039  -7.343  0.00  0.00    +0.163 A 
ATOM     13  O   UNL     1      -3.366   1.944  -7.126  0.00  0.00    -0.472 OA
ENDBRANCH   2   4
BRANCH   1  17
ATOM     14  C   UNL     1       3.266   4.812  -6.200  0.00  0.00    +0.121 A 
ATOM     15  C   UNL     1       2.099   5.043  -6.914  0.00  0.00    +0.047 A 
ATOM     16  C   UNL     1       1.001   4.227  -6.725  0.00  0.00    +0.027 A 
ATOM     17  C   UNL     1       1.065   3.175  -5.821  0.00  0.00    +0.038 A 
ATOM     18  C   UNL     1       2.232   2.948  -5.103  0.00  0.00    +0.027 A 
ATOM     19  C   UNL     1       3.331   3.761  -5.297  0.00  0.00    +0.047 A 
BRANCH  14  20
ATOM     20  O   UNL     1       4.346   5.616  -6.387  0.00  0.00    -0.492 OA
BRANCH  20  22
ATOM     21  C   UNL     1       6.618   6.324  -5.962  0.00  0.00    +0.048 C 
ATOM     22  C   UNL     1       5.515   5.320  -5.619  0.00  0.00    +0.225 C 
ENDBRANCH  20  22
ENDBRANCH  14  20
ENDBRANCH   1  17
BRANCH   1  23
ATOM     23  C   UNL     1      -0.033   1.332  -4.572  0.00  0.00    +0.200 C 
BRANCH  23  24
ATOM     24  C   UNL     1       0.072   2.007  -3.229  0.00  0.00    +0.022 A 
ATOM     25  C   UNL     1       0.526   3.261  -3.001  0.00  0.00    +0.114 A 
ATOM     26  N   UNL     1       0.461   3.487  -1.672  0.00  0.00    -0.274 N 
ATOM     27  N   UNL     1      -0.050   2.333  -1.063  0.00  0.00    -0.176 NA
ATOM     28  C   UNL     1      -0.288   1.449  -1.998  0.00  0.00    +0.065 A 
ATOM     29  C   UNL     1      -0.850   0.067  -1.784  0.00  0.00    +0.068 C 
ATOM     30  C   UNL     1       0.856   4.720  -0.987  0.00  0.00    +0.172 C 
ENDBRANCH  23  24
BRANCH  23  31
ATOM     31  C   UNL     1       1.150   0.419  -4.770  0.00  0.00    +0.239 C 
ATOM     32  O   UNL     1       1.867   0.557  -5.739  0.00  0.00    -0.273 OA
ATOM     33  N   UNL     1       1.411  -0.550  -3.870  0.00  0.00    -0.311 N 
ATOM     34  H   UNL     1       0.838  -0.659  -3.095  0.00  0.00    +0.149 HD
BRANCH  33  35
ATOM     35  C   UNL     1       2.561  -1.437  -4.062  0.00  0.00    +0.073 C 
ATOM     36  C   UNL     1       2.311  -2.760  -3.337  0.00  0.00    +0.022 C 
ATOM     37  C   UNL     1       3.511  -3.687  -3.538  0.00  0.00    +0.002 C 
ATOM     38  C   UNL     1       4.768  -3.024  -2.970  0.00  0.00    +0.000 C 
ATOM     39  C   UNL     1       5.018  -1.700  -3.695  0.00  0.00    +0.002 C 
ATOM     40  C   UNL     1       3.817  -0.774  -3.494  0.00  0.00    +0.022 C 
ENDBRANCH  33  35
ENDBRANCH  23  31
ENDBRANCH   1  23
TORSDOF 8
