REMARK  Name = ZINC08654595
REMARK  9 active torsions:
REMARK  status: ('A' for Active; 'I' for Inactive)
REMARK    1  A    between atoms: C_1  and  C_2
REMARK    2  A    between atoms: C_2  and  N_3
REMARK    3  A    between atoms: N_6  and  C_9
REMARK    4  A    between atoms: C_10  and  C_28
REMARK    5  A    between atoms: C_12  and  C_14
REMARK    6  A    between atoms: C_17  and  C_19
REMARK    7  A    between atoms: C_19  and  O_20
REMARK    8  A    between atoms: O_20  and  C_21
REMARK    9  A    between atoms: C_24  and  C_27
REMARK                            x       y       z     vdW  Elec       q    Type
REMARK                         _______ _______ _______ _____ _____    ______ ____
ROOT
ATOM      1  C   UNL     1      -4.335  -2.837  -1.658  0.00  0.00    +0.227 A 
ATOM      2  C   UNL     1      -4.399  -4.218  -1.553  0.00  0.00    +0.201 A 
ATOM      3  N   UNL     1      -5.269  -4.648  -2.506  0.00  0.00    -0.194 NA
ATOM      4  C   UNL     1      -5.718  -3.606  -3.162  0.00  0.00    +0.266 A 
ATOM      5  O   UNL     1      -5.164  -2.485  -2.658  0.00  0.00    -0.417 OA
ENDROOT
BRANCH   1   9
ATOM      6  N   UNL     1      -2.460   0.377   0.103  0.00  0.00    +0.382 N 
ATOM      7  C   UNL     1      -3.883   0.099   0.336  0.00  0.00    -0.060 C 
ATOM      8  C   UNL     1      -4.108  -1.417   0.362  0.00  0.00    +0.089 C 
ATOM      9  N   UNL     1      -3.574  -1.988  -0.884  0.00  0.00    -0.303 N 
ATOM     10  C   UNL     1      -2.204  -1.628  -1.281  0.00  0.00    +0.089 C 
ATOM     11  C   UNL     1      -2.068  -0.102  -1.228  0.00  0.00    -0.060 C 
ATOM     12  H   UNL     1      -1.908  -0.093   0.805  0.00  0.00    -0.082 HD
BRANCH   6  14
ATOM     13  C   UNL     1      -2.515   2.305   1.612  0.00  0.00    -0.017 C 
ATOM     14  C   UNL     1      -2.226   1.825   0.188  0.00  0.00    -0.082 C 
ENDBRANCH   6  14
ENDBRANCH   1   9
BRANCH   4  15
ATOM     15  C   UNL     1      -6.680  -3.652  -4.272  0.00  0.00    +0.190 A 
ATOM     16  C   UNL     1      -7.256  -4.775  -4.786  0.00  0.00    +0.055 A 
ATOM     17  C   UNL     1      -8.104  -4.355  -5.828  0.00  0.00    +0.049 A 
ATOM     18  C   UNL     1      -8.006  -3.012  -5.901  0.00  0.00    +0.143 A 
ATOM     19  O   UNL     1      -7.150  -2.590  -4.956  0.00  0.00    -0.451 OA
BRANCH  18  20
ATOM     20  C   UNL     1      -8.742  -2.130  -6.877  0.00  0.00    +0.303 C 
BRANCH  20  21
ATOM     21  O   UNL     1      -9.991  -1.730  -6.310  0.00  0.00    -0.484 OA
BRANCH  21  22
ATOM     22  C   UNL     1     -10.782  -0.926  -7.067  0.00  0.00    +0.121 A 
ATOM     23  C   UNL     1     -10.368  -0.534  -8.332  0.00  0.00    +0.046 A 
ATOM     24  C   UNL     1     -11.175   0.283  -9.099  0.00  0.00    +0.007 A 
ATOM     25  C   UNL     1     -12.394   0.712  -8.608  0.00  0.00    -0.050 A 
ATOM     26  C   UNL     1     -12.809   0.323  -7.348  0.00  0.00    +0.007 A 
ATOM     27  C   UNL     1     -12.009  -0.499  -6.579  0.00  0.00    +0.046 A 
ATOM     28  C   UNL     1     -13.272   1.604  -9.447  0.00  0.00    +0.044 C 
ENDBRANCH  21  22
ENDBRANCH  20  21
ENDBRANCH  18  20
ENDBRANCH   4  15
BRANCH   2  29
ATOM     29  C   UNL     1      -3.686  -5.036  -0.619  0.00  0.00    +0.124 C 
ATOM     30  N   UNL     1      -3.120  -5.685   0.122  0.00  0.00    -0.189 NA
ENDBRANCH   2  29
TORSDOF 7
