REMARK  Name = ZINC55742557
REMARK  6 active torsions:
REMARK  status: ('A' for Active; 'I' for Inactive)
REMARK    1  A    between atoms: C_1  and  C_2
REMARK    2  A    between atoms: C_2  and  C_4
REMARK    3  A    between atoms: C_2  and  O_20
REMARK    4  A    between atoms: N_6  and  N_7
REMARK    5  A    between atoms: C_8  and  C_10
REMARK    6  A    between atoms: O_20  and  C_21
REMARK                            x       y       z     vdW  Elec       q    Type
REMARK                         _______ _______ _______ _____ _____    ______ ____
ROOT
ATOM      1  N   UNL     1       0.832  -0.702  -3.606  0.00  0.00    -0.229 N 
ATOM      2  C   UNL     1       0.301  -0.462  -4.821  0.00  0.00    +0.280 C 
ATOM      3  O   UNL     1      -0.747   0.146  -4.917  0.00  0.00    -0.267 OA
ATOM      4  H   UNL     1       1.668  -1.188  -3.529  0.00  0.00    +0.173 HD
ENDROOT
BRANCH   2   5
ATOM      5  C   UNL     1       0.992  -0.938  -6.036  0.00  0.00    +0.152 A 
ATOM      6  C   UNL     1       0.571  -0.763  -7.365  0.00  0.00    +0.005 A 
ATOM      7  C   UNL     1       1.510  -1.363  -8.136  0.00  0.00    +0.040 A 
ATOM      8  N   UNL     1       2.442  -1.866  -7.309  0.00  0.00    -0.281 N 
ATOM      9  H   UNL     1       3.234  -2.349  -7.592  0.00  0.00    +0.189 HD
ATOM     10  N   UNL     1       2.131  -1.608  -6.086  0.00  0.00    -0.169 NA
ATOM     11  C   UNL     1       1.452  -1.418  -9.641  0.00  0.00    +0.055 C 
ATOM     12  C   UNL     1       0.021  -1.083 -10.081  0.00  0.00    +0.006 C 
ATOM     13  C   UNL     1      -0.442   0.203  -9.392  0.00  0.00    +0.005 C 
ATOM     14  C   UNL     1      -0.651  -0.065  -7.895  0.00  0.00    +0.039 C 
ENDBRANCH   2   5
BRANCH   1  17
ATOM     15  C   UNL     1       0.707  -0.490  -1.238  0.00  0.00    +0.258 C 
ATOM     16  O   UNL     1       1.753  -1.097  -1.142  0.00  0.00    -0.271 OA
ATOM     17  N   UNL     1       0.176  -0.250  -2.453  0.00  0.00    -0.232 N 
ATOM     18  H   UNL     1      -0.660   0.235  -2.530  0.00  0.00    +0.173 HD
BRANCH  15  20
ATOM     19  C   UNL     1      -0.019   1.526   0.010  0.00  0.00    +0.048 C 
ATOM     20  C   UNL     1       0.002  -0.004   0.002  0.00  0.00    +0.202 C 
BRANCH  20  21
ATOM     21  O   UNL     1       0.693  -0.477   1.160  0.00  0.00    -0.371 OA
ATOM     22  C   UNL     1      -0.150  -0.689   2.294  0.00  0.00    +0.195 C 
ENDBRANCH  20  21
ENDBRANCH  15  20
ENDBRANCH   1  17
TORSDOF 4
