REMARK  Name = ZINC63161761
REMARK  6 active torsions:
REMARK  status: ('A' for Active; 'I' for Inactive)
REMARK    1  A    between atoms: C_1  and  N_2
REMARK    2  A    between atoms: C_3  and  C_5
REMARK    3  A    between atoms: C_9  and  C_11
REMARK    4  A    between atoms: C_11  and  N_12
REMARK    5  A    between atoms: N_15  and  C_16
REMARK    6  A    between atoms: C_18  and  C_24
REMARK                            x       y       z     vdW  Elec       q    Type
REMARK                         _______ _______ _______ _____ _____    ______ ____
ROOT
ATOM      1  N   UNL     1       3.292  -5.366   2.748  0.00  0.00    -0.295 N 
ATOM      2  C   UNL     1       4.102  -6.027   3.600  0.00  0.00    +0.304 C 
ATOM      3  O   UNL     1       3.636  -6.573   4.581  0.00  0.00    -0.252 OA
ATOM      4  N   UNL     1       5.427  -6.081   3.363  0.00  0.00    -0.265 N 
ATOM      5  H   UNL     1       3.663  -4.930   1.966  0.00  0.00    +0.151 HD
ATOM      6  H   UNL     1       5.790  -5.709   2.544  0.00  0.00    +0.157 HD
ENDROOT
BRANCH   4   7
ATOM      7  C   UNL     1       6.283  -6.675   4.302  0.00  0.00    +0.100 A 
ATOM      8  C   UNL     1       7.073  -7.734   3.946  0.00  0.00    +0.042 A 
ATOM      9  C   UNL     1       7.920  -8.309   4.904  0.00  0.00    +0.073 A 
ATOM     10  C   UNL     1       7.950  -7.816   6.163  0.00  0.00    +0.098 A 
ATOM     11  N   UNL     1       7.166  -6.764   6.519  0.00  0.00    -0.327 N 
ATOM     12  H   UNL     1       7.202  -6.425   7.427  0.00  0.00    +0.168 HD
ATOM     13  C   UNL     1       6.345  -6.183   5.624  0.00  0.00    +0.270 A 
ATOM     14  O   UNL     1       5.651  -5.236   5.956  0.00  0.00    -0.266 OA
BRANCH   9  15
ATOM     15  C   UNL     1       8.796  -9.476   4.530  0.00  0.00    +0.419 C 
ATOM     16  F   UNL     1       9.545  -9.872   5.644  0.00  0.00    -0.166 F 
ATOM     17  F   UNL     1       7.997 -10.542   4.103  0.00  0.00    -0.166 F 
ATOM     18  F   UNL     1       9.661  -9.098   3.498  0.00  0.00    -0.166 F 
ENDBRANCH   9  15
ENDBRANCH   4   7
BRANCH   1  19
ATOM     19  C   UNL     1       1.851  -5.308   3.005  0.00  0.00    +0.141 C 
BRANCH  19  24
ATOM     20  C   UNL     1       0.399  -2.421   1.035  0.00  0.00    +0.037 A 
ATOM     21  C   UNL     1      -0.065  -3.077  -0.107  0.00  0.00    +0.013 A 
ATOM     22  C   UNL     1       0.096  -4.441  -0.228  0.00  0.00    +0.001 A 
ATOM     23  C   UNL     1       0.715  -5.160   0.779  0.00  0.00    +0.005 A 
ATOM     24  C   UNL     1       1.178  -4.516   1.913  0.00  0.00    -0.030 A 
ATOM     25  C   UNL     1       1.028  -3.151   2.044  0.00  0.00    +0.018 A 
BRANCH  20  28
ATOM     26  C   UNL     1      -0.544   1.193   0.329  0.00  0.00    +0.128 C 
ATOM     27  N   UNL     1      -0.377  -0.256   0.194  0.00  0.00    -0.314 N 
ATOM     28  C   UNL     1       0.231  -0.959   1.171  0.00  0.00    +0.244 C 
ATOM     29  O   UNL     1       0.640  -0.390   2.164  0.00  0.00    -0.270 OA
ATOM     30  H   UNL     1      -0.704  -0.711  -0.598  0.00  0.00    +0.149 HD
ENDBRANCH  20  28
ENDBRANCH  19  24
ENDBRANCH   1  19
TORSDOF 5
