REMARK  Name = ZINC64519984
REMARK  5 active torsions:
REMARK  status: ('A' for Active; 'I' for Inactive)
REMARK    1  A    between atoms: C_7  and  C_10
REMARK    2  A    between atoms: C_10  and  C_11
REMARK    3  A    between atoms: C_19  and  C_21
REMARK    4  A    between atoms: C_24  and  C_28
REMARK    5  A    between atoms: C_31  and  N_34
REMARK                            x       y       z     vdW  Elec       q    Type
REMARK                         _______ _______ _______ _____ _____    ______ ____
ROOT
ATOM      1  C   UNL     1       0.460  -3.646  -1.440  0.00  0.00    +0.220 C 
ATOM      2  O   UNL     1       1.006  -3.075  -2.360  0.00  0.00    -0.275 OA
ATOM      3  N   UNL     1      -0.353  -4.693  -1.684  0.00  0.00    -0.298 N 
ATOM      4  C   UNL     1      -1.026  -5.391  -0.580  0.00  0.00    +0.126 C 
ATOM      5  C   UNL     1      -2.536  -5.395  -0.850  0.00  0.00    +0.127 C 
ATOM      6  N   UNL     1      -2.765  -5.859  -2.226  0.00  0.00    -0.295 N 
ATOM      7  C   UNL     1      -2.092  -5.161  -3.330  0.00  0.00    +0.127 C 
ATOM      8  C   UNL     1      -0.587  -5.154  -3.060  0.00  0.00    +0.126 C 
ATOM      9  C   UNL     1      -3.578  -6.905  -2.470  0.00  0.00    +0.262 C 
ATOM     10  O   UNL     1      -4.128  -7.474  -1.550  0.00  0.00    -0.271 OA
ENDROOT
BRANCH   9  11
ATOM     11  C   UNL     1      -3.804  -7.370  -3.885  0.00  0.00    +0.298 C 
ATOM     12  N   UNL     1      -4.612  -6.374  -4.618  0.00  0.00    -0.262 NA
ATOM     13  C   UNL     1      -5.841  -7.077  -5.056  0.00  0.00    +0.180 C 
ATOM     14  N   UNL     1      -5.443  -8.510  -5.058  0.00  0.00    -0.177 NA
ATOM     15  O   UNL     1      -4.544  -8.605  -3.884  0.00  0.00    -0.270 OA
ATOM     16  H   UNL     1      -4.837  -5.586  -4.029  0.00  0.00    +0.127 HD
ATOM     17  H   UNL     1      -6.247  -9.109  -4.948  0.00  0.00    +0.156 HD
BRANCH  13  18
ATOM     18  C   UNL     1      -6.242  -6.633  -6.440  0.00  0.00    -0.014 A 
ATOM     19  C   UNL     1      -5.939  -5.354  -6.870  0.00  0.00    +0.008 A 
ATOM     20  C   UNL     1      -6.306  -4.947  -8.139  0.00  0.00    +0.022 A 
ATOM     21  C   UNL     1      -6.975  -5.818  -8.978  0.00  0.00    +0.013 A 
ATOM     22  C   UNL     1      -7.277  -7.097  -8.548  0.00  0.00    +0.022 A 
ATOM     23  C   UNL     1      -6.906  -7.506  -7.281  0.00  0.00    +0.008 A 
BRANCH  21  24
ATOM     24  N   UNL     1      -7.347  -5.406 -10.261  0.00  0.00    -0.393 NA
ATOM     25  C   UNL     1      -8.807  -5.484 -10.394  0.00  0.00    +0.085 C 
ATOM     26  C   UNL     1      -9.226  -4.957 -11.768  0.00  0.00    +0.017 C 
ATOM     27  C   UNL     1      -8.566  -5.807 -12.858  0.00  0.00    +0.003 C 
ATOM     28  C   UNL     1      -7.048  -5.778 -12.664  0.00  0.00    +0.017 C 
ATOM     29  C   UNL     1      -6.709  -6.275 -11.257  0.00  0.00    +0.085 C 
ATOM     30  H   UNL     1      -7.049  -4.453 -10.406  0.00  0.00    +0.126 HD
ENDBRANCH  21  24
ENDBRANCH  13  18
ENDBRANCH   9  11
BRANCH   1  31
ATOM     31  C   UNL     1       0.691  -3.186  -0.024  0.00  0.00    +0.129 C 
BRANCH  31  38
ATOM     32  C   UNL     1      -0.016   1.348   0.009  0.00  0.00    +0.001 A 
ATOM     33  C   UNL     1       1.166   2.101   0.002  0.00  0.00    +0.002 A 
ATOM     34  C   UNL     1       2.391   1.535  -0.013  0.00  0.00    +0.026 A 
ATOM     35  C   UNL     1       2.529   0.120  -0.022  0.00  0.00    +0.043 A 
ATOM     36  N   UNL     1       3.587  -0.654  -0.037  0.00  0.00    -0.380 N 
ATOM     37  C   UNL     1       3.143  -2.053  -0.041  0.00  0.00    +0.145 C 
ATOM     38  C   UNL     1       1.631  -2.008  -0.025  0.00  0.00    -0.033 C 
ATOM     39  C   UNL     1       1.295  -0.698  -0.014  0.00  0.00    -0.001 A 
ATOM     40  C   UNL     1       0.002  -0.004   0.002  0.00  0.00    +0.010 A 
ATOM     41  H   UNL     1       4.509  -0.353  -0.045  0.00  0.00    +0.160 HD
ENDBRANCH  31  38
ENDBRANCH   1  31
TORSDOF 5
