REMARK  Name = ZINC63138257
REMARK  8 active torsions:
REMARK  status: ('A' for Active; 'I' for Inactive)
REMARK    1  A    between atoms: C_1  and  O_2
REMARK    2  A    between atoms: O_2  and  C_3
REMARK    3  A    between atoms: C_7  and  C_11
REMARK    4  A    between atoms: C_8  and  O_9
REMARK    5  A    between atoms: O_9  and  C_10
REMARK    6  A    between atoms: N_30  and  C_33
REMARK    7  A    between atoms: C_33  and  C_34
REMARK    8  A    between atoms: C_34  and  C_35
REMARK                            x       y       z     vdW  Elec       q    Type
REMARK                         _______ _______ _______ _____ _____    ______ ____
ROOT
ATOM      1  C   UNL     1       1.329  -4.110  -2.298  0.00  0.00    +0.137 C 
ATOM      2  C   UNL     1       2.547  -4.628  -1.527  0.00  0.00    +0.131 C 
ATOM      3  C   UNL     1       3.778  -4.213  -2.322  0.00  0.00    -0.034 C 
ATOM      4  C   UNL     1       4.548  -3.523  -1.489  0.00  0.00    -0.001 A 
ATOM      5  C   UNL     1       5.885  -2.931  -1.653  0.00  0.00    +0.010 A 
ATOM      6  C   UNL     1       6.383  -2.267  -0.577  0.00  0.00    +0.001 A 
ATOM      7  C   UNL     1       5.693  -2.135   0.632  0.00  0.00    +0.002 A 
ATOM      8  C   UNL     1       4.462  -2.652   0.874  0.00  0.00    +0.026 A 
ATOM      9  C   UNL     1       3.836  -3.377  -0.182  0.00  0.00    +0.043 A 
ATOM     10  N   UNL     1       2.672  -3.997  -0.212  0.00  0.00    -0.375 N 
ATOM     11  C   UNL     1       3.933  -4.520  -3.792  0.00  0.00    +0.065 C 
ATOM     12  C   UNL     1       2.632  -4.061  -4.475  0.00  0.00    +0.167 C 
ATOM     13  N   UNL     1       1.478  -4.527  -3.710  0.00  0.00    -0.279 N 
ATOM     14  C   UNL     1       0.539  -5.325  -4.230  0.00  0.00    +0.234 C 
ATOM     15  O   UNL     1      -0.369  -5.673  -3.505  0.00  0.00    -0.274 OA
ATOM     16  C   UNL     1       0.529  -5.818  -5.639  0.00  0.00    +0.203 C 
ATOM     17  N   UNL     1       1.663  -5.324  -6.402  0.00  0.00    -0.291 N 
ATOM     18  C   UNL     1       2.612  -4.537  -5.890  0.00  0.00    +0.237 C 
ATOM     19  O   UNL     1       3.514  -4.185  -6.620  0.00  0.00    -0.274 OA
ATOM     20  H   UNL     1       2.012  -4.030   0.498  0.00  0.00    +0.160 HD
ENDROOT
BRANCH   1  25
ATOM     21  C   UNL     1       0.123  -0.596  -1.569  0.00  0.00    +0.162 A 
ATOM     22  C   UNL     1       1.176   0.159  -2.059  0.00  0.00    +0.049 A 
ATOM     23  C   UNL     1       2.272  -0.467  -2.623  0.00  0.00    +0.004 A 
ATOM     24  C   UNL     1       2.321  -1.847  -2.699  0.00  0.00    +0.009 A 
ATOM     25  C   UNL     1       1.273  -2.606  -2.212  0.00  0.00    +0.021 A 
ATOM     26  C   UNL     1       0.174  -1.985  -1.641  0.00  0.00    +0.166 A 
BRANCH  21  28
ATOM     27  C   UNL     1      -0.940   1.446  -0.974  0.00  0.00    +0.277 C 
ATOM     28  O   UNL     1      -0.956   0.018  -1.014  0.00  0.00    -0.491 OA
ENDBRANCH  21  28
BRANCH  26  29
ATOM     29  O   UNL     1      -0.854  -2.731  -1.156  0.00  0.00    -0.491 OA
ATOM     30  C   UNL     1      -1.910  -3.049  -2.065  0.00  0.00    +0.277 C 
ENDBRANCH  26  29
ENDBRANCH   1  25
BRANCH  17  31
ATOM     31  C   UNL     1       1.771  -5.713  -7.810  0.00  0.00    +0.112 C 
BRANCH  31  32
ATOM     32  C   UNL     1       1.046  -4.684  -8.681  0.00  0.00    +0.049 C 
BRANCH  32  33
ATOM     33  C   UNL     1       1.158  -5.084 -10.129  0.00  0.00    -0.072 C 
ATOM     34  C   UNL     1       0.185  -5.762 -10.649  0.00  0.00    -0.028 C 
ATOM     35  C   UNL     1       0.159  -6.239 -12.071  0.00  0.00    +0.027 C 
ATOM     36  C   UNL     1       1.190  -5.473 -12.903  0.00  0.00    +0.004 C 
ATOM     37  C   UNL     1       2.530  -5.500 -12.159  0.00  0.00    +0.005 C 
ATOM     38  C   UNL     1       2.388  -4.667 -10.882  0.00  0.00    +0.030 C 
ENDBRANCH  32  33
ENDBRANCH  31  32
ENDBRANCH  17  31
TORSDOF 6
