REMARK  Name = ZINC06314557
REMARK  6 active torsions:
REMARK  status: ('A' for Active; 'I' for Inactive)
REMARK    1  A    between atoms: C_1  and  C_2
REMARK    2  A    between atoms: C_3  and  C_8
REMARK    3  A    between atoms: N_5  and  C_7
REMARK    4  A    between atoms: C_8  and  N_9
REMARK    5  A    between atoms: N_9  and  C_10
REMARK    6  A    between atoms: C_11  and  N_22
REMARK                            x       y       z     vdW  Elec       q    Type
REMARK                         _______ _______ _______ _____ _____    ______ ____
ROOT
ATOM      1  C   UNL     1       1.594   0.494  -4.252  0.00  0.00    +0.105 C 
ATOM      2  C   UNL     1       2.818   0.993  -4.569  0.00  0.00    +0.139 C 
ATOM      3  C   UNL     1       3.082   1.543  -5.906  0.00  0.00    +0.214 C 
ATOM      4  O   UNL     1       4.181   1.986  -6.176  0.00  0.00    -0.285 OA
ATOM      5  C   UNL     1       2.006   1.556  -6.924  0.00  0.00    +0.035 A 
ATOM      6  C   UNL     1       2.236   2.071  -8.193  0.00  0.00    +0.012 A 
ATOM      7  C   UNL     1       1.216   2.074  -9.131  0.00  0.00    +0.001 A 
ATOM      8  C   UNL     1      -0.029   1.567  -8.812  0.00  0.00    +0.001 A 
ATOM      9  C   UNL     1      -0.274   1.050  -7.550  0.00  0.00    +0.012 A 
ATOM     10  C   UNL     1       0.739   1.041  -6.599  0.00  0.00    +0.034 A 
ATOM     11  C   UNL     1       0.503   0.488  -5.247  0.00  0.00    +0.210 C 
ATOM     12  O   UNL     1      -0.586   0.035  -4.955  0.00  0.00    -0.285 OA
ENDROOT
BRANCH   2  13
ATOM     13  N   UNL     1       3.836   0.983  -3.614  0.00  0.00    -0.207 N 
ATOM     14  C   UNL     1       4.461   2.081  -3.066  0.00  0.00    +0.095 A 
ATOM     15  C   UNL     1       4.330   3.454  -3.239  0.00  0.00    +0.030 A 
ATOM     16  C   UNL     1       5.130   4.312  -2.519  0.00  0.00    +0.002 A 
ATOM     17  C   UNL     1       6.067   3.815  -1.622  0.00  0.00    +0.002 A 
ATOM     18  C   UNL     1       6.211   2.471  -1.438  0.00  0.00    +0.032 A 
ATOM     19  C   UNL     1       5.409   1.577  -2.158  0.00  0.00    +0.113 A 
ATOM     20  N   UNL     1       5.326   0.226  -2.188  0.00  0.00    -0.129 NA
ATOM     21  N   UNL     1       4.417  -0.146  -3.019  0.00  0.00    -0.059 NA
ENDBRANCH   2  13
BRANCH   1  22
ATOM     22  N   UNL     1       1.370  -0.020  -2.986  0.00  0.00    -0.335 N 
ATOM     23  H   UNL     1       2.103  -0.090  -2.355  0.00  0.00    +0.147 HD
BRANCH  22  24
ATOM     24  C   UNL     1       0.026  -0.456  -2.600  0.00  0.00    +0.140 C 
BRANCH  24  27
ATOM     25  C   UNL     1      -0.014   1.318   0.025  0.00  0.00    +0.068 C 
ATOM     26  C   UNL     1       0.034  -0.187  -0.024  0.00  0.00    +0.065 A 
ATOM     27  C   UNL     1       0.052  -0.970  -1.183  0.00  0.00    +0.010 A 
ATOM     28  C   UNL     1       0.097  -2.269  -0.808  0.00  0.00    +0.113 A 
ATOM     29  N   UNL     1       0.107  -2.308   0.541  0.00  0.00    -0.274 N 
ATOM     30  N   UNL     1       0.072  -0.988   1.010  0.00  0.00    -0.176 NA
ATOM     31  C   UNL     1       0.151  -3.516   1.368  0.00  0.00    +0.172 C 
ENDBRANCH  24  27
ENDBRANCH  22  24
ENDBRANCH   1  22
TORSDOF 4
