REMARK  Name = ZINC34747420
REMARK  6 active torsions:
REMARK  status: ('A' for Active; 'I' for Inactive)
REMARK    1  A    between atoms: C_4  and  C_7
REMARK    2  A    between atoms: C_7  and  N_8
REMARK    3  A    between atoms: C_9  and  C_11
REMARK    4  A    between atoms: C_11  and  N_12
REMARK    5  A    between atoms: N_25  and  C_28
REMARK    6  A    between atoms: C_28  and  C_29
REMARK                            x       y       z     vdW  Elec       q    Type
REMARK                         _______ _______ _______ _____ _____    ______ ____
ROOT
ATOM      1  N   UNL     1       7.053  -2.560   3.070  0.00  0.00    -0.271 N 
ATOM      2  C   UNL     1       7.059  -3.903   3.163  0.00  0.00    +0.264 A 
ATOM      3  O   UNL     1       6.021  -4.514   3.351  0.00  0.00    -0.267 OA
ATOM      4  C   UNL     1       8.300  -4.603   3.040  0.00  0.00    +0.076 A 
ATOM      5  C   UNL     1       8.540  -6.046   3.109  0.00  0.00    -0.023 A 
ATOM      6  C   UNL     1       9.814  -6.462   2.960  0.00  0.00    -0.004 A 
ATOM      7  S   UNL     1      10.758  -4.981   2.722  0.00  0.00    -0.073 S 
ATOM      8  C   UNL     1       9.435  -3.803   2.825  0.00  0.00    +0.117 A 
ATOM      9  N   UNL     1       9.360  -2.479   2.742  0.00  0.00    -0.208 NA
ATOM     10  C   UNL     1       8.203  -1.861   2.854  0.00  0.00    +0.202 A 
ATOM     11  N   UNL     1       8.155  -0.492   2.759  0.00  0.00    -0.304 N 
ATOM     12  C   UNL     1       8.305   0.355   3.952  0.00  0.00    +0.089 C 
ATOM     13  C   UNL     1       9.368   1.419   3.662  0.00  0.00    -0.059 C 
ATOM     14  N   UNL     1       9.007   2.151   2.441  0.00  0.00    +0.387 N 
ATOM     15  C   UNL     1       9.033   1.242   1.288  0.00  0.00    -0.059 C 
ATOM     16  C   UNL     1       7.958   0.169   1.460  0.00  0.00    +0.089 C 
ATOM     17  C   UNL     1      10.317  -7.873   2.991  0.00  0.00    +0.043 C 
ATOM     18  C   UNL     1       9.220  -8.765   3.590  0.00  0.00    +0.005 C 
ATOM     19  C   UNL     1       7.891  -8.435   2.905  0.00  0.00    +0.005 C 
ATOM     20  C   UNL     1       7.413  -7.049   3.339  0.00  0.00    +0.037 C 
ATOM     21  H   UNL     1       8.081   2.537   2.543  0.00  0.00    -0.081 HD
ENDROOT
BRANCH   1  22
ATOM     22  C   UNL     1       5.785  -1.837   3.196  0.00  0.00    +0.223 C 
BRANCH  22  24
ATOM     23  N   UNL     1       3.906  -1.173   1.730  0.00  0.00    -0.310 N 
ATOM     24  C   UNL     1       5.097  -1.792   1.856  0.00  0.00    +0.233 C 
ATOM     25  O   UNL     1       5.615  -2.312   0.890  0.00  0.00    -0.274 OA
ATOM     26  H   UNL     1       3.492  -0.756   2.502  0.00  0.00    +0.149 HD
BRANCH  23  27
ATOM     27  C   UNL     1       3.238  -1.128   0.427  0.00  0.00    +0.139 C 
BRANCH  27  31
ATOM     28  C   UNL     1      -0.459   0.980   0.792  0.00  0.00    +0.000 A 
ATOM     29  C   UNL     1       0.700   1.666   0.481  0.00  0.00    +0.000 A 
ATOM     30  C   UNL     1       1.896   0.984   0.363  0.00  0.00    +0.005 A 
ATOM     31  C   UNL     1       1.934  -0.385   0.557  0.00  0.00    -0.030 A 
ATOM     32  C   UNL     1       0.775  -1.071   0.868  0.00  0.00    +0.005 A 
ATOM     33  C   UNL     1      -0.422  -0.389   0.985  0.00  0.00    +0.000 A 
ENDBRANCH  27  31
ENDBRANCH  23  27
ENDBRANCH  22  24
ENDBRANCH   1  22
BRANCH  14  34
ATOM     34  C   UNL     1       9.967   3.241   2.224  0.00  0.00    +0.018 C 
BRANCH  34  35
ATOM     35  C   UNL     1       9.530   4.068   1.042  0.00  0.00    +0.194 C 
ATOM     36  O   UNL     1       8.518   3.777   0.440  0.00  0.00    -0.278 OA
ATOM     37  N   UNL     1      10.262   5.130   0.654  0.00  0.00    -0.331 N 
ATOM     38  H   UNL     1      11.072   5.363   1.136  0.00  0.00    +0.145 HD
ATOM     39  H   UNL     1       9.981   5.662  -0.106  0.00  0.00    +0.145 HD
ENDBRANCH  34  35
ENDBRANCH  14  34
TORSDOF 6
