REMARK  Name = ZINC03225530
REMARK  9 active torsions:
REMARK  status: ('A' for Active; 'I' for Inactive)
REMARK    1  A    between atoms: C_1  and  N_2
REMARK    2  A    between atoms: C_6  and  S_7
REMARK    3  A    between atoms: S_7  and  C_8
REMARK    4  A    between atoms: C_8  and  C_9
REMARK    5  A    between atoms: C_12  and  C_15
REMARK    6  A    between atoms: N_17  and  N_18
REMARK    7  A    between atoms: C_19  and  C_20
REMARK    8  A    between atoms: C_23  and  O_27
REMARK    9  A    between atoms: C_24  and  O_26
REMARK                            x       y       z     vdW  Elec       q    Type
REMARK                         _______ _______ _______ _____ _____    ______ ____
ROOT
ATOM      1  C   UNL     1       2.626   7.784   0.019  0.00  0.00    +0.263 C 
ATOM      2  O   UNL     1       2.727   8.380   1.074  0.00  0.00    -0.268 OA
ATOM      3  N   UNL     1       2.716   8.457  -1.146  0.00  0.00    -0.203 N 
ATOM      4  H   UNL     1       2.635   7.982  -1.988  0.00  0.00    +0.178 HD
ENDROOT
BRANCH   1   8
ATOM      5  C   UNL     1       1.984   3.586   0.002  0.00  0.00    -0.037 A 
ATOM      6  C   UNL     1       2.082   4.272  -1.195  0.00  0.00    +0.005 A 
ATOM      7  C   UNL     1       2.285   5.637  -1.197  0.00  0.00    +0.013 A 
ATOM      8  C   UNL     1       2.403   6.323   0.013  0.00  0.00    +0.038 A 
ATOM      9  C   UNL     1       2.308   5.624   1.218  0.00  0.00    +0.013 A 
ATOM     10  C   UNL     1       2.099   4.260   1.205  0.00  0.00    +0.005 A 
BRANCH   5  11
ATOM     11  C   UNL     1       1.756   2.096  -0.004  0.00  0.00    +0.112 C 
BRANCH  11  12
ATOM     12  S   UNL     1      -0.022   1.758   0.012  0.00  0.00    -0.081 S 
BRANCH  12  18
ATOM     13  C   UNL     1      -2.495  -0.437   0.036  0.00  0.00    +0.152 C 
ATOM     14  N   UNL     1      -1.085  -0.831   0.013  0.00  0.00    -0.312 N 
ATOM     15  C   UNL     1      -0.582  -2.103  -0.004  0.00  0.00    +0.225 A 
ATOM     16  N   UNL     1       0.717  -2.007  -0.015  0.00  0.00    -0.137 NA
ATOM     17  N   UNL     1       1.068  -0.770  -0.012  0.00  0.00    -0.123 NA
ATOM     18  C   UNL     1       0.002  -0.004   0.002  0.00  0.00    +0.191 A 
ENDBRANCH  12  18
ENDBRANCH  11  12
ENDBRANCH   5  11
ENDBRANCH   1   8
BRANCH   3  19
ATOM     19  N   UNL     1       2.928   9.842  -1.140  0.00  0.00    -0.187 NA
ATOM     20  C   UNL     1       3.015  10.489  -2.262  0.00  0.00    +0.138 C 
BRANCH  20  21
ATOM     21  C   UNL     1       3.237  11.947  -2.256  0.00  0.00    -0.002 A 
ATOM     22  C   UNL     1       3.348  12.633  -1.044  0.00  0.00    +0.013 A 
ATOM     23  C   UNL     1       3.562  13.996  -1.042  0.00  0.00    +0.050 A 
ATOM     24  C   UNL     1       3.656  14.689  -2.239  0.00  0.00    +0.158 A 
ATOM     25  C   UNL     1       3.540  14.012  -3.451  0.00  0.00    +0.159 A 
ATOM     26  C   UNL     1       3.332  12.646  -3.463  0.00  0.00    +0.058 A 
BRANCH  25  27
ATOM     27  O   UNL     1       3.632  14.695  -4.624  0.00  0.00    -0.503 OA
ATOM     28  H   UNL     1       2.786  15.026  -4.954  0.00  0.00    +0.292 HD
ENDBRANCH  25  27
BRANCH  24  29
ATOM     29  O   UNL     1       3.862  16.033  -2.231  0.00  0.00    -0.503 OA
ATOM     30  H   UNL     1       3.048  16.555  -2.219  0.00  0.00    +0.292 HD
ENDBRANCH  24  29
ENDBRANCH  20  21
ENDBRANCH   3  19
TORSDOF 8
