REMARK  Name = ZINC35894743
REMARK  7 active torsions:
REMARK  status: ('A' for Active; 'I' for Inactive)
REMARK    1  A    between atoms: C_1  and  C_2
REMARK    2  A    between atoms: C_2  and  C_3
REMARK    3  A    between atoms: C_2  and  N_4
REMARK    4  A    between atoms: C_5  and  C_7
REMARK    5  A    between atoms: C_12  and  N_31
REMARK    6  A    between atoms: N_20  and  C_23
REMARK    7  A    between atoms: C_28  and  C_29
REMARK                            x       y       z     vdW  Elec       q    Type
REMARK                         _______ _______ _______ _____ _____    ______ ____
ROOT
ATOM      1  C   UNL     1       0.780  -1.133   3.576  0.00  0.00    +0.101 C 
ATOM      2  C   UNL     1       1.925  -0.178   3.909  0.00  0.00    +0.051 C 
ATOM      3  C   UNL     1       2.591  -0.645   5.178  0.00  0.00    -0.023 A 
ATOM      4  C   UNL     1       3.933  -0.382   5.381  0.00  0.00    +0.038 A 
ATOM      5  C   UNL     1       4.556  -0.816   6.536  0.00  0.00    +0.127 A 
ATOM      6  C   UNL     1       3.838  -1.514   7.490  0.00  0.00    +0.034 A 
ATOM      7  C   UNL     1       2.497  -1.775   7.293  0.00  0.00    +0.025 A 
ATOM      8  C   UNL     1       1.867  -1.334   6.133  0.00  0.00    +0.033 A 
ATOM      9  N   UNL     1       0.494  -1.593   5.975  0.00  0.00    -0.323 N 
ATOM     10  C   UNL     1      -0.195  -1.208   4.755  0.00  0.00    +0.103 C 
ATOM     11  C   UNL     1      -1.327  -2.150   4.380  0.00  0.00    +0.128 C 
ATOM     12  N   UNL     1      -1.988  -2.730   5.533  0.00  0.00    -0.326 N 
ATOM     13  C   UNL     1      -1.259  -3.190   6.703  0.00  0.00    +0.124 C 
ATOM     14  C   UNL     1      -0.189  -2.205   7.113  0.00  0.00    +0.124 C 
ENDROOT
BRANCH  12  15
ATOM     15  C   UNL     1      -3.373  -2.850   5.519  0.00  0.00    +0.047 A 
ATOM     16  C   UNL     1      -3.969  -4.003   5.025  0.00  0.00    +0.024 A 
ATOM     17  C   UNL     1      -5.344  -4.120   5.012  0.00  0.00    +0.002 A 
ATOM     18  C   UNL     1      -6.140  -3.091   5.489  0.00  0.00    +0.001 A 
ATOM     19  C   UNL     1      -5.567  -1.939   5.982  0.00  0.00    +0.021 A 
ATOM     20  C   UNL     1      -4.176  -1.808   6.008  0.00  0.00    +0.073 A 
BRANCH  20  21
ATOM     21  C   UNL     1      -3.574  -0.616   6.525  0.00  0.00    +0.101 C 
ATOM     22  N   UNL     1      -3.097   0.330   6.936  0.00  0.00    -0.191 NA
ENDBRANCH  20  21
ENDBRANCH  12  15
BRANCH   1  24
ATOM     23  N   UNL     1       0.711  -0.489   1.189  0.00  0.00    -0.313 N 
ATOM     24  C   UNL     1       0.051  -0.633   2.355  0.00  0.00    +0.218 C 
ATOM     25  O   UNL     1      -1.129  -0.361   2.423  0.00  0.00    -0.275 OA
ATOM     26  H   UNL     1       1.654  -0.707   1.135  0.00  0.00    +0.149 HD
BRANCH  23  28
ATOM     27  C   UNL     1      -0.019   1.526   0.010  0.00  0.00    +0.027 C 
ATOM     28  C   UNL     1       0.002  -0.004   0.002  0.00  0.00    +0.067 C 
ATOM     29  C   UNL     1       0.718  -0.497  -1.257  0.00  0.00    +0.027 C 
ENDBRANCH  23  28
ENDBRANCH   1  24
BRANCH   5  30
ATOM     30  N   UNL     1       5.993  -0.534   6.752  0.00  0.00    +0.056 N 
ATOM     31  O   UNL     1       6.621   0.076   5.919  0.00  0.00    -0.126 OA
ATOM     32  O   UNL     1       6.538  -0.913   7.763  0.00  0.00    -0.126 OA
ENDBRANCH   5  30
TORSDOF 5
