REMARK  Name = ZINC22922288
REMARK  7 active torsions:
REMARK  status: ('A' for Active; 'I' for Inactive)
REMARK    1  A    between atoms: C_4  and  C_7
REMARK    2  A    between atoms: C_7  and  N_8
REMARK    3  A    between atoms: N_8  and  C_9
REMARK    4  A    between atoms: C_18  and  C_22
REMARK    5  A    between atoms: C_22  and  C_23
REMARK    6  A    between atoms: C_23  and  C_24
REMARK    7  A    between atoms: N_26  and  C_27
REMARK                            x       y       z     vdW  Elec       q    Type
REMARK                         _______ _______ _______ _____ _____    ______ ____
ROOT
ATOM      1  C   UNL     1       5.263  -0.771   2.051  0.00  0.00    +0.036 C 
ATOM      2  C   UNL     1       6.563   0.081   1.976  0.00  0.00    +0.010 C 
ATOM      3  C   UNL     1       7.565  -0.814   2.719  0.00  0.00    +0.021 C 
ATOM      4  C   UNL     1       8.754  -0.110   3.286  0.00  0.00    +0.200 C 
ATOM      5  O   UNL     1       9.244   0.836   2.707  0.00  0.00    -0.278 OA
ATOM      6  N   UNL     1       9.274  -0.544   4.451  0.00  0.00    -0.318 N 
ATOM      7  C   UNL     1       8.684  -1.591   5.277  0.00  0.00    +0.089 C 
ATOM      8  C   UNL     1       7.529  -2.308   4.562  0.00  0.00    -0.050 C 
ATOM      9  N   UNL     1       6.746  -1.314   3.856  0.00  0.00    +0.391 N 
ATOM     10  C   UNL     1       5.475  -1.720   3.258  0.00  0.00    -0.059 C 
ATOM     11  H   UNL     1      10.096  -0.133   4.761  0.00  0.00    +0.149 HD
ATOM     12  H   UNL     1       6.566  -0.549   4.489  0.00  0.00    -0.080 HD
ENDROOT
BRANCH   1  13
ATOM     13  N   UNL     1       4.098   0.094   2.280  0.00  0.00    -0.311 NA
ATOM     14  H   UNL     1       4.333   0.864   2.888  0.00  0.00    +0.122 HD
BRANCH  13  15
ATOM     15  C   UNL     1       3.544   0.579   1.008  0.00  0.00    +0.116 C 
BRANCH  15  19
ATOM     16  C   UNL     1       0.169   3.079   1.783  0.00  0.00    +0.000 A 
ATOM     17  C   UNL     1       1.435   3.630   1.710  0.00  0.00    +0.000 A 
ATOM     18  C   UNL     1       2.527   2.821   1.459  0.00  0.00    +0.005 A 
ATOM     19  C   UNL     1       2.353   1.461   1.283  0.00  0.00    -0.034 A 
ATOM     20  C   UNL     1       1.088   0.910   1.357  0.00  0.00    +0.005 A 
ATOM     21  C   UNL     1      -0.005   1.719   1.607  0.00  0.00    +0.000 A 
ENDBRANCH  15  19
ENDBRANCH  13  15
ENDBRANCH   1  13
BRANCH   8  22
ATOM     22  C   UNL     1       6.651  -3.028   5.588  0.00  0.00    -0.005 C 
BRANCH  22  23
ATOM     23  C   UNL     1       7.454  -4.151   6.248  0.00  0.00    +0.094 C 
BRANCH  23  24
ATOM     24  C   UNL     1       6.554  -4.939   7.165  0.00  0.00    +0.217 C 
ATOM     25  O   UNL     1       5.386  -4.634   7.278  0.00  0.00    -0.275 OA
ATOM     26  N   UNL     1       7.047  -5.985   7.858  0.00  0.00    -0.285 N 
ATOM     27  H   UNL     1       7.996  -6.184   7.825  0.00  0.00    +0.155 HD
BRANCH  26  28
ATOM     28  C   UNL     1       6.191  -6.782   8.625  0.00  0.00    +0.033 A 
ATOM     29  C   UNL     1       6.644  -7.352   9.807  0.00  0.00    +0.023 A 
ATOM     30  C   UNL     1       5.796  -8.139  10.562  0.00  0.00    +0.002 A 
ATOM     31  C   UNL     1       4.497  -8.360  10.141  0.00  0.00    +0.000 A 
ATOM     32  C   UNL     1       4.043  -7.794   8.964  0.00  0.00    +0.002 A 
ATOM     33  C   UNL     1       4.884  -7.001   8.208  0.00  0.00    +0.023 A 
ENDBRANCH  26  28
ENDBRANCH  23  24
ENDBRANCH  22  23
ENDBRANCH   8  22
TORSDOF 7
