REMARK  Name = ZINC37274105
REMARK  4 active torsions:
REMARK  status: ('A' for Active; 'I' for Inactive)
REMARK    1  A    between atoms: N_9  and  C_10
REMARK    2  A    between atoms: C_10  and  C_11
REMARK    3  A    between atoms: N_13  and  C_14
REMARK    4  A    between atoms: C_17  and  N_21
REMARK                            x       y       z     vdW  Elec       q    Type
REMARK                         _______ _______ _______ _____ _____    ______ ____
ROOT
ATOM      1  C   UNL     1       5.357  -0.316   1.365  0.00  0.00    +0.237 C 
ATOM      2  O   UNL     1       4.580  -0.418   2.290  0.00  0.00    -0.274 OA
ATOM      3  N   UNL     1       6.644   0.012   1.599  0.00  0.00    -0.283 N 
ATOM      4  H   UNL     1       7.280   0.030   0.867  0.00  0.00    +0.155 HD
ENDROOT
BRANCH   3   5
ATOM      5  C   UNL     1       7.062   0.326   2.899  0.00  0.00    +0.048 A 
ATOM      6  C   UNL     1       6.497  -0.328   3.987  0.00  0.00    +0.026 A 
ATOM      7  C   UNL     1       6.909  -0.019   5.268  0.00  0.00    +0.024 A 
ATOM      8  C   UNL     1       7.888   0.946   5.470  0.00  0.00    +0.026 A 
ATOM      9  C   UNL     1       8.453   1.599   4.382  0.00  0.00    +0.039 A 
ATOM     10  C   UNL     1       8.045   1.286   3.100  0.00  0.00    +0.041 A 
ATOM     11 BR   UNL     1       8.819   2.170   1.619  0.00  0.00    -0.048 Br
BRANCH   8  12
ATOM     12  N   UNL     1       8.304   1.259   6.768  0.00  0.00    -0.358 N 
ATOM     13  H   UNL     1       7.910   0.802   7.527  0.00  0.00    +0.142 HD
ATOM     14  H   UNL     1       8.988   1.932   6.909  0.00  0.00    +0.142 HD
ENDBRANCH   8  12
ENDBRANCH   3   5
BRANCH   1  15
ATOM     15  C   UNL     1       4.885  -0.554  -0.046  0.00  0.00    +0.217 C 
BRANCH  15  24
ATOM     16  C   UNL     1      -0.019   1.331  -0.006  0.00  0.00    +0.001 A 
ATOM     17  C   UNL     1       1.165   2.055  -0.018  0.00  0.00    +0.002 A 
ATOM     18  C   UNL     1       2.383   1.412  -0.027  0.00  0.00    +0.026 A 
ATOM     19  C   UNL     1       2.430   0.021  -0.026  0.00  0.00    +0.049 A 
ATOM     20  C   UNL     1       1.227  -0.709  -0.014  0.00  0.00    -0.000 A 
ATOM     21  C   UNL     1       0.004  -0.036  -0.004  0.00  0.00    +0.010 A 
ATOM     22  C   UNL     1       1.612  -2.122  -0.015  0.00  0.00    +0.027 A 
ATOM     23  C   UNL     1       2.953  -2.164  -0.027  0.00  0.00    +0.087 A 
ATOM     24  N   UNL     1       3.459  -0.892  -0.033  0.00  0.00    -0.338 N 
ENDBRANCH  15  24
ENDBRANCH   1  15
TORSDOF 4
