REMARK  Name = ZINC26893315
REMARK  13 active torsions:
REMARK  status: ('A' for Active; 'I' for Inactive)
REMARK    1  A    between atoms: C_1  and  C_2
REMARK    2  A    between atoms: C_5  and  N_16
REMARK    3  A    between atoms: C_6  and  C_8
REMARK    4  A    between atoms: C_8  and  C_10
REMARK    5  A    between atoms: C_17  and  C_19
REMARK    6  A    between atoms: C_19  and  C_21
REMARK    7  A    between atoms: C_19  and  N_22
REMARK    8  A    between atoms: N_22  and  C_23
REMARK    9  A    between atoms: N_22  and  C_26
REMARK   10  A    between atoms: C_23  and  C_24
REMARK   11  A    between atoms: C_24  and  O_25
REMARK   12  A    between atoms: C_26  and  C_27
REMARK   13  A    between atoms: C_27  and  O_28
REMARK                            x       y       z     vdW  Elec       q    Type
REMARK                         _______ _______ _______ _____ _____    ______ ____
ROOT
ATOM      1  N   UNL     1      -1.558   0.949  -0.448  0.00  0.00    -0.286 N 
ATOM      2  C   UNL     1      -2.093  -0.183   0.052  0.00  0.00    +0.203 C 
ATOM      3  O   UNL     1      -1.473  -0.840   0.861  0.00  0.00    -0.277 OA
ATOM      4  H   UNL     1      -2.071   1.488  -1.259  0.00  0.00    +0.155 HD
ENDROOT
BRANCH   1   9
ATOM      5  C   UNL     1       3.341   2.918   1.637  0.00  0.00    +0.044 C 
ATOM      6  C   UNL     1       2.040   2.403   1.077  0.00  0.00    -0.050 A 
ATOM      7  C   UNL     1       1.287   1.495   1.806  0.00  0.00    +0.005 A 
ATOM      8  C   UNL     1       0.094   1.015   1.305  0.00  0.00    +0.024 A 
ATOM      9  C   UNL     1      -0.358   1.436   0.061  0.00  0.00    +0.044 A 
ATOM     10  C   UNL     1       0.399   2.360  -0.676  0.00  0.00    +0.044 A 
ATOM     11  C   UNL     1       1.605   2.837  -0.155  0.00  0.00    +0.017 A 
BRANCH  10  12
ATOM     12  C   UNL     1      -0.073   2.820  -1.995  0.00  0.00    +0.195 C 
ATOM     13  O   UNL     1      -0.563   3.926  -2.114  0.00  0.00    -0.287 OA
BRANCH  12  14
ATOM     14  C   UNL     1       0.051   1.936  -3.173  0.00  0.00    +0.022 A 
ATOM     15  C   UNL     1       0.564   0.645  -3.031  0.00  0.00    +0.012 A 
ATOM     16  C   UNL     1       0.671  -0.176  -4.134  0.00  0.00    +0.001 A 
ATOM     17  C   UNL     1       0.282   0.280  -5.381  0.00  0.00    +0.000 A 
ATOM     18  C   UNL     1      -0.222   1.560  -5.530  0.00  0.00    +0.001 A 
ATOM     19  C   UNL     1      -0.340   2.390  -4.435  0.00  0.00    +0.012 A 
ENDBRANCH  12  14
ENDBRANCH  10  12
ENDBRANCH   1   9
BRANCH   2  20
ATOM     20  C   UNL     1      -3.461  -0.632  -0.395  0.00  0.00    +0.017 C 
ATOM     21  C   UNL     1      -4.525   0.018   0.491  0.00  0.00    -0.004 C 
BRANCH  20  22
ATOM     22  N   UNL     1      -3.557  -2.093  -0.284  0.00  0.00    +0.390 N 
ATOM     23  H   UNL     1      -3.445  -2.360   0.777  0.00  0.00    -0.081 HD
BRANCH  22  24
ATOM     24  C   UNL     1      -4.872  -2.570  -0.734  0.00  0.00    -0.050 C 
BRANCH  24  25
ATOM     25  C   UNL     1      -5.033  -4.045  -0.363  0.00  0.00    +0.137 C 
BRANCH  25  26
ATOM     26  O   UNL     1      -5.015  -4.184   1.059  0.00  0.00    -0.397 OA
ATOM     27  H   UNL     1      -5.119  -5.179   1.516  0.00  0.00    +0.209 HD
ENDBRANCH  25  26
ENDBRANCH  24  25
ENDBRANCH  22  24
BRANCH  22  28
ATOM     28  C   UNL     1      -2.475  -2.750  -1.031  0.00  0.00    -0.050 C 
BRANCH  28  29
ATOM     29  C   UNL     1      -2.626  -2.444  -2.522  0.00  0.00    +0.137 C 
BRANCH  29  30
ATOM     30  O   UNL     1      -2.426  -1.046  -2.744  0.00  0.00    -0.397 OA
ATOM     31  H   UNL     1      -2.496  -0.636  -3.763  0.00  0.00    +0.209 HD
ENDBRANCH  29  30
ENDBRANCH  28  29
ENDBRANCH  22  28
ENDBRANCH  20  22
ENDBRANCH   2  20
TORSDOF 11
