REMARK  Name = ZINC09726389
REMARK  11 active torsions:
REMARK  status: ('A' for Active; 'I' for Inactive)
REMARK    1  A    between atoms: C_1  and  C_2
REMARK    2  A    between atoms: N_10  and  C_11
REMARK    3  A    between atoms: C_11  and  C_13
REMARK    4  A    between atoms: C_16  and  S_19
REMARK    5  A    between atoms: S_19  and  N_22
REMARK    6  A    between atoms: C_24  and  C_31
REMARK    7  A    between atoms: C_27  and  C_30
REMARK    8  A    between atoms: N_32  and  C_33
REMARK    9  A    between atoms: C_33  and  C_34
REMARK   10  A    between atoms: C_34  and  O_36
REMARK   11  A    between atoms: O_36  and  C_37
REMARK                            x       y       z     vdW  Elec       q    Type
REMARK                         _______ _______ _______ _____ _____    ______ ____
ROOT
ATOM      1  C   UNL     1      -4.243   0.626  -0.190  0.00  0.00    +0.269 C 
ATOM      2  O   UNL     1      -4.774   0.798  -1.273  0.00  0.00    -0.268 OA
ENDROOT
BRANCH   1  12
ATOM      3  C   UNL     1       1.140   2.583  -6.364  0.00  0.00    +0.044 C 
ATOM      4  C   UNL     1       0.653   2.232  -4.982  0.00  0.00    -0.049 A 
ATOM      5  C   UNL     1       1.549   2.110  -3.933  0.00  0.00    +0.005 A 
ATOM      6  C   UNL     1       1.124   1.790  -2.666  0.00  0.00    +0.027 A 
ATOM      7  C   UNL     1      -0.237   1.576  -2.398  0.00  0.00    +0.058 A 
ATOM      8  C   UNL     1      -1.121   1.707  -3.479  0.00  0.00    +0.039 A 
ATOM      9  C   UNL     1      -0.695   2.027  -4.746  0.00  0.00    +0.020 A 
ATOM     10  S   UNL     1      -2.705   1.369  -2.752  0.00  0.00    -0.052 S 
ATOM     11  C   UNL     1      -2.181   1.075  -1.126  0.00  0.00    +0.167 A 
ATOM     12  N   UNL     1      -2.918   0.757  -0.067  0.00  0.00    -0.152 NA
ATOM     13  N   UNL     1      -0.834   1.250  -1.194  0.00  0.00    -0.310 N 
BRANCH  13  14
ATOM     14  C   UNL     1      -0.013   1.086   0.008  0.00  0.00    +0.244 C 
BRANCH  14  15
ATOM     15  C   UNL     1      -0.718   1.706   1.186  0.00  0.00    +0.327 C 
ATOM     16  O   UNL     1      -1.712   2.372   1.014  0.00  0.00    -0.249 OA
BRANCH  15  17
ATOM     17  O   UNL     1      -0.244   1.518   2.428  0.00  0.00    -0.467 OA
ATOM     18  C   UNL     1      -0.974   2.145   3.515  0.00  0.00    +0.280 C 
ENDBRANCH  15  17
ENDBRANCH  14  15
ENDBRANCH  13  14
ENDBRANCH   1  12
BRANCH   1  19
ATOM     19  C   UNL     1      -5.064   0.272   0.991  0.00  0.00    +0.039 A 
ATOM     20  C   UNL     1      -4.458   0.069   2.230  0.00  0.00    +0.015 A 
ATOM     21  C   UNL     1      -5.230  -0.255   3.327  0.00  0.00    +0.029 A 
ATOM     22  C   UNL     1      -6.600  -0.390   3.197  0.00  0.00    +0.106 A 
ATOM     23  C   UNL     1      -7.207  -0.195   1.969  0.00  0.00    +0.029 A 
ATOM     24  C   UNL     1      -6.447   0.135   0.866  0.00  0.00    +0.015 A 
BRANCH  22  25
ATOM     25  S   UNL     1      -7.578  -0.810   4.602  0.00  0.00    +0.061 S 
ATOM     26  O   UNL     1      -6.840  -0.403   5.746  0.00  0.00    -0.153 OA
ATOM     27  O   UNL     1      -8.893  -0.341   4.336  0.00  0.00    -0.153 OA
BRANCH  25  28
ATOM     28  N   UNL     1      -7.668  -2.462   4.659  0.00  0.00    -0.172 NA
ATOM     29  C   UNL     1      -8.752  -3.186   3.976  0.00  0.00    +0.140 C 
ATOM     30  C   UNL     1      -8.121  -4.295   3.118  0.00  0.00    +0.131 C 
ATOM     31  O   UNL     1      -7.249  -5.081   3.933  0.00  0.00    -0.371 OA
ATOM     32  C   UNL     1      -6.143  -4.355   4.476  0.00  0.00    +0.131 C 
ATOM     33  C   UNL     1      -6.669  -3.250   5.399  0.00  0.00    +0.140 C 
ATOM     34  C   UNL     1      -5.249  -5.306   5.274  0.00  0.00    +0.039 C 
ATOM     35  C   UNL     1      -7.324  -3.667   1.973  0.00  0.00    +0.039 C 
ENDBRANCH  25  28
ENDBRANCH  22  25
ENDBRANCH   1  19
TORSDOF 7
