REMARK  Name = ZINC39741256
REMARK  9 active torsions:
REMARK  status: ('A' for Active; 'I' for Inactive)
REMARK    1  A    between atoms: C_1  and  O_2
REMARK    2  A    between atoms: O_2  and  C_3
REMARK    3  A    between atoms: C_3  and  C_5
REMARK    4  A    between atoms: C_5  and  N_6
REMARK    5  A    between atoms: C_7  and  C_9
REMARK    6  A    between atoms: C_9  and  S_10
REMARK    7  A    between atoms: S_10  and  C_11
REMARK    8  A    between atoms: C_15  and  C_24
REMARK    9  A    between atoms: N_16  and  C_17
REMARK                            x       y       z     vdW  Elec       q    Type
REMARK                         _______ _______ _______ _____ _____    ______ ____
ROOT
ATOM      1  C   UNL     1       3.242  -6.055   5.159  0.00  0.00    +0.241 C 
ATOM      2  N   UNL     1       4.599  -5.513   5.343  0.00  0.00    -0.237 N 
ATOM      3  N   UNL     1       4.671  -5.062   6.666  0.00  0.00    -0.169 NA
ATOM      4  C   UNL     1       3.544  -5.261   7.298  0.00  0.00    +0.151 C 
ATOM      5  N   UNL     1       2.594  -5.868   6.468  0.00  0.00    -0.254 N 
ATOM      6  H   UNL     1       5.304  -5.476   4.678  0.00  0.00    +0.171 HD
ENDROOT
BRANCH   4   7
ATOM      7  C   UNL     1       3.316  -4.912   8.638  0.00  0.00    +0.022 C 
ATOM      8  C   UNL     1       4.244  -4.401   9.546  0.00  0.00    +0.006 A 
ATOM      9  C   UNL     1       5.615  -4.088   9.434  0.00  0.00    +0.010 A 
ATOM     10  C   UNL     1       6.283  -3.593  10.507  0.00  0.00    +0.001 A 
ATOM     11  C   UNL     1       5.646  -3.382  11.732  0.00  0.00    +0.002 A 
ATOM     12  C   UNL     1       4.331  -3.661  11.911  0.00  0.00    +0.026 A 
ATOM     13  C   UNL     1       3.567  -4.181  10.835  0.00  0.00    +0.043 A 
ATOM     14  N   UNL     1       2.297  -4.527  10.754  0.00  0.00    -0.380 N 
ATOM     15  C   UNL     1       2.011  -5.005   9.398  0.00  0.00    +0.152 C 
ATOM     16  H   UNL     1       1.653  -4.471  11.477  0.00  0.00    +0.160 HD
ENDBRANCH   4   7
BRANCH   5  17
ATOM     17  C   UNL     1       1.287  -6.225   6.811  0.00  0.00    +0.038 A 
ATOM     18  C   UNL     1       0.263  -5.291   6.719  0.00  0.00    +0.025 A 
ATOM     19  C   UNL     1      -1.027  -5.647   7.059  0.00  0.00    +0.022 A 
ATOM     20  C   UNL     1      -1.300  -6.933   7.491  0.00  0.00    +0.041 A 
ATOM     21  C   UNL     1      -0.282  -7.866   7.584  0.00  0.00    +0.022 A 
ATOM     22  C   UNL     1       1.009  -7.517   7.239  0.00  0.00    +0.025 A 
ATOM     23 CL   UNL     1      -2.924  -7.377   7.918  0.00  0.00    -0.084 Cl
ENDBRANCH   5  17
BRANCH   1  24
ATOM     24  S   UNL     1       2.358  -5.129   3.874  0.00  0.00    -0.108 S 
BRANCH  24  25
ATOM     25  C   UNL     1       2.406  -3.412   4.458  0.00  0.00    +0.168 C 
BRANCH  25  27
ATOM     26  N   UNL     1       1.606  -1.200   3.696  0.00  0.00    -0.304 N 
ATOM     27  C   UNL     1       1.696  -2.525   3.469  0.00  0.00    +0.223 C 
ATOM     28  O   UNL     1       1.205  -3.004   2.468  0.00  0.00    -0.275 OA
ATOM     29  H   UNL     1       1.998  -0.817   4.496  0.00  0.00    +0.149 HD
BRANCH  26  30
ATOM     30  C   UNL     1       0.915  -0.337   2.733  0.00  0.00    +0.224 C 
BRANCH  30  31
ATOM     31  C   UNL     1       0.956   1.089   3.219  0.00  0.00    +0.324 C 
ATOM     32  O   UNL     1       1.505   1.358   4.261  0.00  0.00    -0.249 OA
BRANCH  31  34
ATOM     33  C   UNL     1       0.458   3.390   3.013  0.00  0.00    +0.280 C 
ATOM     34  O   UNL     1       0.382   2.061   2.493  0.00  0.00    -0.467 OA
ENDBRANCH  31  34
ENDBRANCH  30  31
ENDBRANCH  26  30
ENDBRANCH  25  27
ENDBRANCH  24  25
ENDBRANCH   1  24
TORSDOF 8
