REMARK  Name = ZINC65525920
REMARK  7 active torsions:
REMARK  status: ('A' for Active; 'I' for Inactive)
REMARK    1  A    between atoms: C_1  and  C_2
REMARK    2  A    between atoms: C_7  and  N_8
REMARK    3  A    between atoms: N_8  and  C_9
REMARK    4  A    between atoms: N_8  and  C_10
REMARK    5  A    between atoms: N_11  and  C_12
REMARK    6  A    between atoms: C_12  and  C_13
REMARK    7  A    between atoms: C_18  and  C_19
REMARK                            x       y       z     vdW  Elec       q    Type
REMARK                         _______ _______ _______ _____ _____    ______ ____
ROOT
ATOM      1  C   UNL     1      -0.032   1.502   0.011  0.00  0.00    +0.049 C 
ATOM      2  C   UNL     1      -0.004  -0.004   0.003  0.00  0.00    +0.005 A 
ATOM      3  C   UNL     1      -0.104  -0.706  -1.183  0.00  0.00    +0.092 A 
ATOM      4  N   UNL     1      -0.076  -2.030  -1.157  0.00  0.00    -0.334 N 
ATOM      5  C   UNL     1       0.045  -2.687  -0.013  0.00  0.00    +0.195 A 
ATOM      6  N   UNL     1       0.143  -2.052   1.145  0.00  0.00    -0.201 NA
ATOM      7  C   UNL     1       0.128  -0.723   1.193  0.00  0.00    +0.129 A 
ATOM      8  N   UNL     1       0.070  -4.070  -0.028  0.00  0.00    -0.314 N 
ATOM      9  H   UNL     1       0.158  -4.563   0.803  0.00  0.00    +0.149 HD
ATOM     10  H   UNL     1      -0.145  -2.526  -1.988  0.00  0.00    +0.168 HD
ENDROOT
BRANCH   7  11
ATOM     11  N   UNL     1       0.236  -0.062   2.405  0.00  0.00    -0.321 N 
ATOM     12  C   UNL     1      -0.959   0.173   3.220  0.00  0.00    +0.130 C 
ATOM     13  C   UNL     1       1.544   0.404   2.872  0.00  0.00    +0.130 C 
ENDBRANCH   7  11
BRANCH   8  14
ATOM     14  C   UNL     1      -0.037  -4.791  -1.299  0.00  0.00    +0.119 C 
BRANCH  14  15
ATOM     15  C   UNL     1       0.017  -6.297  -1.037  0.00  0.00    +0.101 C 
ATOM     16  C   UNL     1      -1.233  -6.758  -0.314  0.00  0.00    +0.119 C 
ATOM     17  N   UNL     1      -1.812  -7.607  -1.099  0.00  0.00    -0.161 NA
ATOM     18  N   UNL     1      -1.115  -7.796  -2.288  0.00  0.00    -0.153 NA
ATOM     19  C   UNL     1      -0.023  -7.068  -2.342  0.00  0.00    +0.087 C 
BRANCH  19  20
ATOM     20  C   UNL     1       0.920  -7.012  -3.397  0.00  0.00    +0.036 A 
ATOM     21  C   UNL     1       0.922  -7.693  -4.608  0.00  0.00    +0.017 A 
ATOM     22  C   UNL     1       1.984  -7.428  -5.439  0.00  0.00    +0.008 A 
ATOM     23  C   UNL     1       2.933  -6.547  -5.036  0.00  0.00    +0.046 A 
ATOM     24  S   UNL     1       2.412  -6.043  -3.521  0.00  0.00    -0.095 S 
ENDBRANCH  19  20
ENDBRANCH  14  15
ENDBRANCH   8  14
TORSDOF 4
