REMARK  Name = ZINC39780227
REMARK  10 active torsions:
REMARK  status: ('A' for Active; 'I' for Inactive)
REMARK    1  A    between atoms: C_1  and  O_2
REMARK    2  A    between atoms: O_2  and  C_3
REMARK    3  A    between atoms: C_6  and  C_11
REMARK    4  A    between atoms: C_8  and  O_9
REMARK    5  A    between atoms: O_9  and  C_10
REMARK    6  A    between atoms: N_13  and  C_14
REMARK    7  A    between atoms: C_14  and  C_25
REMARK    8  A    between atoms: C_15  and  C_16
REMARK    9  A    between atoms: C_19  and  N_22
REMARK   10  A    between atoms: C_31  and  C_35
REMARK                            x       y       z     vdW  Elec       q    Type
REMARK                         _______ _______ _______ _____ _____    ______ ____
ROOT
ATOM      1  C   UNL     1      -6.846  -2.096  -0.930  0.00  0.00    +0.054 C 
ATOM      2  C   UNL     1      -7.942  -1.541  -0.404  0.00  0.00    +0.030 C 
ENDROOT
BRANCH   1   3
ATOM      3  C   UNL     1      -6.582  -1.989  -2.410  0.00  0.00    +0.220 C 
ATOM      4  N   UNL     1      -5.949  -0.700  -2.717  0.00  0.00    -0.359 N 
ATOM      5  C   UNL     1      -4.786  -0.953  -3.244  0.00  0.00    +0.060 A 
ATOM      6  C   UNL     1      -3.709  -0.090  -3.748  0.00  0.00    +0.028 A 
ATOM      7  C   UNL     1      -2.590  -0.648  -4.252  0.00  0.00    +0.014 A 
ATOM      8  C   UNL     1      -2.401  -2.040  -4.319  0.00  0.00    +0.057 A 
ATOM      9  C   UNL     1      -3.325  -2.921  -3.884  0.00  0.00    +0.039 A 
ATOM     10  C   UNL     1      -4.586  -2.426  -3.316  0.00  0.00    +0.061 A 
ATOM     11  N   UNL     1      -5.634  -3.029  -2.829  0.00  0.00    -0.359 N 
ATOM     12  H   UNL     1      -5.765  -3.987  -2.757  0.00  0.00    +0.162 HD
ATOM     13  H   UNL     1      -6.327   0.178  -2.556  0.00  0.00    +0.162 HD
BRANCH   8  14
ATOM     14  C   UNL     1      -1.115  -2.569  -4.900  0.00  0.00    +0.417 C 
ATOM     15  F   UNL     1      -0.302  -1.497  -5.286  0.00  0.00    -0.166 F 
ATOM     16  F   UNL     1      -0.449  -3.335  -3.937  0.00  0.00    -0.166 F 
ATOM     17  F   UNL     1      -1.399  -3.364  -6.015  0.00  0.00    -0.166 F 
ENDBRANCH   8  14
ENDBRANCH   1   3
BRANCH   2  18
ATOM     18  C   UNL     1      -9.241  -1.679  -1.091  0.00  0.00    -0.023 A 
ATOM     19  C   UNL     1     -10.091  -2.742  -0.775  0.00  0.00    +0.010 A 
ATOM     20  C   UNL     1     -11.304  -2.865  -1.421  0.00  0.00    +0.033 A 
ATOM     21  C   UNL     1     -11.678  -1.940  -2.379  0.00  0.00    +0.126 A 
ATOM     22  C   UNL     1     -10.841  -0.885  -2.697  0.00  0.00    +0.033 A 
ATOM     23  C   UNL     1      -9.628  -0.746  -2.055  0.00  0.00    +0.010 A 
BRANCH  21  24
ATOM     24  N   UNL     1     -12.981  -2.079  -3.068  0.00  0.00    +0.056 N 
ATOM     25  O   UNL     1     -13.715  -3.000  -2.793  0.00  0.00    -0.126 OA
ATOM     26  O   UNL     1     -13.311  -1.272  -3.906  0.00  0.00    -0.126 OA
ENDBRANCH  21  24
ENDBRANCH   2  18
BRANCH   1  29
ATOM     27  C   UNL     1      -4.630  -2.530  -0.219  0.00  0.00    +0.248 C 
ATOM     28  O   UNL     1      -4.218  -1.754  -1.060  0.00  0.00    -0.270 OA
ATOM     29  N   UNL     1      -5.952  -2.770  -0.114  0.00  0.00    -0.282 N 
ATOM     30  H   UNL     1      -6.277  -3.415   0.534  0.00  0.00    +0.155 HD
BRANCH  27  34
ATOM     31  C   UNL     1      -1.904  -4.488   2.387  0.00  0.00    +0.162 A 
ATOM     32  C   UNL     1      -3.266  -4.734   2.495  0.00  0.00    +0.050 A 
ATOM     33  C   UNL     1      -4.153  -4.100   1.652  0.00  0.00    +0.017 A 
ATOM     34  C   UNL     1      -3.682  -3.208   0.685  0.00  0.00    +0.041 A 
ATOM     35  C   UNL     1      -2.310  -2.961   0.577  0.00  0.00    +0.062 A 
ATOM     36  C   UNL     1      -1.427  -3.594   1.429  0.00  0.00    +0.162 A 
BRANCH  31  38
ATOM     37  C   UNL     1      -1.590  -6.017   4.179  0.00  0.00    +0.277 C 
ATOM     38  O   UNL     1      -1.034  -5.114   3.221  0.00  0.00    -0.491 OA
ENDBRANCH  31  38
BRANCH  36  39
ATOM     39  O   UNL     1      -0.093  -3.351   1.330  0.00  0.00    -0.491 OA
ATOM     40  C   UNL     1       0.324  -2.424   0.326  0.00  0.00    +0.277 C 
ENDBRANCH  36  39
ENDBRANCH  27  34
ENDBRANCH   1  29
TORSDOF 8
