REMARK  Name = ZINC23859218
REMARK  10 active torsions:
REMARK  status: ('A' for Active; 'I' for Inactive)
REMARK    1  A    between atoms: C_1  and  N_2
REMARK    2  A    between atoms: C_10  and  C_12
REMARK    3  A    between atoms: C_12  and  C_14
REMARK    4  A    between atoms: C_12  and  N_30
REMARK    5  A    between atoms: C_14  and  N_15
REMARK    6  A    between atoms: C_16  and  C_18
REMARK    7  A    between atoms: N_20  and  C_21
REMARK    8  A    between atoms: C_24  and  N_27
REMARK    9  A    between atoms: N_30  and  C_31
REMARK   10  A    between atoms: N_30  and  C_32
REMARK                            x       y       z     vdW  Elec       q    Type
REMARK                         _______ _______ _______ _____ _____    ______ ____
ROOT
ATOM      1  C   UNL     1       4.708  -2.796   3.799  0.00  0.00    +0.094 C 
ENDROOT
BRANCH   1   2
ATOM      2  N   UNL     1       5.702  -1.852   3.281  0.00  0.00    -0.309 N 
ATOM      3  C   UNL     1       6.968  -2.260   3.062  0.00  0.00    +0.299 C 
ATOM      4  O   UNL     1       7.285  -3.408   3.294  0.00  0.00    -0.265 OA
ATOM      5  H   UNL     1       5.415  -0.811   3.071  0.00  0.00    +0.149 HD
BRANCH   3   6
ATOM      6  C   UNL     1       7.982  -1.298   2.534  0.00  0.00    +0.303 C 
ATOM      7  O   UNL     1       7.665  -0.150   2.302  0.00  0.00    -0.265 OA
ATOM      8  N   UNL     1       9.248  -1.706   2.315  0.00  0.00    -0.278 N 
ATOM      9  H   UNL     1       9.515  -2.764   2.447  0.00  0.00    +0.155 HD
BRANCH   8  10
ATOM     10  C   UNL     1      10.220  -0.783   1.921  0.00  0.00    +0.034 A 
ATOM     11  C   UNL     1      11.236  -1.170   1.056  0.00  0.00    +0.025 A 
ATOM     12  C   UNL     1      12.193  -0.254   0.665  0.00  0.00    +0.034 A 
ATOM     13  C   UNL     1      12.147   1.043   1.141  0.00  0.00    +0.126 A 
ATOM     14  C   UNL     1      11.140   1.430   2.007  0.00  0.00    +0.034 A 
ATOM     15  C   UNL     1      10.177   0.521   2.398  0.00  0.00    +0.025 A 
BRANCH  13  16
ATOM     16  N   UNL     1      13.177   2.020   0.724  0.00  0.00    +0.056 N 
ATOM     17  O   UNL     1      13.138   3.163   1.142  0.00  0.00    -0.126 OA
ATOM     18  O   UNL     1      14.065   1.681  -0.038  0.00  0.00    -0.126 OA
ENDBRANCH  13  16
ENDBRANCH   8  10
ENDBRANCH   3   6
ENDBRANCH   1   2
BRANCH   1  19
ATOM     19  C   UNL     1       3.397  -2.056   4.071  0.00  0.00    -0.021 C 
BRANCH  19  29
ATOM     20  C   UNL     1       0.045  -0.809  -1.137  0.00  0.00    +0.129 C 
ATOM     21  N   UNL     1       1.300  -0.109  -0.830  0.00  0.00    -0.333 N 
ATOM     22  C   UNL     1       1.121   1.343  -0.899  0.00  0.00    +0.105 C 
ATOM     23  C   UNL     1       2.451   2.019  -0.544  0.00  0.00    +0.024 C 
ATOM     24  C   UNL     1       2.731   1.760   0.938  0.00  0.00    +0.038 C 
ATOM     25  C   UNL     1       2.515   0.299   1.247  0.00  0.00    -0.026 A 
ATOM     26  C   UNL     1       1.828  -0.539   0.387  0.00  0.00    +0.033 A 
ATOM     27  C   UNL     1       1.646  -1.878   0.735  0.00  0.00    +0.023 A 
ATOM     28  C   UNL     1       2.150  -2.365   1.922  0.00  0.00    +0.004 A 
ATOM     29  C   UNL     1       2.841  -1.525   2.775  0.00  0.00    -0.059 A 
ATOM     30  C   UNL     1       3.022  -0.198   2.437  0.00  0.00    +0.007 A 
ENDBRANCH  19  29
BRANCH  19  31
ATOM     31  N   UNL     1       2.429  -2.981   4.676  0.00  0.00    +0.382 N 
ATOM     32  C   UNL     1       2.897  -3.450   5.987  0.00  0.00    -0.096 C 
ATOM     33  C   UNL     1       1.102  -2.360   4.782  0.00  0.00    -0.096 C 
ATOM     34  H   UNL     1       2.341  -3.857   4.016  0.00  0.00    -0.082 HD
ENDBRANCH  19  31
ENDBRANCH   1  19
TORSDOF 7
