REMARK  Name = ZINC58390672
REMARK  6 active torsions:
REMARK  status: ('A' for Active; 'I' for Inactive)
REMARK    1  A    between atoms: C_1  and  C_2
REMARK    2  A    between atoms: C_2  and  C_3
REMARK    3  A    between atoms: C_2  and  C_4
REMARK    4  A    between atoms: C_2  and  O_5
REMARK    5  A    between atoms: O_5  and  C_6
REMARK    6  A    between atoms: N_16  and  C_17
REMARK                            x       y       z     vdW  Elec       q    Type
REMARK                         _______ _______ _______ _____ _____    ______ ____
ROOT
ATOM      1  C   UNL     1       2.231  -0.212  -1.149  0.00  0.00    +0.403 C 
ATOM      2  O   UNL     1       2.664   0.659  -0.421  0.00  0.00    -0.226 OA
ATOM      3  N   UNL     1       2.931  -0.592  -2.236  0.00  0.00    -0.264 N 
ATOM      4  C   UNL     1       2.417  -1.640  -3.128  0.00  0.00    +0.130 C 
ATOM      5  C   UNL     1       2.355  -1.082  -4.556  0.00  0.00    +0.128 C 
ATOM      6  N   UNL     1       3.646  -0.455  -4.871  0.00  0.00    -0.282 N 
ATOM      7  C   UNL     1       4.160   0.594  -3.978  0.00  0.00    +0.128 C 
ATOM      8  C   UNL     1       4.219   0.040  -2.554  0.00  0.00    +0.130 C 
ATOM      9  C   UNL     1       4.345  -0.834  -5.958  0.00  0.00    +0.307 C 
ATOM     10  O   UNL     1       3.957  -1.765  -6.637  0.00  0.00    -0.252 OA
ATOM     11  N   UNL     1       5.476  -0.181  -6.294  0.00  0.00    -0.268 N 
ATOM     12  H   UNL     1       5.821   0.518  -5.717  0.00  0.00    +0.156 HD
ENDROOT
BRANCH  11  13
ATOM     13  C   UNL     1       6.152  -0.513  -7.476  0.00  0.00    +0.052 A 
ATOM     14  C   UNL     1       5.499  -1.220  -8.475  0.00  0.00    +0.073 A 
ATOM     15  C   UNL     1       6.168  -1.548  -9.644  0.00  0.00    +0.164 A 
ATOM     16  C   UNL     1       7.493  -1.167  -9.814  0.00  0.00    +0.163 A 
ATOM     17  C   UNL     1       8.145  -0.462  -8.813  0.00  0.00    +0.066 A 
ATOM     18  C   UNL     1       7.476  -0.130  -7.649  0.00  0.00    +0.043 A 
ATOM     19 BR   UNL     1       8.366   0.838  -6.291  0.00  0.00    -0.048 Br
ATOM     20  O   UNL     1       8.165  -1.473 -10.959  0.00  0.00    -0.485 OA
ATOM     21  C   UNL     1       7.599  -2.500 -11.781  0.00  0.00    +0.270 C 
ATOM     22  C   UNL     1       6.095  -2.229 -11.921  0.00  0.00    +0.270 C 
ATOM     23  O   UNL     1       5.513  -2.245 -10.613  0.00  0.00    -0.485 OA
ENDBRANCH  11  13
BRANCH   1  24
ATOM     24  O   UNL     1       1.052  -0.799  -0.868  0.00  0.00    -0.445 OA
BRANCH  24  26
ATOM     25  C   UNL     1       0.059   1.146   0.167  0.00  0.00    +0.055 C 
ATOM     26  C   UNL     1       0.364  -0.347   0.300  0.00  0.00    +0.107 C 
ATOM     27  C   UNL     1       1.243  -0.581   1.531  0.00  0.00    +0.055 C 
ATOM     28  C   UNL     1      -0.945  -1.124   0.453  0.00  0.00    +0.055 C 
ENDBRANCH  24  26
ENDBRANCH   1  24
TORSDOF 3
