REMARK  Name = ZINC10693082
REMARK  7 active torsions:
REMARK  status: ('A' for Active; 'I' for Inactive)
REMARK    1  A    between atoms: C_1  and  C_2
REMARK    2  A    between atoms: N_11  and  C_15
REMARK    3  A    between atoms: C_15  and  C_16
REMARK    4  A    between atoms: C_16  and  O_18
REMARK    5  A    between atoms: O_18  and  C_19
REMARK    6  A    between atoms: C_19  and  C_20
REMARK    7  A    between atoms: N_22  and  C_23
REMARK                            x       y       z     vdW  Elec       q    Type
REMARK                         _______ _______ _______ _____ _____    ______ ____
ROOT
ATOM      1  C   UNL     1      -2.970   0.310   5.573  0.00  0.00    +0.326 C 
ATOM      2  O   UNL     1      -1.784   0.336   5.343  0.00  0.00    -0.249 OA
ENDROOT
BRANCH   1   3
ATOM      3  C   UNL     1      -3.958   0.299   4.435  0.00  0.00    +0.238 C 
BRANCH   3  13
ATOM      4  C   UNL     1      -0.002   0.988   2.500  0.00  0.00    +0.010 C 
ATOM      5  C   UNL     1      -0.730   1.502   1.256  0.00  0.00    +0.018 C 
ATOM      6  C   UNL     1      -0.014   0.997   0.001  0.00  0.00    +0.006 C 
ATOM      7  C   UNL     1      -0.754   1.496  -1.242  0.00  0.00    +0.000 C 
ATOM      8  C   UNL     1      -2.188   0.962  -1.233  0.00  0.00    +0.003 C 
ATOM      9  C   UNL     1      -2.911   1.468   0.018  0.00  0.00    +0.035 C 
ATOM     10  C   UNL     1      -2.168   0.996   1.262  0.00  0.00    +0.115 C 
ATOM     11  C   UNL     1      -2.885   1.454   2.511  0.00  0.00    +0.247 C 
ATOM     12  O   UNL     1      -3.099   2.597   2.857  0.00  0.00    -0.273 OA
ATOM     13  N   UNL     1      -3.235   0.325   3.161  0.00  0.00    -0.213 N 
ATOM     14  C   UNL     1      -2.841  -0.768   2.497  0.00  0.00    +0.310 C 
ATOM     15  O   UNL     1      -3.042  -1.903   2.883  0.00  0.00    -0.252 OA
ATOM     16  N   UNL     1      -2.196  -0.470   1.353  0.00  0.00    -0.285 N 
ATOM     17  H   UNL     1      -1.823  -1.099   0.715  0.00  0.00    +0.151 HD
ENDBRANCH   3  13
ENDBRANCH   1   3
BRANCH   1  18
ATOM     18  O   UNL     1      -3.408   0.289   6.842  0.00  0.00    -0.454 OA
BRANCH  18  19
ATOM     19  C   UNL     1      -2.400   0.301   7.887  0.00  0.00    +0.328 C 
BRANCH  19  20
ATOM     20  C   UNL     1      -3.074   0.275   9.235  0.00  0.00    +0.255 C 
ATOM     21  O   UNL     1      -4.284   0.249   9.307  0.00  0.00    -0.272 OA
ATOM     22  N   UNL     1      -2.331   0.281  10.359  0.00  0.00    -0.280 N 
ATOM     23  H   UNL     1      -1.364   0.236  10.302  0.00  0.00    +0.155 HD
BRANCH  22  24
ATOM     24  C   UNL     1      -2.956   0.351  11.611  0.00  0.00    +0.070 A 
ATOM     25  C   UNL     1      -4.180  -0.272  11.813  0.00  0.00    +0.046 A 
ATOM     26  C   UNL     1      -4.792  -0.205  13.051  0.00  0.00    +0.043 A 
ATOM     27  C   UNL     1      -4.191   0.490  14.085  0.00  0.00    +0.023 A 
ATOM     28  C   UNL     1      -2.975   1.117  13.886  0.00  0.00    +0.041 A 
ATOM     29  C   UNL     1      -2.355   1.050  12.652  0.00  0.00    +0.145 A 
ATOM     30  F   UNL     1      -1.166   1.662  12.458  0.00  0.00    -0.204 F 
ATOM     31 CL   UNL     1      -6.319  -0.990  13.306  0.00  0.00    -0.083 Cl
ENDBRANCH  22  24
ENDBRANCH  19  20
ENDBRANCH  18  19
ENDBRANCH   1  18
TORSDOF 6
