REMARK  Name = ZINC63698187
REMARK  9 active torsions:
REMARK  status: ('A' for Active; 'I' for Inactive)
REMARK    1  A    between atoms: C_1  and  C_2
REMARK    2  A    between atoms: C_2  and  C_3
REMARK    3  A    between atoms: C_2  and  C_4
REMARK    4  A    between atoms: C_6  and  C_23
REMARK    5  A    between atoms: C_13  and  O_17
REMARK    6  A    between atoms: O_17  and  C_18
REMARK    7  A    between atoms: C_18  and  C_20
REMARK    8  A    between atoms: C_20  and  C_21
REMARK    9  A    between atoms: C_20  and  C_22
REMARK                            x       y       z     vdW  Elec       q    Type
REMARK                         _______ _______ _______ _____ _____    ______ ____
ROOT
ATOM      1  C   UNL     1      -1.411  -0.560   0.122  0.00  0.00    +0.190 C 
ATOM      2  C   UNL     1      -1.366  -2.095   0.170  0.00  0.00    +0.143 C 
ATOM      3  C   UNL     1      -0.703  -2.483   1.479  0.00  0.00    +0.177 C 
ATOM      4  O   UNL     1       0.088  -3.401   1.546  0.00  0.00    -0.291 OA
ATOM      5  C   UNL     1      -1.069  -1.689   2.663  0.00  0.00    +0.060 A 
ATOM      6  C   UNL     1      -0.715  -2.117   3.946  0.00  0.00    +0.018 A 
ATOM      7  C   UNL     1      -1.059  -1.361   5.031  0.00  0.00    +0.047 A 
ATOM      8  C   UNL     1      -1.758  -0.169   4.863  0.00  0.00    +0.135 A 
ATOM      9  C   UNL     1      -2.117   0.266   3.596  0.00  0.00    +0.092 A 
ATOM     10  C   UNL     1      -1.780  -0.490   2.485  0.00  0.00    +0.135 A 
ATOM     11  O   UNL     1      -2.140  -0.073   1.248  0.00  0.00    -0.487 OA
ENDROOT
BRANCH   2  12
ATOM     12  C   UNL     1      -2.787  -2.660   0.115  0.00  0.00    +0.188 C 
ATOM     13  N   UNL     1      -2.744  -4.127   0.087  0.00  0.00    -0.363 N 
ATOM     14  C   UNL     1      -3.306  -4.513  -1.022  0.00  0.00    +0.060 A 
ATOM     15  C   UNL     1      -3.559  -5.838  -1.605  0.00  0.00    +0.027 A 
ATOM     16  C   UNL     1      -4.176  -5.931  -2.800  0.00  0.00    +0.002 A 
ATOM     17  C   UNL     1      -4.596  -4.803  -3.527  0.00  0.00    +0.002 A 
ATOM     18  C   UNL     1      -4.413  -3.543  -3.083  0.00  0.00    +0.027 A 
ATOM     19  C   UNL     1      -3.751  -3.319  -1.790  0.00  0.00    +0.060 A 
ATOM     20  N   UNL     1      -3.448  -2.241  -1.127  0.00  0.00    -0.363 N 
ATOM     21  H   UNL     1      -2.367  -4.704   0.770  0.00  0.00    +0.162 HD
ATOM     22  H   UNL     1      -3.627  -1.328  -1.402  0.00  0.00    +0.162 HD
ENDBRANCH   2  12
BRANCH   1  24
ATOM     23  C   UNL     1       0.753  -0.414  -1.118  0.00  0.00    +0.011 C 
ATOM     24  C   UNL     1       0.015  -0.006   0.158  0.00  0.00    +0.024 C 
ATOM     25  C   UNL     1      -0.033   1.520   0.254  0.00  0.00    +0.011 C 
ENDBRANCH   1  24
BRANCH   8  26
ATOM     26  O   UNL     1      -2.091   0.574   5.949  0.00  0.00    -0.426 OA
BRANCH  26  27
ATOM     27  C   UNL     1      -3.365   0.539   6.372  0.00  0.00    +0.315 C 
ATOM     28  O   UNL     1      -4.195  -0.069   5.737  0.00  0.00    -0.250 OA
BRANCH  27  29
ATOM     29  C   UNL     1      -3.760   1.256   7.636  0.00  0.00    +0.092 C 
ATOM     30  C   UNL     1      -3.461   2.750   7.490  0.00  0.00    +0.019 C 
ATOM     31  C   UNL     1      -5.256   1.058   7.889  0.00  0.00    +0.019 C 
ENDBRANCH  27  29
ENDBRANCH  26  27
ENDBRANCH   8  26
TORSDOF 5
