REMARK  Name = ZINC42081612
REMARK  6 active torsions:
REMARK  status: ('A' for Active; 'I' for Inactive)
REMARK    1  A    between atoms: C_1  and  O_2
REMARK    2  A    between atoms: O_2  and  C_3
REMARK    3  A    between atoms: C_3  and  C_5
REMARK    4  A    between atoms: N_7  and  C_10
REMARK    5  A    between atoms: C_10  and  N_11
REMARK    6  A    between atoms: C_14  and  C_17
REMARK                            x       y       z     vdW  Elec       q    Type
REMARK                         _______ _______ _______ _____ _____    ______ ____
ROOT
ATOM      1  N   UNL     1      -3.077  -5.783  -1.389  0.00  0.00    +0.393 N 
ATOM      2  C   UNL     1      -1.798  -6.240  -1.944  0.00  0.00    -0.076 C 
ATOM      3  C   UNL     1      -1.987  -6.642  -3.408  0.00  0.00    -0.008 C 
ATOM      4  C   UNL     1      -3.016  -7.773  -3.493  0.00  0.00    +0.041 C 
ATOM      5  C   UNL     1      -4.324  -7.310  -2.844  0.00  0.00    -0.008 C 
ATOM      6  C   UNL     1      -4.047  -6.884  -1.400  0.00  0.00    -0.076 C 
ATOM      7  H   UNL     1      -3.429  -5.019  -1.946  0.00  0.00    -0.079 HD
ENDROOT
BRANCH   4   8
ATOM      8  C   UNL     1      -3.266  -8.120  -4.938  0.00  0.00    +0.082 A 
ATOM      9  N   UNL     1      -3.714  -7.341  -5.879  0.00  0.00    -0.244 NA
ATOM     10  C   UNL     1      -3.896  -7.774  -7.144  0.00  0.00    +0.080 A 
ATOM     11  C   UNL     1      -4.367  -7.079  -8.278  0.00  0.00    +0.049 A 
ATOM     12  C   UNL     1      -4.478  -7.718  -9.488  0.00  0.00    +0.043 A 
ATOM     13  C   UNL     1      -4.133  -9.056  -9.634  0.00  0.00    +0.021 A 
ATOM     14  C   UNL     1      -3.668  -9.763  -8.542  0.00  0.00    +0.018 A 
ATOM     15  C   UNL     1      -3.554  -9.133  -7.327  0.00  0.00    +0.039 A 
ATOM     16  S   UNL     1      -3.022  -9.600  -5.700  0.00  0.00    -0.072 S 
ATOM     17 CL   UNL     1      -5.061  -6.835 -10.864  0.00  0.00    -0.083 Cl
ENDBRANCH   4   8
BRANCH   1  18
ATOM     18  C   UNL     1      -2.874  -5.326  -0.007  0.00  0.00    +0.070 C 
BRANCH  18  21
ATOM     19  C   UNL     1      -1.247  -2.105   0.003  0.00  0.00    +0.189 A 
ATOM     20  C   UNL     1      -2.386  -2.860   0.004  0.00  0.00    +0.143 A 
ATOM     21  N   UNL     1      -1.998  -4.151  -0.005  0.00  0.00    -0.267 N 
ATOM     22  N   UNL     1      -0.596  -4.154  -0.012  0.00  0.00    -0.067 NA
ATOM     23  N   UNL     1      -0.188  -2.933  -0.012  0.00  0.00    -0.123 NA
BRANCH  19  24
ATOM     24  C   UNL     1      -1.190  -0.632   0.010  0.00  0.00    +0.361 C 
ATOM     25  O   UNL     1      -2.218   0.016   0.023  0.00  0.00    -0.243 OA
BRANCH  24  27
ATOM     26  C   UNL     1      -0.017   1.425   0.010  0.00  0.00    +0.280 C 
ATOM     27  O   UNL     1       0.002  -0.004   0.002  0.00  0.00    -0.463 OA
ENDBRANCH  24  27
ENDBRANCH  19  24
ENDBRANCH  18  21
ENDBRANCH   1  18
TORSDOF 5
