REMARK  Name = ZINC04479072
REMARK  5 active torsions:
REMARK  status: ('A' for Active; 'I' for Inactive)
REMARK    1  A    between atoms: C_1  and  C_2
REMARK    2  A    between atoms: C_7  and  N_8
REMARK    3  A    between atoms: N_15  and  C_18
REMARK    4  A    between atoms: C_18  and  C_19
REMARK    5  A    between atoms: N_21  and  C_22
REMARK                            x       y       z     vdW  Elec       q    Type
REMARK                         _______ _______ _______ _____ _____    ______ ____
ROOT
ATOM      1  N   UNL     1       2.312   4.285   0.264  0.00  0.00    -0.214 N 
ATOM      2  C   UNL     1       1.213   3.518   0.499  0.00  0.00    +0.170 A 
ATOM      3  C   UNL     1       0.120   4.396   0.574  0.00  0.00    +0.103 A 
ATOM      4  C   UNL     1       0.616   5.698   0.374  0.00  0.00    +0.150 A 
ATOM      5  N   UNL     1       1.906   5.624   0.193  0.00  0.00    -0.172 NA
ATOM      6  C   UNL     1      -1.205   3.828   0.823  0.00  0.00    +0.265 A 
ATOM      7  O   UNL     1      -2.192   4.538   0.898  0.00  0.00    -0.267 OA
ATOM      8  N   UNL     1      -1.293   2.485   0.960  0.00  0.00    -0.290 N 
ATOM      9  C   UNL     1      -0.180   1.714   0.877  0.00  0.00    +0.204 A 
ATOM     10  N   UNL     1       1.006   2.201   0.657  0.00  0.00    -0.217 NA
ENDROOT
BRANCH   1  17
ATOM     11  C   UNL     1       3.843   5.239  -1.938  0.00  0.00    +0.046 C 
ATOM     12  C   UNL     1       4.405   4.256  -0.943  0.00  0.00    -0.025 A 
ATOM     13  C   UNL     1       5.700   3.796  -1.082  0.00  0.00    +0.005 A 
ATOM     14  C   UNL     1       6.215   2.890  -0.173  0.00  0.00    +0.000 A 
ATOM     15  C   UNL     1       5.437   2.446   0.881  0.00  0.00    +0.002 A 
ATOM     16  C   UNL     1       4.144   2.907   1.029  0.00  0.00    +0.028 A 
ATOM     17  C   UNL     1       3.624   3.816   0.117  0.00  0.00    +0.071 A 
ENDBRANCH   1  17
BRANCH   8  18
ATOM     18  C   UNL     1      -2.596   1.861   1.206  0.00  0.00    +0.221 C 
BRANCH  18  19
ATOM     19  C   UNL     1      -2.844   1.783   2.690  0.00  0.00    +0.233 C 
ATOM     20  O   UNL     1      -2.015   2.207   3.466  0.00  0.00    -0.274 OA
ATOM     21  N   UNL     1      -3.988   1.242   3.155  0.00  0.00    -0.317 N 
ATOM     22  C   UNL     1      -4.229   1.167   4.598  0.00  0.00    +0.128 C 
ATOM     23  H   UNL     1      -4.651   0.903   2.533  0.00  0.00    +0.148 HD
ENDBRANCH  18  19
ENDBRANCH   8  18
TORSDOF 3
