REMARK  Name = ZINC48513867
REMARK  6 active torsions:
REMARK  status: ('A' for Active; 'I' for Inactive)
REMARK    1  A    between atoms: C_1  and  C_2
REMARK    2  A    between atoms: C_2  and  C_3
REMARK    3  A    between atoms: C_2  and  C_4
REMARK    4  A    between atoms: C_10  and  C_12
REMARK    5  A    between atoms: C_12  and  S_13
REMARK    6  A    between atoms: S_13  and  C_14
REMARK                            x       y       z     vdW  Elec       q    Type
REMARK                         _______ _______ _______ _____ _____    ______ ____
ROOT
ATOM      1  C   UNL     1      -9.941  -3.513   0.327  0.00  0.00    +0.170 A 
ATOM      2  N   UNL     1     -11.103  -3.500   1.044  0.00  0.00    -0.301 N 
ATOM      3  H   UNL     1     -11.144  -3.001   1.874  0.00  0.00    +0.171 HD
ATOM      4  C   UNL     1     -12.193  -4.166   0.620  0.00  0.00    +0.261 A 
ATOM      5  O   UNL     1     -13.223  -4.144   1.271  0.00  0.00    -0.267 OA
ATOM      6  C   UNL     1     -12.126  -4.900  -0.607  0.00  0.00    +0.075 A 
ATOM      7  C   UNL     1     -13.178  -5.689  -1.250  0.00  0.00    -0.023 A 
ATOM      8  C   UNL     1     -12.864  -6.293  -2.414  0.00  0.00    -0.004 A 
ATOM      9  S   UNL     1     -11.175  -5.854  -2.721  0.00  0.00    -0.073 S 
ATOM     10  C   UNL     1     -10.893  -4.858  -1.279  0.00  0.00    +0.117 A 
ATOM     11  N   UNL     1      -9.855  -4.176  -0.809  0.00  0.00    -0.216 NA
ATOM     12  C   UNL     1     -13.755  -7.150  -3.262  0.00  0.00    +0.043 C 
ATOM     13  C   UNL     1     -14.979  -7.552  -2.425  0.00  0.00    +0.005 C 
ATOM     14  C   UNL     1     -15.536  -6.302  -1.739  0.00  0.00    +0.005 C 
ATOM     15  C   UNL     1     -14.572  -5.836  -0.647  0.00  0.00    +0.037 C 
ENDROOT
BRANCH   1  16
ATOM     16  S   UNL     1      -8.541  -2.626   0.924  0.00  0.00    -0.078 S 
BRANCH  16  17
ATOM     17  C   UNL     1      -7.267  -2.920  -0.332  0.00  0.00    +0.173 C 
BRANCH  17  24
ATOM     18  C   UNL     1      -1.412  -0.526   0.013  0.00  0.00    +0.106 A 
ATOM     19  N   UNL     1      -2.373  -0.344   0.896  0.00  0.00    -0.144 NA
ATOM     20  N   UNL     1      -3.498  -0.884   0.699  0.00  0.00    -0.126 NA
ATOM     21  C   UNL     1      -3.740  -1.625  -0.364  0.00  0.00    +0.188 A 
ATOM     22  S   UNL     1      -2.261  -1.559  -1.172  0.00  0.00    -0.035 S 
ATOM     23  N   UNL     1      -4.909  -2.283  -0.728  0.00  0.00    -0.263 N 
ATOM     24  C   UNL     1      -5.999  -2.206   0.061  0.00  0.00    +0.229 C 
ATOM     25  O   UNL     1      -5.960  -1.562   1.089  0.00  0.00    -0.275 OA
ATOM     26  H   UNL     1      -4.941  -2.798  -1.549  0.00  0.00    +0.157 HD
BRANCH  18  28
ATOM     27  C   UNL     1      -0.019   1.526   0.010  0.00  0.00    +0.014 C 
ATOM     28  C   UNL     1       0.002  -0.004   0.002  0.00  0.00    +0.040 C 
ATOM     29  C   UNL     1       0.742  -0.511   1.242  0.00  0.00    +0.014 C 
ENDBRANCH  18  28
ENDBRANCH  17  24
ENDBRANCH  16  17
ENDBRANCH   1  16
TORSDOF 4
