REMARK  Name = ZINC35367258
REMARK  6 active torsions:
REMARK  status: ('A' for Active; 'I' for Inactive)
REMARK    1  A    between atoms: C_3  and  N_22
REMARK    2  A    between atoms: C_6  and  C_7
REMARK    3  A    between atoms: C_7  and  C_9
REMARK    4  A    between atoms: C_7  and  O_21
REMARK    5  A    between atoms: C_9  and  N_10
REMARK    6  A    between atoms: N_13  and  C_14
REMARK                            x       y       z     vdW  Elec       q    Type
REMARK                         _______ _______ _______ _____ _____    ______ ____
ROOT
ATOM      1  C   UNL     1      -1.656  -1.146   1.449  0.00  0.00    +0.141 C 
ENDROOT
BRANCH   1   2
ATOM      2  N   UNL     1      -2.916  -1.893   1.458  0.00  0.00    -0.296 N 
ATOM      3  C   UNL     1      -3.428  -2.337   2.623  0.00  0.00    +0.304 C 
ATOM      4  O   UNL     1      -2.844  -2.119   3.667  0.00  0.00    -0.253 OA
ATOM      5  N   UNL     1      -4.588  -3.024   2.631  0.00  0.00    -0.269 N 
ATOM      6  H   UNL     1      -3.383  -2.067   0.626  0.00  0.00    +0.150 HD
ATOM      7  H   UNL     1      -5.088  -3.140   1.808  0.00  0.00    +0.156 HD
BRANCH   5   8
ATOM      8  C   UNL     1      -5.071  -3.569   3.827  0.00  0.00    +0.035 A 
ATOM      9  C   UNL     1      -5.742  -4.784   3.817  0.00  0.00    +0.025 A 
ATOM     10  C   UNL     1      -6.217  -5.320   4.998  0.00  0.00    +0.022 A 
ATOM     11  C   UNL     1      -6.025  -4.646   6.191  0.00  0.00    +0.041 A 
ATOM     12  C   UNL     1      -5.357  -3.434   6.204  0.00  0.00    +0.022 A 
ATOM     13  C   UNL     1      -4.874  -2.897   5.026  0.00  0.00    +0.025 A 
ATOM     14 CL   UNL     1      -6.623  -5.321   7.674  0.00  0.00    -0.084 Cl
ENDBRANCH   5   8
ENDBRANCH   1   2
BRANCH   1  15
ATOM     15  C   UNL     1      -1.301  -0.762   0.012  0.00  0.00    +0.162 C 
BRANCH  15  21
ATOM     16  C   UNL     1      -0.021   1.389   0.019  0.00  0.00    +0.008 A 
ATOM     17  C   UNL     1       1.165   2.095   0.011  0.00  0.00    +0.023 A 
ATOM     18  C   UNL     1       2.377   1.416  -0.013  0.00  0.00    +0.025 A 
ATOM     19  C   UNL     1       2.390   0.027  -0.029  0.00  0.00    +0.023 A 
ATOM     20  C   UNL     1       1.200  -0.674  -0.021  0.00  0.00    +0.008 A 
ATOM     21  C   UNL     1      -0.004   0.006   0.003  0.00  0.00    -0.018 A 
BRANCH  18  22
ATOM     22  N   UNL     1       3.579   2.127  -0.022  0.00  0.00    -0.358 N 
ATOM     23  H   UNL     1       3.568   3.097  -0.011  0.00  0.00    +0.142 HD
ATOM     24  H   UNL     1       4.424   1.652  -0.038  0.00  0.00    +0.142 HD
ENDBRANCH  18  22
ENDBRANCH  15  21
BRANCH  15  25
ATOM     25  O   UNL     1      -1.159  -1.945  -0.777  0.00  0.00    -0.386 OA
ATOM     26  H   UNL     1      -0.470  -2.546  -0.464  0.00  0.00    +0.210 HD
ENDBRANCH  15  25
ENDBRANCH   1  15
TORSDOF 6
