REMARK  Name = ZINC04226128
REMARK  13 active torsions:
REMARK  status: ('A' for Active; 'I' for Inactive)
REMARK    1  A    between atoms: C_1  and  C_2
REMARK    2  A    between atoms: C_2  and  C_3
REMARK    3  A    between atoms: C_2  and  C_4
REMARK    4  A    between atoms: C_2  and  C_5
REMARK    5  A    between atoms: C_8  and  C_11
REMARK    6  A    between atoms: C_12  and  C_13
REMARK    7  A    between atoms: C_12  and  N_17
REMARK    8  A    between atoms: N_15  and  N_16
REMARK    9  A    between atoms: C_18  and  C_20
REMARK   10  A    between atoms: C_23  and  C_26
REMARK   11  A    between atoms: C_26  and  C_27
REMARK   12  A    between atoms: C_26  and  C_28
REMARK   13  A    between atoms: C_26  and  C_29
REMARK                            x       y       z     vdW  Elec       q    Type
REMARK                         _______ _______ _______ _____ _____    ______ ____
ROOT
ATOM      1  C   UNL     1       3.775  -4.815   0.399  0.00  0.00    +0.036 C 
ATOM      2  C   UNL     1       2.572  -4.357  -0.018  0.00  0.00    +0.098 C 
ENDROOT
BRANCH   1   6
ATOM      3  C   UNL     1       4.135  -8.763   1.908  0.00  0.00    -0.042 A 
ATOM      4  C   UNL     1       5.204  -8.176   1.254  0.00  0.00    +0.005 A 
ATOM      5  C   UNL     1       5.095  -6.893   0.760  0.00  0.00    +0.008 A 
ATOM      6  C   UNL     1       3.900  -6.185   0.922  0.00  0.00    -0.023 A 
ATOM      7  C   UNL     1       2.826  -6.783   1.589  0.00  0.00    +0.008 A 
ATOM      8  C   UNL     1       2.949  -8.068   2.073  0.00  0.00    +0.005 A 
BRANCH   3  10
ATOM      9  C   UNL     1       5.399 -10.218   3.467  0.00  0.00    +0.015 C 
ATOM     10  C   UNL     1       4.263 -10.165   2.444  0.00  0.00    -0.013 C 
ATOM     11  C   UNL     1       2.951 -10.575   3.117  0.00  0.00    +0.015 C 
ATOM     12  C   UNL     1       4.568 -11.126   1.293  0.00  0.00    +0.015 C 
ENDBRANCH   3  10
ENDBRANCH   1   6
BRANCH   2  13
ATOM     13  C   UNL     1       1.416  -5.265  -0.065  0.00  0.00    +0.272 C 
ATOM     14  O   UNL     1       0.472  -5.085   0.681  0.00  0.00    -0.268 OA
ATOM     15  N   UNL     1       1.403  -6.295  -0.933  0.00  0.00    -0.249 N 
ATOM     16  H   UNL     1       2.185  -6.481  -1.477  0.00  0.00    +0.169 HD
BRANCH  15  17
ATOM     17  N   UNL     1       0.289  -7.077  -1.048  0.00  0.00    -0.254 NA
ATOM     18  H   UNL     1      -0.522  -6.520  -1.270  0.00  0.00    +0.140 HD
ATOM     19  H   UNL     1       0.427  -7.804  -1.734  0.00  0.00    +0.140 HD
ENDBRANCH  15  17
ENDBRANCH   2  13
BRANCH   2  20
ATOM     20  N   UNL     1       2.429  -3.022  -0.405  0.00  0.00    -0.277 N 
ATOM     21  C   UNL     1       1.264  -2.594  -0.931  0.00  0.00    +0.248 C 
ATOM     22  O   UNL     1       0.366  -3.386  -1.143  0.00  0.00    -0.270 OA
ATOM     23  H   UNL     1       3.167  -2.403  -0.293  0.00  0.00    +0.155 HD
BRANCH  21  24
ATOM     24  C   UNL     1       1.080  -1.163  -1.252  0.00  0.00    +0.037 A 
ATOM     25  C   UNL     1      -0.125  -0.717  -1.798  0.00  0.00    +0.013 A 
ATOM     26  C   UNL     1      -0.291   0.620  -2.095  0.00  0.00    +0.005 A 
ATOM     27  C   UNL     1       0.733   1.518  -1.852  0.00  0.00    -0.042 A 
ATOM     28  C   UNL     1       1.930   1.082  -1.311  0.00  0.00    +0.005 A 
ATOM     29  C   UNL     1       2.109  -0.252  -1.010  0.00  0.00    +0.013 A 
BRANCH  27  30
ATOM     30  C   UNL     1       0.544   2.977  -2.179  0.00  0.00    -0.013 C 
ATOM     31  C   UNL     1      -0.634   3.531  -1.376  0.00  0.00    +0.015 C 
ATOM     32  C   UNL     1       1.815   3.749  -1.819  0.00  0.00    +0.015 C 
ATOM     33  C   UNL     1       0.261   3.132  -3.675  0.00  0.00    +0.015 C 
ENDBRANCH  27  30
ENDBRANCH  21  24
ENDBRANCH   2  20
TORSDOF 7
