REMARK  Name = ZINC49974313
REMARK  4 active torsions:
REMARK  status: ('A' for Active; 'I' for Inactive)
REMARK    1  A    between atoms: C_1  and  N_2
REMARK    2  A    between atoms: C_8  and  C_10
REMARK    3  A    between atoms: C_14  and  N_16
REMARK    4  A    between atoms: C_17  and  C_19
REMARK                            x       y       z     vdW  Elec       q    Type
REMARK                         _______ _______ _______ _____ _____    ______ ____
ROOT
ATOM      1  C   UNL     1      -0.100  -5.651   1.866  0.00  0.00    +0.039 A 
ATOM      2  C   UNL     1       0.074  -5.498   3.243  0.00  0.00    +0.013 A 
ATOM      3  C   UNL     1       0.269  -6.607   4.040  0.00  0.00    +0.003 A 
ATOM      4  C   UNL     1       0.294  -7.871   3.481  0.00  0.00    +0.023 A 
ATOM      5  C   UNL     1       0.122  -8.034   2.111  0.00  0.00    +0.034 A 
ATOM      6  C   UNL     1      -0.081  -6.926   1.302  0.00  0.00    +0.036 A 
ENDROOT
BRANCH   1  14
ATOM      7  C   UNL     1      -0.894   1.417   0.045  0.00  0.00    +0.172 C 
ATOM      8  N   UNL     1      -0.783  -0.044   0.035  0.00  0.00    -0.273 N 
ATOM      9  C   UNL     1      -0.873  -0.838  -1.053  0.00  0.00    +0.110 A 
ATOM     10  C   UNL     1      -0.718  -2.119  -0.646  0.00  0.00    +0.065 A 
ATOM     11  C   UNL     1      -0.526  -2.108   0.745  0.00  0.00    +0.147 A 
ATOM     12  N   UNL     1      -0.560  -0.861   1.151  0.00  0.00    -0.156 NA
ATOM     13  N   UNL     1      -0.327  -3.232   1.556  0.00  0.00    -0.265 N 
ATOM     14  C   UNL     1      -0.309  -4.464   1.009  0.00  0.00    +0.249 C 
ATOM     15  O   UNL     1      -0.465  -4.599  -0.189  0.00  0.00    -0.270 OA
ATOM     16  H   UNL     1      -0.203  -3.125   2.512  0.00  0.00    +0.157 HD
ENDBRANCH   1  14
BRANCH   5  17
ATOM     17  N   UNL     1       0.148  -9.315   1.550  0.00  0.00    -0.281 N 
ATOM     18  C   UNL     1       0.643  -9.497   0.310  0.00  0.00    +0.248 C 
ATOM     19  O   UNL     1       1.155  -8.567  -0.283  0.00  0.00    -0.270 OA
ATOM     20  H   UNL     1      -0.191 -10.071   2.053  0.00  0.00    +0.155 HD
BRANCH  18  21
ATOM     21  C   UNL     1       0.564 -10.826  -0.329  0.00  0.00    +0.039 A 
ATOM     22  C   UNL     1      -0.031 -11.895   0.355  0.00  0.00    +0.015 A 
ATOM     23  C   UNL     1      -0.110 -13.128  -0.224  0.00  0.00    +0.028 A 
ATOM     24  C   UNL     1       0.402 -13.334  -1.501  0.00  0.00    +0.066 A 
ATOM     25  C   UNL     1       1.002 -12.272  -2.201  0.00  0.00    +0.089 A 
ATOM     26  C   UNL     1       1.076 -11.012  -1.609  0.00  0.00    +0.043 A 
ATOM     27  N   UNL     1       1.402 -12.766  -3.402  0.00  0.00    -0.236 NA
ATOM     28  C   UNL     1       1.094 -14.027  -3.479  0.00  0.00    +0.197 A 
ATOM     29  N   UNL     1       0.475 -14.428  -2.335  0.00  0.00    -0.344 N 
ATOM     30  H   UNL     1       0.148 -15.321  -2.142  0.00  0.00    +0.167 HD
ENDBRANCH  18  21
ENDBRANCH   5  17
TORSDOF 3
