REMARK  Name = ZINC20982480
REMARK  10 active torsions:
REMARK  status: ('A' for Active; 'I' for Inactive)
REMARK    1  A    between atoms: C_1  and  C_2
REMARK    2  A    between atoms: C_2  and  C_4
REMARK    3  A    between atoms: C_2  and  O_16
REMARK    4  A    between atoms: O_16  and  C_17
REMARK    5  A    between atoms: C_17  and  C_19
REMARK    6  A    between atoms: C_21  and  S_30
REMARK    7  A    between atoms: C_24  and  N_25
REMARK    8  A    between atoms: S_30  and  N_33
REMARK    9  A    between atoms: N_33  and  C_34
REMARK   10  A    between atoms: N_33  and  C_35
REMARK                            x       y       z     vdW  Elec       q    Type
REMARK                         _______ _______ _______ _____ _____    ______ ____
ROOT
ATOM      1  C   UNL     1      -2.385   3.198  -0.203  0.00  0.00    +0.342 C 
ATOM      2  O   UNL     1      -3.424   2.596  -0.390  0.00  0.00    -0.245 OA
ENDROOT
BRANCH   1   3
ATOM      3  C   UNL     1      -1.130   2.455   0.004  0.00  0.00    +0.082 A 
ATOM      4  C   UNL     1       0.084   3.140   0.111  0.00  0.00    +0.045 A 
ATOM      5  C   UNL     1       1.253   2.439   0.304  0.00  0.00    +0.106 A 
ATOM      6  C   UNL     1       1.234   1.056   0.395  0.00  0.00    +0.030 A 
ATOM      7  C   UNL     1       0.045   0.365   0.291  0.00  0.00    +0.026 A 
ATOM      8  C   UNL     1      -1.145   1.054   0.090  0.00  0.00    +0.044 A 
BRANCH   8   9
ATOM      9  N   UNL     1      -2.343   0.360  -0.019  0.00  0.00    -0.329 N 
ATOM     10  C   UNL     1      -2.247  -0.710  -1.045  0.00  0.00    +0.105 C 
ATOM     11  C   UNL     1      -3.405  -1.667  -0.668  0.00  0.00    +0.020 C 
ATOM     12  C   UNL     1      -3.388  -1.639   0.877  0.00  0.00    +0.020 C 
ATOM     13  C   UNL     1      -2.677  -0.325   1.248  0.00  0.00    +0.105 C 
ENDBRANCH   8   9
BRANCH   5  14
ATOM     14  S   UNL     1       2.782   3.305   0.438  0.00  0.00    +0.060 S 
ATOM     15  O   UNL     1       2.466   4.622   0.867  0.00  0.00    -0.153 OA
ATOM     16  O   UNL     1       3.665   2.460   1.163  0.00  0.00    -0.153 OA
BRANCH  14  17
ATOM     17  N   UNL     1       3.404   3.441  -1.090  0.00  0.00    -0.183 NA
ATOM     18  C   UNL     1       3.068   4.602  -1.917  0.00  0.00    +0.131 C 
ATOM     19  C   UNL     1       4.290   2.399  -1.616  0.00  0.00    +0.131 C 
ENDBRANCH  14  17
ENDBRANCH   5  14
ENDBRANCH   1   3
BRANCH   1  20
ATOM     20  O   UNL     1      -2.381   4.546  -0.186  0.00  0.00    -0.449 OA
BRANCH  20  22
ATOM     21  C   UNL     1      -3.855   5.463  -1.893  0.00  0.00    +0.062 C 
ATOM     22  C   UNL     1      -3.654   5.212  -0.397  0.00  0.00    +0.259 C 
BRANCH  22  23
ATOM     23  C   UNL     1      -3.660   6.527   0.339  0.00  0.00    +0.260 C 
ATOM     24  O   UNL     1      -2.616   7.022   0.707  0.00  0.00    -0.271 OA
ATOM     25  N   UNL     1      -4.827   7.153   0.589  0.00  0.00    -0.268 N 
ATOM     26  C   UNL     1      -6.086   6.637   0.033  0.00  0.00    +0.114 C 
ATOM     27  C   UNL     1      -6.878   7.823  -0.523  0.00  0.00    +0.024 C 
ATOM     28  C   UNL     1      -7.225   8.771   0.624  0.00  0.00    +0.038 C 
ATOM     29  C   UNL     1      -5.991   9.112   1.417  0.00  0.00    -0.026 A 
ATOM     30  C   UNL     1      -4.860   8.311   1.378  0.00  0.00    +0.040 A 
ATOM     31  C   UNL     1      -3.740   8.652   2.127  0.00  0.00    +0.024 A 
ATOM     32  C   UNL     1      -3.751   9.790   2.909  0.00  0.00    +0.002 A 
ATOM     33  C   UNL     1      -4.878  10.590   2.945  0.00  0.00    +0.000 A 
ATOM     34  C   UNL     1      -5.993  10.253   2.203  0.00  0.00    +0.005 A 
ENDBRANCH  22  23
ENDBRANCH  20  22
ENDBRANCH   1  20
TORSDOF 7
