REMARK  Name = ZINC10190430
REMARK  6 active torsions:
REMARK  status: ('A' for Active; 'I' for Inactive)
REMARK    1  A    between atoms: C_1  and  C_2
REMARK    2  A    between atoms: N_13  and  C_30
REMARK    3  A    between atoms: C_14  and  S_16
REMARK    4  A    between atoms: S_16  and  C_17
REMARK    5  A    between atoms: C_17  and  C_18
REMARK    6  A    between atoms: C_30  and  C_31
REMARK                            x       y       z     vdW  Elec       q    Type
REMARK                         _______ _______ _______ _____ _____    ______ ____
ROOT
ATOM      1  C   UNL     1      -0.276 -14.755   0.033  0.00  0.00    +0.008 C 
ATOM      2  C   UNL     1       0.230 -13.340   0.323  0.00  0.00    -0.009 C 
ATOM      3  C   UNL     1       1.474 -13.056  -0.525  0.00  0.00    +0.008 C 
ATOM      4  C   UNL     1       2.128 -11.752  -0.068  0.00  0.00    +0.037 C 
ATOM      5  C   UNL     1       1.072 -10.649  -0.054  0.00  0.00    -0.023 A 
ATOM      6  C   UNL     1      -0.241 -10.953  -0.043  0.00  0.00    -0.004 A 
ATOM      7  S   UNL     1      -1.076  -9.390  -0.031  0.00  0.00    -0.073 S 
ATOM      8  C   UNL     1       0.347  -8.328  -0.040  0.00  0.00    +0.117 A 
ATOM      9  C   UNL     1       1.425  -9.228  -0.053  0.00  0.00    +0.076 A 
ATOM     10  C   UNL     1       2.729  -8.639  -0.064  0.00  0.00    +0.263 A 
ATOM     11  O   UNL     1       3.725  -9.341  -0.076  0.00  0.00    -0.267 OA
ATOM     12  N   UNL     1       2.840  -7.297  -0.060  0.00  0.00    -0.285 N 
ATOM     13  C   UNL     1       1.736  -6.495  -0.046  0.00  0.00    +0.173 A 
ATOM     14  N   UNL     1       0.524  -7.012  -0.031  0.00  0.00    -0.216 NA
ATOM     15  C   UNL     1      -0.857 -12.319  -0.041  0.00  0.00    +0.046 C 
ENDROOT
BRANCH  13  16
ATOM     16  S   UNL     1       1.934  -4.744  -0.040  0.00  0.00    -0.080 S 
BRANCH  16  17
ATOM     17  C   UNL     1       0.198  -4.232  -0.021  0.00  0.00    +0.151 C 
BRANCH  17  18
ATOM     18  C   UNL     1       0.119  -2.727  -0.013  0.00  0.00    +0.121 A 
ATOM     19  N   UNL     1      -1.110  -2.147   0.002  0.00  0.00    -0.310 N 
ATOM     20  H   UNL     1      -1.904  -2.703   0.007  0.00  0.00    +0.170 HD
ATOM     21  C   UNL     1      -1.235  -0.799   0.010  0.00  0.00    +0.259 A 
ATOM     22  O   UNL     1      -2.329  -0.266   0.024  0.00  0.00    -0.267 OA
ATOM     23  C   UNL     1       0.002  -0.004   0.002  0.00  0.00    +0.065 A 
ATOM     24  C   UNL     1      -0.017   1.389   0.010  0.00  0.00    +0.015 A 
ATOM     25  C   UNL     1       1.173   2.084   0.002  0.00  0.00    +0.001 A 
ATOM     26  C   UNL     1       2.386   1.408  -0.013  0.00  0.00    +0.002 A 
ATOM     27  C   UNL     1       2.426   0.032  -0.021  0.00  0.00    +0.028 A 
ATOM     28  C   UNL     1       1.234  -0.695  -0.013  0.00  0.00    +0.078 A 
ATOM     29  N   UNL     1       1.227  -2.051  -0.020  0.00  0.00    -0.233 NA
ENDBRANCH  17  18
ENDBRANCH  16  17
ENDBRANCH  13  16
BRANCH  12  30
ATOM     30  C   UNL     1       4.172  -6.687  -0.071  0.00  0.00    +0.159 C 
BRANCH  30  31
ATOM     31  C   UNL     1       4.650  -6.480   1.368  0.00  0.00    +0.138 C 
ATOM     32  C   UNL     1       6.027  -5.770   1.380  0.00  0.00    +0.035 C 
ATOM     33  C   UNL     1       6.003  -5.105   2.783  0.00  0.00    +0.031 C 
ATOM     34  C   UNL     1       4.510  -4.752   2.954  0.00  0.00    +0.160 C 
ATOM     35  O   UNL     1       3.763  -5.591   2.065  0.00  0.00    -0.375 OA
ENDBRANCH  30  31
ENDBRANCH  12  30
TORSDOF 5
