REMARK  Name = ZINC15066469
REMARK  2 active torsions:
REMARK  status: ('A' for Active; 'I' for Inactive)
REMARK    1  A    between atoms: C_6  and  C_7
REMARK    2  A    between atoms: C_16  and  N_45
REMARK                            x       y       z     vdW  Elec       q    Type
REMARK                         _______ _______ _______ _____ _____    ______ ____
ROOT
ATOM      1  C   UNL     1       0.429   2.055   6.115  0.00  0.00    +0.094 A 
ATOM      2  C   UNL     1       0.407   1.508   4.827  0.00  0.00    -0.016 A 
ATOM      3  C   UNL     1       1.338   0.521   4.776  0.00  0.00    +0.036 A 
ATOM      4  N   UNL     1       1.930   0.445   5.978  0.00  0.00    -0.281 N 
ATOM      5  H   UNL     1       2.658  -0.191   6.235  0.00  0.00    +0.189 HD
ATOM      6  N   UNL     1       1.349   1.414   6.810  0.00  0.00    -0.173 NA
ATOM      7  C   UNL     1       1.597  -0.306   3.541  0.00  0.00    +0.036 C 
ATOM      8  C   UNL     1       0.412  -0.108   2.585  0.00  0.00    -0.072 C 
ATOM      9  C   UNL     1      -0.462   1.892   3.656  0.00  0.00    -0.039 C 
ATOM     10  N   UNL     1       0.161   1.342   2.427  0.00  0.00    +0.385 N 
ATOM     11  H   UNL     1       1.056   1.819   2.266  0.00  0.00    -0.081 HD
ENDROOT
BRANCH   1  17
ATOM     12  C   UNL     1      -0.788   4.202   5.757  0.00  0.00    +0.014 A 
ATOM     13  C   UNL     1      -1.590   5.226   6.217  0.00  0.00    +0.050 A 
ATOM     14  C   UNL     1      -2.031   5.230   7.531  0.00  0.00    +0.166 A 
ATOM     15  C   UNL     1      -1.670   4.194   8.391  0.00  0.00    +0.167 A 
ATOM     16  C   UNL     1      -0.871   3.162   7.932  0.00  0.00    +0.059 A 
ATOM     17  C   UNL     1      -0.429   3.161   6.611  0.00  0.00    +0.006 A 
ATOM     18  O   UNL     1      -2.228   4.429   9.615  0.00  0.00    -0.453 OA
ATOM     19  C   UNL     1      -3.265   5.400   9.385  0.00  0.00    +0.466 C 
ATOM     20  O   UNL     1      -2.814   6.113   8.218  0.00  0.00    -0.453 OA
ENDBRANCH   1  17
BRANCH  10  21
ATOM     21  C   UNL     1      -0.723   1.576   1.266  0.00  0.00    -0.067 C 
ATOM     22  C   UNL     1      -0.013   1.086   0.008  0.00  0.00    -0.005 C 
ATOM     23  C   UNL     1      -0.750   1.591  -1.236  0.00  0.00    +0.067 C 
ATOM     24  S   UNL     1      -2.429   0.894  -1.242  0.00  0.00    -0.161 S 
ATOM     25  C   UNL     1      -3.059   1.326   0.408  0.00  0.00    +0.067 C 
ATOM     26  C   UNL     1      -2.050   0.851   1.458  0.00  0.00    -0.005 C 
ENDBRANCH  10  21
TORSDOF 2
