REMARK  Name = ZINC00889994
REMARK  6 active torsions:
REMARK  status: ('A' for Active; 'I' for Inactive)
REMARK    1  A    between atoms: C_1  and  C_2
REMARK    2  A    between atoms: C_4  and  C_32
REMARK    3  A    between atoms: C_9  and  C_14
REMARK    4  A    between atoms: C_14  and  C_16
REMARK    5  A    between atoms: C_14  and  N_61
REMARK    6  A    between atoms: N_20  and  C_21
REMARK                            x       y       z     vdW  Elec       q    Type
REMARK                         _______ _______ _______ _____ _____    ______ ____
ROOT
ATOM      1  C   UNL     1      -2.518   4.282   0.047  0.00  0.00    +0.039 C 
ENDROOT
BRANCH   1  10
ATOM      2  C   UNL     1       0.697  -2.422  -0.527  0.00  0.00    +0.044 C 
ATOM      3  C   UNL     1       0.795  -0.921  -0.432  0.00  0.00    -0.050 A 
ATOM      4  C   UNL     1       2.042  -0.311  -0.443  0.00  0.00    +0.008 A 
ATOM      5  C   UNL     1       2.156   1.060  -0.358  0.00  0.00    -0.026 A 
ATOM      6  C   UNL     1       1.010   1.842  -0.259  0.00  0.00    +0.052 A 
ATOM      7  C   UNL     1      -0.253   1.220  -0.247  0.00  0.00    -0.001 A 
ATOM      8  C   UNL     1      -0.344  -0.173  -0.335  0.00  0.00    +0.013 A 
ATOM      9  C   UNL     1      -1.453   2.051  -0.136  0.00  0.00    +0.017 A 
ATOM     10  C   UNL     1      -1.304   3.397  -0.061  0.00  0.00    +0.011 A 
ATOM     11  C   UNL     1      -0.014   3.971  -0.076  0.00  0.00    +0.251 A 
ATOM     12  O   UNL     1       0.098   5.183  -0.001  0.00  0.00    -0.268 OA
ATOM     13  N   UNL     1       1.093   3.215  -0.172  0.00  0.00    -0.322 N 
ATOM     14  H   UNL     1       1.991   3.656  -0.180  0.00  0.00    +0.169 HD
ATOM     15  C   UNL     1       3.516   1.708  -0.371  0.00  0.00    +0.046 C 
ENDBRANCH   1  10
BRANCH   1  21
ATOM     16  C   UNL     1      -3.615   6.225  -0.896  0.00  0.00    -0.049 C 
ATOM     17  C   UNL     1      -3.501   7.303  -1.977  0.00  0.00    +0.141 C 
ATOM     18  O   UNL     1      -3.436   6.679  -3.261  0.00  0.00    -0.383 OA
ATOM     19  C   UNL     1      -2.338   5.774  -3.407  0.00  0.00    +0.141 C 
ATOM     20  C   UNL     1      -2.441   4.680  -2.341  0.00  0.00    -0.049 C 
ATOM     21  N   UNL     1      -2.454   5.317  -1.007  0.00  0.00    +0.392 N 
ATOM     22  H   UNL     1      -1.592   5.862  -0.888  0.00  0.00    -0.080 HD
ENDBRANCH   1  21
BRANCH   1  23
ATOM     23  C   UNL     1      -2.531   4.956   1.395  0.00  0.00    +0.143 A 
ATOM     24  N   UNL     1      -1.774   5.956   1.778  0.00  0.00    -0.115 NA
ATOM     25  N   UNL     1      -2.084   6.247   2.994  0.00  0.00    -0.023 NA
ATOM     26  N   UNL     1      -3.019   5.458   3.397  0.00  0.00    -0.044 NA
ATOM     27  N   UNL     1      -3.325   4.652   2.438  0.00  0.00    -0.227 N 
BRANCH  27  28
ATOM     28  C   UNL     1      -4.344   3.600   2.478  0.00  0.00    +0.111 C 
ATOM     29  C   UNL     1      -5.712   4.225   2.759  0.00  0.00    +0.027 C 
ATOM     30  C   UNL     1      -6.776   3.126   2.801  0.00  0.00    +0.002 C 
ATOM     31  C   UNL     1      -6.435   2.128   3.909  0.00  0.00    +0.000 C 
ATOM     32  C   UNL     1      -5.067   1.503   3.629  0.00  0.00    +0.002 C 
ATOM     33  C   UNL     1      -4.003   2.601   3.587  0.00  0.00    +0.027 C 
ENDBRANCH  27  28
ENDBRANCH   1  23
TORSDOF 4
