REMARK  Name = ZINC33088157
REMARK  4 active torsions:
REMARK  status: ('A' for Active; 'I' for Inactive)
REMARK    1  A    between atoms: C_1  and  C_2
REMARK    2  A    between atoms: C_13  and  C_16
REMARK    3  A    between atoms: C_21  and  C_23
REMARK    4  A    between atoms: C_26  and  C_29
REMARK                            x       y       z     vdW  Elec       q    Type
REMARK                         _______ _______ _______ _____ _____    ______ ____
ROOT
ATOM      1  C   UNL     1       2.445   6.801   0.712  0.00  0.00    +0.068 C 
ATOM      2  C   UNL     1       1.667   5.567   0.332  0.00  0.00    +0.066 A 
ATOM      3  C   UNL     1       0.402   5.548  -0.239  0.00  0.00    +0.023 A 
ATOM      4  C   UNL     1       0.047   4.240  -0.436  0.00  0.00    +0.134 A 
ATOM      5  N   UNL     1       1.062   3.471   0.011  0.00  0.00    -0.198 N 
ATOM      6  N   UNL     1       2.066   4.327   0.490  0.00  0.00    -0.168 NA
ATOM      7  C   UNL     1       1.104   2.073   0.003  0.00  0.00    +0.176 A 
ATOM      8  C   UNL     1       2.348   1.416  -0.013  0.00  0.00    +0.054 A 
ATOM      9  C   UNL     1       2.402   0.057  -0.021  0.00  0.00    +0.054 A 
ATOM     10  C   UNL     1       1.200  -0.676  -0.013  0.00  0.00    +0.178 A 
ATOM     11  N   UNL     1       0.915  -1.968  -0.017  0.00  0.00    -0.128 NA
ATOM     12  N   UNL     1      -0.363  -2.121  -0.005  0.00  0.00    -0.132 NA
ATOM     13  C   UNL     1      -0.958  -0.954   0.006  0.00  0.00    +0.152 A 
ATOM     14  N   UNL     1       0.002  -0.004   0.002  0.00  0.00    -0.195 N 
ATOM     15  N   UNL     1      -0.017   1.392   0.010  0.00  0.00    -0.144 NA
ATOM     16  C   UNL     1      -2.446  -0.714   0.022  0.00  0.00    +0.090 C 
ATOM     17  N   UNL     1      -1.181   3.887  -0.994  0.00  0.00    -0.270 N 
ATOM     18  C   UNL     1      -1.927   4.862  -1.556  0.00  0.00    +0.219 C 
ATOM     19  O   UNL     1      -3.065   4.613  -1.891  0.00  0.00    -0.275 OA
ATOM     20  C   UNL     1      -1.389   6.247  -1.780  0.00  0.00    +0.109 C 
ATOM     21  C   UNL     1      -0.503   6.694  -0.613  0.00  0.00    +0.063 C 
ATOM     22  H   UNL     1      -1.517   2.840  -0.967  0.00  0.00    +0.156 HD
ENDROOT
BRANCH  21  23
ATOM     23  C   UNL     1       0.326   7.882  -1.029  0.00  0.00    -0.039 A 
ATOM     24  C   UNL     1       1.193   7.778  -2.100  0.00  0.00    +0.005 A 
ATOM     25  C   UNL     1       1.951   8.868  -2.485  0.00  0.00    +0.012 A 
ATOM     26  C   UNL     1       1.847  10.060  -1.793  0.00  0.00    +0.055 A 
ATOM     27  C   UNL     1       0.983  10.163  -0.719  0.00  0.00    +0.012 A 
ATOM     28  C   UNL     1       0.223   9.074  -0.337  0.00  0.00    +0.005 A 
BRANCH  26  29
ATOM     29  C   UNL     1       2.675  11.248  -2.210  0.00  0.00    +0.417 C 
ATOM     30  F   UNL     1       3.896  11.229  -1.527  0.00  0.00    -0.166 F 
ATOM     31  F   UNL     1       2.911  11.192  -3.588  0.00  0.00    -0.166 F 
ATOM     32  F   UNL     1       1.988  12.427  -1.903  0.00  0.00    -0.166 F 
ENDBRANCH  26  29
ENDBRANCH  21  23
TORSDOF 2
