REMARK  Name = ZINC48187277
REMARK  8 active torsions:
REMARK  status: ('A' for Active; 'I' for Inactive)
REMARK    1  A    between atoms: C_1  and  C_2
REMARK    2  A    between atoms: C_3  and  C_7
REMARK    3  A    between atoms: C_10  and  S_13
REMARK    4  A    between atoms: N_11  and  N_12
REMARK    5  A    between atoms: S_13  and  C_14
REMARK    6  A    between atoms: C_14  and  C_16
REMARK    7  A    between atoms: C_14  and  C_17
REMARK    8  A    between atoms: C_20  and  C_22
REMARK                            x       y       z     vdW  Elec       q    Type
REMARK                         _______ _______ _______ _____ _____    ______ ____
ROOT
ATOM      1  C   UNL     1      -2.510  -0.400   0.013  0.00  0.00    +0.185 A 
ATOM      2  N   UNL     1      -2.963   0.832   0.017  0.00  0.00    -0.127 NA
ATOM      3  N   UNL     1      -4.248   0.828   0.025  0.00  0.00    -0.121 NA
ATOM      4  C   UNL     1      -4.695  -0.406   0.027  0.00  0.00    +0.209 A 
ATOM      5  N   UNL     1      -3.605  -1.232   0.013  0.00  0.00    -0.224 N 
ENDROOT
BRANCH   1   8
ATOM      6  C   UNL     1      -0.018   1.503   0.010  0.00  0.00    +0.087 C 
ATOM      7  C   UNL     1       0.002  -0.004   0.002  0.00  0.00    +0.112 A 
ATOM      8  C   UNL     1      -1.091  -0.815   0.003  0.00  0.00    +0.061 A 
ATOM      9  C   UNL     1      -0.568  -2.187  -0.008  0.00  0.00    +0.053 A 
ATOM     10  C   UNL     1       0.770  -2.074  -0.014  0.00  0.00    +0.196 A 
ATOM     11  O   UNL     1       1.100  -0.773  -0.013  0.00  0.00    -0.467 OA
ENDBRANCH   1   8
BRANCH   5  12
ATOM     12  N   UNL     1      -3.604  -2.598   0.004  0.00  0.00    -0.295 N 
ATOM     13  H   UNL     1      -3.598  -2.966   0.944  0.00  0.00    +0.163 HD
ATOM     14  H   UNL     1      -4.388  -2.957  -0.520  0.00  0.00    +0.163 HD
ENDBRANCH   5  12
BRANCH   4  15
ATOM     15  S   UNL     1      -6.385  -0.906   0.039  0.00  0.00    -0.072 S 
BRANCH  15  16
ATOM     16  C   UNL     1      -7.305   0.657   0.047  0.00  0.00    +0.139 C 
ATOM     17  C   UNL     1      -7.047   1.407  -1.262  0.00  0.00    +0.029 C 
BRANCH  16  18
ATOM     18  C   UNL     1      -8.778   0.372   0.181  0.00  0.00    +0.230 A 
ATOM     19  N   UNL     1      -9.450  -0.538  -0.466  0.00  0.00    -0.111 NA
ATOM     20  N   UNL     1     -10.683  -0.499  -0.101  0.00  0.00    -0.113 NA
ATOM     21  C   UNL     1     -10.840   0.437   0.791  0.00  0.00    +0.214 A 
ATOM     22  O   UNL     1      -9.640   1.006   0.994  0.00  0.00    -0.424 OA
ATOM     23  C   UNL     1     -12.131   0.810   1.474  0.00  0.00    +0.111 C 
ENDBRANCH  16  18
ENDBRANCH  15  16
ENDBRANCH   4  15
TORSDOF 5
