REMARK  Name = ZINC24090498
REMARK  11 active torsions:
REMARK  status: ('A' for Active; 'I' for Inactive)
REMARK    1  A    between atoms: C_1  and  C_2
REMARK    2  A    between atoms: C_2  and  C_4
REMARK    3  A    between atoms: C_2  and  N_33
REMARK    4  A    between atoms: C_7  and  S_16
REMARK    5  A    between atoms: N_8  and  C_9
REMARK    6  A    between atoms: S_16  and  C_17
REMARK    7  A    between atoms: C_17  and  C_18
REMARK    8  A    between atoms: N_20  and  C_21
REMARK    9  A    between atoms: N_20  and  C_22
REMARK   10  A    between atoms: N_33  and  C_34
REMARK   11  A    between atoms: N_33  and  C_35
REMARK                            x       y       z     vdW  Elec       q    Type
REMARK                         _______ _______ _______ _____ _____    ______ ____
ROOT
ATOM      1  C   UNL     1      -1.527   3.466  -0.043  0.00  0.00    +0.125 A 
ATOM      2  N   UNL     1      -2.596   2.928  -0.559  0.00  0.00    -0.135 NA
ATOM      3  N   UNL     1      -2.934   3.554  -1.629  0.00  0.00    -0.122 NA
ATOM      4  C   UNL     1      -2.087   4.529  -1.864  0.00  0.00    +0.197 A 
ATOM      5  N   UNL     1      -1.160   4.504  -0.857  0.00  0.00    -0.275 N 
ENDROOT
BRANCH   5   6
ATOM      6  C   UNL     1      -0.063   5.363  -0.694  0.00  0.00    +0.050 A 
ATOM      7  C   UNL     1      -0.011   6.224   0.394  0.00  0.00    +0.028 A 
ATOM      8  C   UNL     1       1.073   7.064   0.557  0.00  0.00    +0.022 A 
ATOM      9  C   UNL     1       2.100   7.058  -0.370  0.00  0.00    +0.041 A 
ATOM     10  C   UNL     1       2.047   6.205  -1.458  0.00  0.00    +0.022 A 
ATOM     11  C   UNL     1       0.969   5.358  -1.622  0.00  0.00    +0.028 A 
ATOM     12 CL   UNL     1       3.458   8.120  -0.167  0.00  0.00    -0.084 Cl
ENDBRANCH   5   6
BRANCH   1  14
ATOM     13  C   UNL     1      -1.628   3.471   2.435  0.00  0.00    -0.005 C 
ATOM     14  C   UNL     1      -0.822   3.023   1.213  0.00  0.00    -0.003 C 
BRANCH  14  15
ATOM     15  N   UNL     1      -0.700   1.560   1.217  0.00  0.00    +0.382 N 
ATOM     16  C   UNL     1      -0.013   1.086   0.008  0.00  0.00    -0.096 C 
ATOM     17  C   UNL     1      -0.016   1.091   2.429  0.00  0.00    -0.096 C 
ATOM     18  H   UNL     1      -1.715   1.136   1.216  0.00  0.00    -0.082 HD
ENDBRANCH  14  15
ENDBRANCH   1  14
BRANCH   4  19
ATOM     19  S   UNL     1      -2.133   5.655  -3.218  0.00  0.00    -0.076 S 
BRANCH  19  20
ATOM     20  C   UNL     1      -3.608   5.053  -4.077  0.00  0.00    +0.173 C 
BRANCH  20  21
ATOM     21  C   UNL     1      -3.851   5.892  -5.305  0.00  0.00    +0.226 C 
ATOM     22  O   UNL     1      -3.101   6.807  -5.573  0.00  0.00    -0.275 OA
ATOM     23  N   UNL     1      -4.902   5.626  -6.106  0.00  0.00    -0.297 N 
ATOM     24  C   UNL     1      -5.808   4.521  -5.782  0.00  0.00    +0.132 C 
BRANCH  23  25
ATOM     25  C   UNL     1      -5.139   6.441  -7.300  0.00  0.00    +0.106 C 
ATOM     26  C   UNL     1      -6.511   7.103  -7.194  0.00  0.00    +0.027 C 
ATOM     27  C   UNL     1      -6.830   7.771  -8.536  0.00  0.00    +0.007 C 
ATOM     28  C   UNL     1      -7.082   6.677  -9.571  0.00  0.00    +0.035 C 
ATOM     29  C   UNL     1      -5.958   5.675  -9.567  0.00  0.00    -0.042 A 
ATOM     30  C   UNL     1      -5.068   5.564  -8.522  0.00  0.00    -0.024 A 
ATOM     31  C   UNL     1      -4.057   4.614  -8.578  0.00  0.00    +0.006 A 
ATOM     32  C   UNL     1      -3.935   3.783  -9.672  0.00  0.00    +0.000 A 
ATOM     33  C   UNL     1      -4.826   3.897 -10.723  0.00  0.00    +0.000 A 
ATOM     34  C   UNL     1      -5.832   4.839 -10.669  0.00  0.00    +0.004 A 
ENDBRANCH  23  25
ENDBRANCH  20  21
ENDBRANCH  19  20
ENDBRANCH   4  19
TORSDOF 7
