REMARK  Name = ZINC11363454
REMARK  8 active torsions:
REMARK  status: ('A' for Active; 'I' for Inactive)
REMARK    1  A    between atoms: C_1  and  C_2
REMARK    2  A    between atoms: C_2  and  C_4
REMARK    3  A    between atoms: C_2  and  S_17
REMARK    4  A    between atoms: N_6  and  C_7
REMARK    5  A    between atoms: C_10  and  N_14
REMARK    6  A    between atoms: S_17  and  C_18
REMARK    7  A    between atoms: N_28  and  C_29
REMARK    8  A    between atoms: C_29  and  C_30
REMARK                            x       y       z     vdW  Elec       q    Type
REMARK                         _______ _______ _______ _____ _____    ______ ____
ROOT
ATOM      1  S   UNL     1      -1.544  -0.861  -0.012  0.00  0.00    -0.075 S 
ENDROOT
BRANCH   1   2
ATOM      2  C   UNL     1      -0.009   0.004  -0.034  0.00  0.00    +0.173 A 
ATOM      3  N   UNL     1       1.101  -0.693  -0.050  0.00  0.00    -0.223 NA
ATOM      4  C   UNL     1       2.309  -0.096  -0.067  0.00  0.00    +0.079 A 
ATOM      5  C   UNL     1       3.494  -0.840  -0.085  0.00  0.00    +0.028 A 
ATOM      6  C   UNL     1       4.697  -0.194  -0.103  0.00  0.00    +0.002 A 
ATOM      7  C   UNL     1       4.764   1.194  -0.104  0.00  0.00    +0.001 A 
ATOM      8  C   UNL     1       3.624   1.948  -0.087  0.00  0.00    +0.015 A 
ATOM      9  C   UNL     1       2.382   1.316  -0.069  0.00  0.00    +0.065 A 
ATOM     10  C   UNL     1       1.124   2.075  -0.051  0.00  0.00    +0.262 A 
ATOM     11  O   UNL     1       1.121   3.292  -0.050  0.00  0.00    -0.267 OA
ATOM     12  N   UNL     1      -0.031   1.370  -0.034  0.00  0.00    -0.285 N 
BRANCH  12  13
ATOM     13  C   UNL     1      -1.315   2.076  -0.021  0.00  0.00    +0.159 C 
BRANCH  13  14
ATOM     14  C   UNL     1      -1.747   2.322   1.425  0.00  0.00    +0.138 C 
ATOM     15  C   UNL     1      -3.137   3.006   1.462  0.00  0.00    +0.035 C 
ATOM     16  C   UNL     1      -3.640   2.577   2.867  0.00  0.00    +0.031 C 
ATOM     17  C   UNL     1      -3.033   1.165   3.016  0.00  0.00    +0.160 C 
ATOM     18  O   UNL     1      -1.925   1.073   2.112  0.00  0.00    -0.375 OA
ENDBRANCH  13  14
ENDBRANCH  12  13
ENDBRANCH   1   2
BRANCH   1  20
ATOM     19  C   UNL     1      -0.180  -2.846   1.277  0.00  0.00    +0.029 C 
ATOM     20  C   UNL     1      -0.942  -2.568  -0.020  0.00  0.00    +0.137 C 
BRANCH  20  21
ATOM     21  C   UNL     1      -2.112  -3.512  -0.127  0.00  0.00    +0.230 C 
ATOM     22  O   UNL     1      -3.226  -3.134   0.168  0.00  0.00    -0.274 OA
ATOM     23  N   UNL     1      -1.921  -4.777  -0.551  0.00  0.00    -0.283 N 
ATOM     24  H   UNL     1      -1.042  -5.061  -0.849  0.00  0.00    +0.155 HD
BRANCH  23  25
ATOM     25  C   UNL     1      -2.989  -5.681  -0.562  0.00  0.00    +0.052 A 
ATOM     26  C   UNL     1      -4.273  -5.238  -0.851  0.00  0.00    +0.027 A 
ATOM     27  C   UNL     1      -5.325  -6.132  -0.860  0.00  0.00    +0.034 A 
ATOM     28  C   UNL     1      -5.102  -7.468  -0.582  0.00  0.00    +0.128 A 
ATOM     29  C   UNL     1      -3.825  -7.914  -0.295  0.00  0.00    +0.054 A 
ATOM     30  C   UNL     1      -2.767  -7.025  -0.288  0.00  0.00    +0.064 A 
ATOM     31 CL   UNL     1      -1.163  -7.586   0.067  0.00  0.00    -0.082 Cl
BRANCH  28  32
ATOM     32  N   UNL     1      -6.233  -8.424  -0.594  0.00  0.00    +0.056 N 
ATOM     33  O   UNL     1      -7.358  -8.033  -0.848  0.00  0.00    -0.126 OA
ATOM     34  O   UNL     1      -6.038  -9.601  -0.349  0.00  0.00    -0.126 OA
ENDBRANCH  28  32
ENDBRANCH  23  25
ENDBRANCH  20  21
ENDBRANCH   1  20
TORSDOF 7
