REMARK  Name = ZINC12390252
REMARK  7 active torsions:
REMARK  status: ('A' for Active; 'I' for Inactive)
REMARK    1  A    between atoms: C_1  and  C_2
REMARK    2  A    between atoms: C_2  and  O_3
REMARK    3  A    between atoms: O_3  and  C_4
REMARK    4  A    between atoms: C_7  and  O_10
REMARK    5  A    between atoms: O_10  and  C_11
REMARK    6  A    between atoms: C_11  and  C_12
REMARK    7  A    between atoms: N_33  and  C_34
REMARK                            x       y       z     vdW  Elec       q    Type
REMARK                         _______ _______ _______ _____ _____    ______ ____
ROOT
ATOM      1  C   UNL     1      -4.980  12.074  -1.408  0.00  0.00    +0.253 C 
ATOM      2  O   UNL     1      -5.194  12.362  -2.566  0.00  0.00    -0.272 OA
ATOM      3  N   UNL     1      -3.895  11.344  -1.084  0.00  0.00    -0.296 N 
ATOM      4  C   UNL     1      -2.957  10.886  -2.121  0.00  0.00    +0.127 C 
ATOM      5  C   UNL     1      -2.741   9.378  -1.951  0.00  0.00    +0.127 C 
ATOM      6  N   UNL     1      -2.326   9.099  -0.570  0.00  0.00    -0.298 N 
ATOM      7  C   UNL     1      -3.376   9.471   0.388  0.00  0.00    +0.127 C 
ATOM      8  C   UNL     1      -3.617  10.983   0.314  0.00  0.00    +0.127 C 
ATOM      9  C   UNL     1      -1.969   7.782  -0.421  0.00  0.00    +0.202 A 
ATOM     10  N   UNL     1      -2.872   6.846  -0.677  0.00  0.00    -0.208 NA
ATOM     11  C   UNL     1      -2.497   5.581  -0.524  0.00  0.00    +0.117 A 
ATOM     12  C   UNL     1      -1.206   5.185  -0.109  0.00  0.00    +0.076 A 
ATOM     13  C   UNL     1      -0.980   3.753   0.002  0.00  0.00    -0.023 A 
ATOM     14  C   UNL     1      -2.024   2.949  -0.302  0.00  0.00    -0.004 A 
ATOM     15  S   UNL     1      -3.345   4.049  -0.746  0.00  0.00    -0.073 S 
ATOM     16  C   UNL     1      -2.056   1.452  -0.270  0.00  0.00    +0.043 C 
ATOM     17  C   UNL     1      -0.612   0.937  -0.197  0.00  0.00    +0.005 C 
ATOM     18  C   UNL     1       0.136   1.715   0.889  0.00  0.00    +0.005 C 
ATOM     19  C   UNL     1       0.357   3.158   0.436  0.00  0.00    +0.037 C 
ATOM     20  C   UNL     1      -0.257   6.225   0.159  0.00  0.00    +0.264 A 
ATOM     21  O   UNL     1       0.882   5.985   0.522  0.00  0.00    -0.267 OA
ATOM     22  N   UNL     1      -0.703   7.491  -0.016  0.00  0.00    -0.283 N 
ATOM     23  C   UNL     1       0.220   8.600   0.242  0.00  0.00    +0.155 C 
ENDROOT
BRANCH   1  24
ATOM     24  C   UNL     1      -5.928  12.533  -0.330  0.00  0.00    +0.324 C 
BRANCH  24  25
ATOM     25  O   UNL     1      -6.992  13.284  -0.919  0.00  0.00    -0.483 OA
BRANCH  25  29
ATOM     26  C   UNL     1      -9.873  14.772   1.636  0.00  0.00    +0.121 A 
ATOM     27  C   UNL     1      -9.965  15.010   0.272  0.00  0.00    +0.049 A 
ATOM     28  C   UNL     1      -9.001  14.512  -0.582  0.00  0.00    +0.049 A 
ATOM     29  C   UNL     1      -7.941  13.774  -0.077  0.00  0.00    +0.121 A 
ATOM     30  C   UNL     1      -7.852  13.531   1.286  0.00  0.00    +0.049 A 
ATOM     31  C   UNL     1      -8.814  14.033   2.141  0.00  0.00    +0.049 A 
BRANCH  26  32
ATOM     32  O   UNL     1     -10.822  15.262   2.477  0.00  0.00    -0.492 OA
BRANCH  32  34
ATOM     33  C   UNL     1     -11.820  15.607   4.651  0.00  0.00    +0.048 C 
ATOM     34  C   UNL     1     -10.665  14.978   3.869  0.00  0.00    +0.225 C 
ENDBRANCH  32  34
ENDBRANCH  26  32
ENDBRANCH  25  29
ENDBRANCH  24  25
ENDBRANCH   1  24
TORSDOF 5
