REMARK  Name = ZINC67624227
REMARK  10 active torsions:
REMARK  status: ('A' for Active; 'I' for Inactive)
REMARK    1  A    between atoms: C_1  and  C_2
REMARK    2  A    between atoms: C_2  and  C_3
REMARK    3  A    between atoms: C_2  and  C_4
REMARK    4  A    between atoms: C_2  and  N_5
REMARK    5  A    between atoms: C_6  and  C_8
REMARK    6  A    between atoms: C_8  and  N_9
REMARK    7  A    between atoms: N_9  and  C_10
REMARK    8  A    between atoms: N_13  and  C_14
REMARK    9  A    between atoms: N_19  and  S_21
REMARK   10  A    between atoms: S_21  and  C_24
REMARK                            x       y       z     vdW  Elec       q    Type
REMARK                         _______ _______ _______ _____ _____    ______ ____
ROOT
ATOM      1  N   UNL     1       4.051  -0.111  -2.677  0.00  0.00    -0.280 N 
ATOM      2  C   UNL     1       5.125  -0.892  -2.057  0.00  0.00    +0.134 C 
ATOM      3  C   UNL     1       4.328   1.073  -3.257  0.00  0.00    +0.303 C 
ATOM      4  O   UNL     1       3.437   1.722  -3.772  0.00  0.00    -0.253 OA
ATOM      5  N   UNL     1       5.593   1.540  -3.267  0.00  0.00    -0.295 N 
ATOM      6  H   UNL     1       6.303   1.023  -2.856  0.00  0.00    +0.151 HD
ENDROOT
BRANCH   5   7
ATOM      7  C   UNL     1       5.893   2.828  -3.897  0.00  0.00    +0.090 C 
ATOM      8  C   UNL     1       5.642   3.958  -2.896  0.00  0.00    +0.025 C 
ATOM      9  C   UNL     1       5.924   5.306  -3.564  0.00  0.00    +0.019 C 
ATOM     10  C   UNL     1       7.394   5.359  -3.994  0.00  0.00    +0.109 C 
ATOM     11  N   UNL     1       7.681   4.194  -4.842  0.00  0.00    -0.180 NA
ATOM     12  C   UNL     1       7.362   2.853  -4.332  0.00  0.00    +0.131 C 
BRANCH  11  13
ATOM     13  S   UNL     1       8.351   4.388  -6.344  0.00  0.00    +0.029 S 
ATOM     14  O   UNL     1       7.932   3.246  -7.078  0.00  0.00    -0.158 OA
ATOM     15  O   UNL     1       7.962   5.693  -6.749  0.00  0.00    -0.158 OA
ATOM     16  C   UNL     1      10.143   4.328  -6.066  0.00  0.00    +0.215 C 
ENDBRANCH  11  13
ENDBRANCH   5   7
BRANCH   1  17
ATOM     17  C   UNL     1       2.677  -0.618  -2.667  0.00  0.00    +0.204 C 
BRANCH  17  19
ATOM     18  N   UNL     1       0.688  -0.476  -1.203  0.00  0.00    -0.309 N 
ATOM     19  C   UNL     1       1.972  -0.132  -1.427  0.00  0.00    +0.231 C 
ATOM     20  O   UNL     1       2.559   0.569  -0.630  0.00  0.00    -0.274 OA
ATOM     21  H   UNL     1       0.218  -1.037  -1.840  0.00  0.00    +0.149 HD
BRANCH  18  23
ATOM     22  C   UNL     1      -0.019   1.526   0.010  0.00  0.00    +0.031 C 
ATOM     23  C   UNL     1       0.002  -0.004   0.002  0.00  0.00    +0.026 C 
ATOM     24  C   UNL     1       0.742  -0.511   1.242  0.00  0.00    +0.031 C 
ATOM     25  C   UNL     1      -1.433  -0.534   0.013  0.00  0.00    +0.031 C 
ENDBRANCH  18  23
ENDBRANCH  17  19
ENDBRANCH   1  17
TORSDOF 5
