REMARK  Name = ZINC44167303
REMARK  6 active torsions:
REMARK  status: ('A' for Active; 'I' for Inactive)
REMARK    1  A    between atoms: C_4  and  C_7
REMARK    2  A    between atoms: C_16  and  O_33
REMARK    3  A    between atoms: C_18  and  O_24
REMARK    4  A    between atoms: C_20  and  O_23
REMARK    5  A    between atoms: O_24  and  C_25
REMARK    6  A    between atoms: C_25  and  C_27
REMARK                            x       y       z     vdW  Elec       q    Type
REMARK                         _______ _______ _______ _____ _____    ______ ____
ROOT
ATOM      1  C   UNL     1       3.711  -0.707  -0.038  0.00  0.00    +0.282 C 
ATOM      2  O   UNL     1       4.468  -0.357   1.123  0.00  0.00    -0.345 OA
ATOM      3  C   UNL     1       5.728  -1.030   1.218  0.00  0.00    +0.197 C 
ATOM      4  C   UNL     1       5.480  -2.544   1.219  0.00  0.00    +0.179 C 
ATOM      5  C   UNL     1       4.661  -2.905  -0.024  0.00  0.00    +0.185 C 
ATOM      6  O   UNL     1       3.469  -2.116  -0.043  0.00  0.00    -0.339 OA
ATOM      7  C   UNL     1       4.298  -4.390   0.013  0.00  0.00    +0.191 C 
ATOM      8  C   UNL     1       3.552  -4.695   1.316  0.00  0.00    +0.263 C 
ATOM      9  C   UNL     1       4.429  -4.281   2.501  0.00  0.00    +0.292 C 
ATOM     10  O   UNL     1       4.761  -2.895   2.403  0.00  0.00    -0.340 OA
ENDROOT
BRANCH   1  14
ATOM     11  C   UNL     1      -0.017   1.378   0.010  0.00  0.00    +0.000 A 
ATOM     12  C   UNL     1       1.171   2.086   0.002  0.00  0.00    +0.000 A 
ATOM     13  C   UNL     1       2.377   1.411  -0.013  0.00  0.00    +0.008 A 
ATOM     14  C   UNL     1       2.396   0.029  -0.020  0.00  0.00    +0.008 A 
ATOM     15  C   UNL     1       1.208  -0.679  -0.012  0.00  0.00    +0.008 A 
ATOM     16  C   UNL     1       0.002  -0.004   0.002  0.00  0.00    +0.000 A 
ENDBRANCH   1  14
BRANCH   9  17
ATOM     17  O   UNL     1       3.725  -4.519   3.721  0.00  0.00    -0.364 OA
ATOM     18  H   UNL     1       4.222  -4.279   4.516  0.00  0.00    +0.213 HD
ENDBRANCH   9  17
BRANCH   7  19
ATOM     19  O   UNL     1       3.461  -4.705  -1.101  0.00  0.00    -0.385 OA
ATOM     20  H   UNL     1       3.191  -5.633  -1.141  0.00  0.00    +0.210 HD
ENDBRANCH   7  19
BRANCH   8  21
ATOM     21  O   UNL     1       3.273  -6.095   1.391  0.00  0.00    -0.450 OA
BRANCH  21  22
ATOM     22  C   UNL     1       2.165  -6.462   2.062  0.00  0.00    +0.340 C 
ATOM     23  O   UNL     1       1.455  -5.618   2.571  0.00  0.00    -0.245 OA
BRANCH  22  24
ATOM     24  C   UNL     1       1.813  -7.892   2.181  0.00  0.00    +0.059 A 
ATOM     25  C   UNL     1       2.630  -8.865   1.603  0.00  0.00    +0.015 A 
ATOM     26  C   UNL     1       2.295 -10.199   1.717  0.00  0.00    +0.001 A 
ATOM     27  C   UNL     1       1.153 -10.572   2.403  0.00  0.00    +0.000 A 
ATOM     28  C   UNL     1       0.339  -9.613   2.978  0.00  0.00    +0.001 A 
ATOM     29  C   UNL     1       0.665  -8.277   2.877  0.00  0.00    +0.015 A 
ENDBRANCH  22  24
ENDBRANCH  21  22
ENDBRANCH   8  21
TORSDOF 6
