REMARK  Name = ZINC01717443
REMARK  14 active torsions:
REMARK  status: ('A' for Active; 'I' for Inactive)
REMARK    1  A    between atoms: C_1  and  N_69
REMARK    2  A    between atoms: C_2  and  N_69
REMARK    3  A    between atoms: C_3  and  C_4
REMARK    4  A    between atoms: C_3  and  N_69
REMARK    5  A    between atoms: C_10  and  C_30
REMARK    6  A    between atoms: C_12  and  O_13
REMARK    7  A    between atoms: O_13  and  C_14
REMARK    8  A    between atoms: C_14  and  C_16
REMARK    9  A    between atoms: C_16  and  C_17
REMARK   10  A    between atoms: C_16  and  C_23
REMARK   11  A    between atoms: C_16  and  O_29
REMARK   12  A    between atoms: C_30  and  N_71
REMARK   13  A    between atoms: C_31  and  N_71
REMARK   14  A    between atoms: C_32  and  N_71
REMARK                            x       y       z     vdW  Elec       q    Type
REMARK                         _______ _______ _______ _____ _____    ______ ____
ROOT
ATOM      1  O   UNL     1      -1.966  -0.887  -1.292  0.00  0.00    -0.458 OA
ENDROOT
BRANCH   1   8
ATOM      2  C   UNL     1      -2.188  -1.376  -3.680  0.00  0.00    +0.013 C 
ATOM      3  C   UNL     1      -3.138  -1.774  -4.707  0.00  0.00    +0.005 C 
ATOM      4  C   UNL     1      -3.993  -0.591  -5.208  0.00  0.00    +0.000 C 
ATOM      5  C   UNL     1      -5.096  -0.345  -4.215  0.00  0.00    +0.000 C 
ATOM      6  C   UNL     1      -4.726   0.733  -3.177  0.00  0.00    +0.005 C 
ATOM      7  C   UNL     1      -3.277   0.603  -2.672  0.00  0.00    +0.013 C 
ATOM      8  C   UNL     1      -2.882  -0.827  -2.417  0.00  0.00    +0.179 C 
BRANCH   2   9
ATOM      9  C   UNL     1      -1.341  -2.590  -3.292  0.00  0.00    -0.073 C 
BRANCH   9  12
ATOM     10  C   UNL     1       0.413  -2.048  -4.871  0.00  0.00    -0.097 C 
ATOM     11  C   UNL     1       0.058  -4.347  -4.197  0.00  0.00    -0.097 C 
ATOM     12  N   UNL     1      -0.599  -3.054  -4.483  0.00  0.00    +0.376 N 
ATOM     13  H   UNL     1      -1.259  -3.180  -5.259  0.00  0.00    -0.083 HD
ENDBRANCH   9  12
ENDBRANCH   2   9
BRANCH   7  14
ATOM     14  C   UNL     1      -3.136   1.395  -1.370  0.00  0.00    -0.073 C 
BRANCH  14  17
ATOM     15  C   UNL     1      -3.510   3.570  -0.374  0.00  0.00    -0.097 C 
ATOM     16  C   UNL     1      -2.373   3.393  -2.505  0.00  0.00    -0.097 C 
ATOM     17  N   UNL     1      -3.428   2.818  -1.644  0.00  0.00    +0.376 N 
ATOM     18  H   UNL     1      -4.329   2.885  -2.131  0.00  0.00    -0.083 HD
ENDBRANCH  14  17
ENDBRANCH   7  14
ENDBRANCH   1   8
BRANCH   1  19
ATOM     19  C   UNL     1      -1.989  -2.003  -0.546  0.00  0.00    +0.349 C 
ATOM     20  O   UNL     1      -2.749  -2.900  -0.824  0.00  0.00    -0.247 OA
BRANCH  19  21
ATOM     21  C   UNL     1      -1.067  -2.137   0.638  0.00  0.00    +0.213 C 
BRANCH  21  22
ATOM     22  C   UNL     1      -1.659  -3.106   1.629  0.00  0.00    -0.001 A 
ATOM     23  C   UNL     1      -1.940  -2.693   2.917  0.00  0.00    +0.007 A 
ATOM     24  C   UNL     1      -2.488  -3.580   3.824  0.00  0.00    +0.000 A 
ATOM     25  C   UNL     1      -2.744  -4.885   3.446  0.00  0.00    +0.000 A 
ATOM     26  C   UNL     1      -2.458  -5.300   2.158  0.00  0.00    +0.000 A 
ATOM     27  C   UNL     1      -1.916  -4.411   1.250  0.00  0.00    +0.007 A 
ENDBRANCH  21  22
BRANCH  21  28
ATOM     28  C   UNL     1       0.274  -2.647   0.176  0.00  0.00    -0.001 A 
ATOM     29  C   UNL     1       0.344  -3.741  -0.666  0.00  0.00    +0.007 A 
ATOM     30  C   UNL     1       1.573  -4.205  -1.094  0.00  0.00    +0.000 A 
ATOM     31  C   UNL     1       2.733  -3.582  -0.672  0.00  0.00    +0.000 A 
ATOM     32  C   UNL     1       2.663  -2.491   0.174  0.00  0.00    +0.000 A 
ATOM     33  C   UNL     1       1.433  -2.023   0.598  0.00  0.00    +0.007 A 
ENDBRANCH  21  28
BRANCH  21  34
ATOM     34  O   UNL     1      -0.903  -0.861   1.261  0.00  0.00    -0.370 OA
ATOM     35  H   UNL     1      -1.727  -0.471   1.583  0.00  0.00    +0.212 HD
ENDBRANCH  21  34
ENDBRANCH  19  21
ENDBRANCH   1  19
TORSDOF 10
