REMARK  Name = ZINC09353799
REMARK  12 active torsions:
REMARK  status: ('A' for Active; 'I' for Inactive)
REMARK    1  A    between atoms: C_1  and  C_2
REMARK    2  A    between atoms: C_2  and  N_62
REMARK    3  A    between atoms: C_3  and  C_4
REMARK    4  A    between atoms: C_3  and  N_62
REMARK    5  A    between atoms: C_5  and  C_6
REMARK    6  A    between atoms: C_5  and  N_62
REMARK    7  A    between atoms: C_6  and  N_7
REMARK    8  A    between atoms: C_8  and  C_28
REMARK    9  A    between atoms: C_11  and  C_12
REMARK   10  A    between atoms: C_11  and  O_23
REMARK   11  A    between atoms: C_19  and  C_22
REMARK   12  A    between atoms: C_31  and  C_33
REMARK                            x       y       z     vdW  Elec       q    Type
REMARK                         _______ _______ _______ _____ _____    ______ ____
ROOT
ATOM      1  N   UNL     1       6.192   2.334   0.007  0.00  0.00    -0.282 N 
ATOM      2  C   UNL     1       5.079   3.282  -0.092  0.00  0.00    +0.180 C 
ATOM      3  C   UNL     1       3.831   2.461  -0.322  0.00  0.00    +0.074 C 
ATOM      4  C   UNL     1       2.542   2.935  -0.475  0.00  0.00    +0.133 C 
ATOM      5  C   UNL     1       4.244   1.121  -0.342  0.00  0.00    +0.249 C 
ATOM      6  O   UNL     1       3.522   0.153  -0.500  0.00  0.00    -0.282 OA
ATOM      7  C   UNL     1       5.718   1.085  -0.140  0.00  0.00    +0.288 C 
ATOM      8  O   UNL     1       6.391   0.076  -0.107  0.00  0.00    -0.266 OA
ENDROOT
BRANCH   4   9
ATOM      9  C   UNL     1       1.458   2.012  -0.844  0.00  0.00    +0.017 A 
ATOM     10  C   UNL     1       1.555   1.237  -2.007  0.00  0.00    +0.015 A 
ATOM     11  C   UNL     1       0.543   0.373  -2.348  0.00  0.00    +0.046 A 
ATOM     12  C   UNL     1      -0.593   0.262  -1.543  0.00  0.00    +0.124 A 
ATOM     13  C   UNL     1      -0.686   1.036  -0.389  0.00  0.00    -0.002 A 
ATOM     14  C   UNL     1       0.320   1.900  -0.036  0.00  0.00    +0.019 A 
ATOM     15  C   UNL     1      -2.021   0.713   0.255  0.00  0.00    +0.083 C 
ATOM     16  C   UNL     1      -2.766  -0.003  -0.900  0.00  0.00    +0.175 C 
ATOM     17  O   UNL     1      -1.688  -0.530  -1.692  0.00  0.00    -0.488 OA
ATOM     18  C   UNL     1      -3.606   0.983  -1.716  0.00  0.00    +0.052 C 
ENDBRANCH   4   9
BRANCH   2  19
ATOM     19  C   UNL     1       5.301   4.219  -1.250  0.00  0.00    +0.130 A 
ATOM     20  C   UNL     1       5.007   5.532  -1.268  0.00  0.00    +0.047 A 
ATOM     21  C   UNL     1       5.379   6.018  -2.542  0.00  0.00    +0.045 A 
ATOM     22  C   UNL     1       5.870   4.972  -3.231  0.00  0.00    +0.102 A 
ATOM     23  O   UNL     1       5.820   3.885  -2.443  0.00  0.00    -0.463 OA
ATOM     24  C   UNL     1       6.387   5.012  -4.646  0.00  0.00    +0.086 C 
ENDBRANCH   2  19
BRANCH   4  25
ATOM     25  O   UNL     1       2.278   4.245  -0.286  0.00  0.00    -0.506 OA
ATOM     26  H   UNL     1       1.304   4.414  -0.436  0.00  0.00    +0.292 HD
ENDBRANCH   4  25
BRANCH   1  27
ATOM     27  C   UNL     1       7.596   2.690   0.230  0.00  0.00    +0.091 C 
BRANCH  27  28
ATOM     28  C   UNL     1       7.882   2.724   1.732  0.00  0.00    -0.060 C 
BRANCH  28  29
ATOM     29  N   UNL     1       9.294   3.105   1.941  0.00  0.00    +0.380 N 
ATOM     30  H   UNL     1       9.489   3.964   1.414  0.00  0.00    -0.082 HD
BRANCH  29  32
ATOM     31  C   UNL     1       8.982   4.731   3.738  0.00  0.00    -0.017 C 
ATOM     32  C   UNL     1       9.544   3.355   3.376  0.00  0.00    -0.082 C 
ENDBRANCH  29  32
BRANCH  29  33
ATOM     33  C   UNL     1      10.184   2.030   1.454  0.00  0.00    -0.082 C 
ATOM     34  C   UNL     1      11.604   2.587   1.328  0.00  0.00    -0.017 C 
ENDBRANCH  29  33
ENDBRANCH  28  29
ENDBRANCH  27  28
ENDBRANCH   1  27
TORSDOF 8
