REMARK  Name = ZINC63827926
REMARK  10 active torsions:
REMARK  status: ('A' for Active; 'I' for Inactive)
REMARK    1  A    between atoms: C_1  and  C_2
REMARK    2  A    between atoms: C_2  and  C_33
REMARK    3  A    between atoms: N_5  and  C_9
REMARK    4  A    between atoms: C_9  and  C_10
REMARK    5  A    between atoms: N_12  and  C_13
REMARK    6  A    between atoms: C_13  and  C_14
REMARK    7  A    between atoms: C_14  and  C_16
REMARK    8  A    between atoms: C_14  and  C_24
REMARK    9  A    between atoms: C_19  and  O_22
REMARK   10  A    between atoms: O_22  and  C_23
REMARK                            x       y       z     vdW  Elec       q    Type
REMARK                         _______ _______ _______ _____ _____    ______ ____
ROOT
ATOM      1  C   UNL     1       7.298  -1.149  -3.387  0.00  0.00    +0.064 C 
ENDROOT
BRANCH   1   2
ATOM      2  C   UNL     1       7.875  -2.280  -2.576  0.00  0.00    -0.033 C 
ATOM      3  C   UNL     1       7.881  -3.593  -2.901  0.00  0.00    -0.000 A 
ATOM      4  C   UNL     1       7.370  -4.333  -4.061  0.00  0.00    +0.010 A 
ATOM      5  C   UNL     1       7.527  -5.675  -4.104  0.00  0.00    +0.001 A 
ATOM      6  C   UNL     1       8.163  -6.377  -3.070  0.00  0.00    +0.002 A 
ATOM      7  C   UNL     1       8.658  -5.767  -1.973  0.00  0.00    +0.026 A 
ATOM      8  C   UNL     1       8.549  -4.357  -1.823  0.00  0.00    +0.043 A 
ATOM      9  N   UNL     1       8.941  -3.548  -0.869  0.00  0.00    -0.380 N 
ATOM     10  C   UNL     1       8.571  -2.177  -1.237  0.00  0.00    +0.145 C 
ATOM     11  H   UNL     1       9.402  -3.811  -0.057  0.00  0.00    +0.160 HD
ENDBRANCH   1   2
BRANCH   1  12
ATOM     12  C   UNL     1       8.390  -0.169  -3.730  0.00  0.00    -0.038 A 
ATOM     13  C   UNL     1       9.094   0.462  -2.720  0.00  0.00    +0.008 A 
ATOM     14  C   UNL     1      10.095   1.361  -3.032  0.00  0.00    +0.046 A 
ATOM     15  C   UNL     1      10.395   1.631  -4.359  0.00  0.00    +0.120 A 
ATOM     16  C   UNL     1       9.688   0.997  -5.370  0.00  0.00    +0.046 A 
ATOM     17  C   UNL     1       8.691   0.095  -5.053  0.00  0.00    +0.008 A 
BRANCH  15  18
ATOM     18  O   UNL     1      11.379   2.516  -4.668  0.00  0.00    -0.495 OA
ATOM     19  C   UNL     1      11.633   2.745  -6.056  0.00  0.00    +0.277 C 
ENDBRANCH  15  18
ENDBRANCH   1  12
BRANCH   1  20
ATOM     20  C   UNL     1       6.213  -0.440  -2.574  0.00  0.00    +0.116 C 
BRANCH  20  23
ATOM     21  C   UNL     1       4.020  -0.950  -1.644  0.00  0.00    +0.231 C 
ATOM     22  O   UNL     1       3.975   0.180  -1.206  0.00  0.00    -0.274 OA
ATOM     23  N   UNL     1       5.097  -1.360  -2.343  0.00  0.00    -0.313 N 
ATOM     24  H   UNL     1       5.133  -2.264  -2.693  0.00  0.00    +0.149 HD
BRANCH  21  25
ATOM     25  C   UNL     1       2.871  -1.896  -1.406  0.00  0.00    +0.213 C 
BRANCH  25  30
ATOM     26  C   UNL     1      -0.019   1.526   0.010  0.00  0.00    +0.042 C 
ATOM     27  C   UNL     1       0.002  -0.004   0.002  0.00  0.00    +0.113 C 
ATOM     28  C   UNL     1       0.815  -0.520  -1.169  0.00  0.00    +0.247 C 
ATOM     29  O   UNL     1       0.595  -0.342  -2.348  0.00  0.00    -0.273 OA
ATOM     30  N   UNL     1       1.833  -1.217  -0.627  0.00  0.00    -0.215 N 
ATOM     31  C   UNL     1       1.777  -1.214   0.710  0.00  0.00    +0.310 C 
ATOM     32  O   UNL     1       2.586  -1.776   1.421  0.00  0.00    -0.252 OA
ATOM     33  N   UNL     1       0.724  -0.519   1.178  0.00  0.00    -0.285 N 
ATOM     34  H   UNL     1       0.487  -0.383   2.109  0.00  0.00    +0.151 HD
BRANCH  27  35
ATOM     35  C   UNL     1      -1.423  -0.560  -0.041  0.00  0.00    +0.021 C 
ATOM     36  C   UNL     1      -2.549   0.410  -0.402  0.00  0.00    +0.006 C 
ATOM     37  C   UNL     1      -2.399  -0.085   1.038  0.00  0.00    +0.006 C 
ENDBRANCH  27  35
ENDBRANCH  25  30
ENDBRANCH  21  25
ENDBRANCH  20  23
ENDBRANCH   1  20
TORSDOF 8
