REMARK  Name = ZINC03146414
REMARK  6 active torsions:
REMARK  status: ('A' for Active; 'I' for Inactive)
REMARK    1  A    between atoms: C_1  and  C_2
REMARK    2  A    between atoms: C_7  and  N_8
REMARK    3  A    between atoms: C_9  and  C_11
REMARK    4  A    between atoms: C_11  and  N_17
REMARK    5  A    between atoms: C_18  and  C_20
REMARK    6  A    between atoms: C_20  and  N_21
REMARK                            x       y       z     vdW  Elec       q    Type
REMARK                         _______ _______ _______ _____ _____    ______ ____
ROOT
ATOM      1  C   UNL     1      -1.269   1.734   0.435  0.00  0.00    +0.111 C 
ATOM      2  C   UNL     1      -2.039   1.556  -0.875  0.00  0.00    +0.035 C 
ATOM      3  C   UNL     1      -3.201   2.550  -0.923  0.00  0.00    +0.003 C 
ATOM      4  C   UNL     1      -2.655   3.977  -0.842  0.00  0.00    +0.000 C 
ATOM      5  C   UNL     1      -1.885   4.155   0.468  0.00  0.00    +0.003 C 
ATOM      6  C   UNL     1      -0.723   3.161   0.516  0.00  0.00    +0.035 C 
ENDROOT
BRANCH   1   8
ATOM      7  N   UNL     1       0.454   0.450   1.660  0.00  0.00    -0.284 N 
ATOM      8  C   UNL     1      -0.124   0.754   0.481  0.00  0.00    +0.241 C 
ATOM      9  O   UNL     1       0.273   0.236  -0.541  0.00  0.00    -0.273 OA
ATOM     10  H   UNL     1       0.162   0.892   2.473  0.00  0.00    +0.155 HD
BRANCH   7  17
ATOM     11  C   UNL     1       0.909  -0.901   4.123  0.00  0.00    +0.045 C 
ATOM     12  C   UNL     1       1.733  -1.186   2.894  0.00  0.00    -0.029 A 
ATOM     13  C   UNL     1       2.743  -2.127   2.941  0.00  0.00    +0.005 A 
ATOM     14  C   UNL     1       3.499  -2.389   1.814  0.00  0.00    +0.000 A 
ATOM     15  C   UNL     1       3.247  -1.712   0.635  0.00  0.00    +0.002 A 
ATOM     16  C   UNL     1       2.235  -0.774   0.579  0.00  0.00    +0.023 A 
ATOM     17  C   UNL     1       1.477  -0.504   1.712  0.00  0.00    +0.036 A 
ENDBRANCH   7  17
ENDBRANCH   1   8
BRANCH   1  18
ATOM     18  N   UNL     1      -2.167   1.489   1.566  0.00  0.00    -0.300 N 
ATOM     19  C   UNL     1      -2.733   0.277   1.727  0.00  0.00    +0.232 C 
ATOM     20  O   UNL     1      -2.450  -0.630   0.973  0.00  0.00    -0.274 OA
ATOM     21  H   UNL     1      -2.354   2.200   2.199  0.00  0.00    +0.150 HD
BRANCH  19  22
ATOM     22  C   UNL     1      -3.718   0.048   2.845  0.00  0.00    +0.212 C 
BRANCH  22  23
ATOM     23  N   UNL     1      -4.186  -1.340   2.806  0.00  0.00    -0.225 N 
ATOM     24  C   UNL     1      -5.263  -1.761   2.120  0.00  0.00    +0.254 C 
ATOM     25  O   UNL     1      -5.991  -1.062   1.444  0.00  0.00    -0.270 OA
ATOM     26  C   UNL     1      -5.412  -3.218   2.324  0.00  0.00    +0.049 A 
ATOM     27  C   UNL     1      -6.312  -4.171   1.876  0.00  0.00    +0.014 A 
ATOM     28  C   UNL     1      -6.168  -5.492   2.271  0.00  0.00    +0.001 A 
ATOM     29  C   UNL     1      -5.132  -5.864   3.107  0.00  0.00    +0.001 A 
ATOM     30  C   UNL     1      -4.223  -4.921   3.563  0.00  0.00    +0.014 A 
ATOM     31  C   UNL     1      -4.356  -3.597   3.177  0.00  0.00    +0.049 A 
ATOM     32  C   UNL     1      -3.598  -2.360   3.458  0.00  0.00    +0.254 C 
ATOM     33  O   UNL     1      -2.610  -2.277   4.160  0.00  0.00    -0.270 OA
ENDBRANCH  22  23
ENDBRANCH  19  22
ENDBRANCH   1  18
TORSDOF 5
