REMARK  Name = ZINC31862608
REMARK  1 active torsions:
REMARK  status: ('A' for Active; 'I' for Inactive)
REMARK    1  A    between atoms: C_1  and  C_2
REMARK                            x       y       z     vdW  Elec       q    Type
REMARK                         _______ _______ _______ _____ _____    ______ ____
ROOT
ATOM      1  C   UNL     1      -5.005   3.541  -2.224  0.00  0.00    +0.008 C 
ATOM      2  C   UNL     1      -3.571   3.040  -2.038  0.00  0.00    -0.009 C 
ATOM      3  C   UNL     1      -2.882   3.853  -0.938  0.00  0.00    +0.008 C 
ATOM      4  C   UNL     1      -1.388   3.532  -0.914  0.00  0.00    +0.037 C 
ATOM      5  C   UNL     1      -1.210   2.019  -0.825  0.00  0.00    -0.025 A 
ATOM      6  C   UNL     1      -2.223   1.187  -1.139  0.00  0.00    -0.004 A 
ATOM      7  S   UNL     1      -1.575  -0.445  -0.892  0.00  0.00    -0.075 S 
ATOM      8  C   UNL     1       0.059  -0.006  -0.359  0.00  0.00    +0.092 A 
ATOM      9  C   UNL     1       0.046   1.402  -0.390  0.00  0.00    +0.049 A 
ATOM     10  C   UNL     1       1.257   2.035   0.006  0.00  0.00    +0.132 A 
ATOM     11  N   UNL     1       2.287   1.288   0.368  0.00  0.00    -0.178 NA
ATOM     12  C   UNL     1       2.230  -0.037   0.374  0.00  0.00    +0.348 A 
ATOM     13  N   UNL     1       1.130  -0.680   0.014  0.00  0.00    -0.300 N 
ATOM     14  O   UNL     1       3.320  -0.746   0.754  0.00  0.00    -0.245 OA
ATOM     15  N   UNL     1       1.356   3.414   0.013  0.00  0.00    -0.342 N 
ATOM     16  C   UNL     1      -3.597   1.564  -1.603  0.00  0.00    +0.046 C 
ATOM     17  H   UNL     1       1.107  -1.779   0.026  0.00  0.00    +0.171 HD
ATOM     18  H   UNL     1       0.495   4.029  -0.288  0.00  0.00    +0.144 HD
ATOM     19  H   UNL     1       2.295   3.896   0.321  0.00  0.00    +0.144 HD
ENDROOT
TORSDOF 0
