REMARK  Name = ZINC65305156
REMARK  9 active torsions:
REMARK  status: ('A' for Active; 'I' for Inactive)
REMARK    1  A    between atoms: C_1  and  C_2
REMARK    2  A    between atoms: C_7  and  N_8
REMARK    3  A    between atoms: C_9  and  C_11
REMARK    4  A    between atoms: C_11  and  N_12
REMARK    5  A    between atoms: N_23  and  C_26
REMARK    6  A    between atoms: C_26  and  C_27
REMARK    7  A    between atoms: C_27  and  C_28
REMARK    8  A    between atoms: C_28  and  C_29
REMARK    9  A    between atoms: C_28  and  C_30
REMARK                            x       y       z     vdW  Elec       q    Type
REMARK                         _______ _______ _______ _____ _____    ______ ____
ROOT
ATOM      1  N   UNL     1      -0.241  -0.903   5.989  0.00  0.00    -0.202 N 
ATOM      2  C   UNL     1       0.803  -1.407   6.681  0.00  0.00    +0.353 A 
ATOM      3  O   UNL     1       1.980  -1.149   6.500  0.00  0.00    -0.244 OA
ATOM      4  N   UNL     1       0.305  -2.248   7.609  0.00  0.00    -0.228 N 
ATOM      5  C   UNL     1       0.954  -3.029   8.584  0.00  0.00    +0.074 A 
ATOM      6  C   UNL     1       2.313  -3.149   8.861  0.00  0.00    +0.035 A 
ATOM      7  C   UNL     1       2.724  -3.966   9.856  0.00  0.00    +0.048 A 
ATOM      8  S   UNL     1       1.304  -4.619  10.473  0.00  0.00    -0.090 S 
ATOM      9  C   UNL     1       0.142  -3.807   9.408  0.00  0.00    +0.101 A 
ATOM     10  C   UNL     1      -1.253  -3.817   9.279  0.00  0.00    +0.270 A 
ATOM     11  O   UNL     1      -1.931  -4.509  10.017  0.00  0.00    -0.266 OA
ATOM     12  N   UNL     1      -1.842  -3.055   8.332  0.00  0.00    -0.276 N 
ATOM     13  C   UNL     1      -1.064  -2.268   7.494  0.00  0.00    +0.240 A 
ATOM     14  N   UNL     1      -1.409  -1.460   6.528  0.00  0.00    -0.129 NA
ENDROOT
BRANCH   1  15
ATOM     15  C   UNL     1      -0.168   0.054   4.882  0.00  0.00    +0.245 C 
BRANCH  15  17
ATOM     16  N   UNL     1       0.025  -0.014   2.417  0.00  0.00    -0.284 N 
ATOM     17  C   UNL     1      -0.056  -0.693   3.578  0.00  0.00    +0.239 C 
ATOM     18  O   UNL     1      -0.040  -1.906   3.574  0.00  0.00    -0.273 OA
ATOM     19  H   UNL     1       0.078   0.955   2.424  0.00  0.00    +0.155 HD
BRANCH  16  26
ATOM     20  C   UNL     1      -1.265   1.183   0.181  0.00  0.00    +0.045 C 
ATOM     21  C   UNL     1      -0.584  -0.158   0.084  0.00  0.00    -0.029 A 
ATOM     22  C   UNL     1      -0.569  -0.840  -1.117  0.00  0.00    +0.006 A 
ATOM     23  C   UNL     1       0.054  -2.070  -1.207  0.00  0.00    +0.020 A 
ATOM     24  C   UNL     1       0.667  -2.622  -0.095  0.00  0.00    +0.043 A 
ATOM     25  C   UNL     1       0.655  -1.944   1.109  0.00  0.00    +0.043 A 
ATOM     26  C   UNL     1       0.034  -0.706   1.201  0.00  0.00    +0.038 A 
ATOM     27 CL   UNL     1       1.449  -4.168  -0.213  0.00  0.00    -0.083 Cl
ENDBRANCH  16  26
ENDBRANCH  15  17
ENDBRANCH   1  15
BRANCH  12  28
ATOM     28  C   UNL     1      -3.300  -3.060   8.190  0.00  0.00    +0.128 C 
BRANCH  28  29
ATOM     29  C   UNL     1      -3.903  -1.970   9.078  0.00  0.00    +0.025 C 
BRANCH  29  30
ATOM     30  C   UNL     1      -5.426  -1.975   8.930  0.00  0.00    -0.016 C 
ATOM     31  C   UNL     1      -5.987  -3.292   9.469  0.00  0.00    +0.007 C 
ATOM     32  C   UNL     1      -6.019  -0.807   9.719  0.00  0.00    +0.007 C 
ENDBRANCH  29  30
ENDBRANCH  28  29
ENDBRANCH  12  28
TORSDOF 6
