REMARK  Name = ZINC05078190
REMARK  7 active torsions:
REMARK  status: ('A' for Active; 'I' for Inactive)
REMARK    1  A    between atoms: C_4  and  C_7
REMARK    2  A    between atoms: C_8  and  C_9
REMARK    3  A    between atoms: C_9  and  S_10
REMARK    4  A    between atoms: S_10  and  C_11
REMARK    5  A    between atoms: C_16  and  N_20
REMARK    6  A    between atoms: C_17  and  N_19
REMARK    7  A    between atoms: C_21  and  C_23
REMARK                            x       y       z     vdW  Elec       q    Type
REMARK                         _______ _______ _______ _____ _____    ______ ____
ROOT
ATOM      1  C   UNL     1       1.153  -0.671  -0.022  0.00  0.00    +0.171 A 
ATOM      2  N   UNL     1       2.352  -0.025  -0.021  0.00  0.00    -0.300 N 
ATOM      3  H   UNL     1       3.202  -0.551  -0.028  0.00  0.00    +0.171 HD
ATOM      4  C   UNL     1       2.395   1.324  -0.010  0.00  0.00    +0.275 A 
ATOM      5  O   UNL     1       3.466   1.912  -0.009  0.00  0.00    -0.266 OA
ATOM      6  C   UNL     1       1.188   2.039  -0.001  0.00  0.00    +0.139 A 
ATOM      7  C   UNL     1      -0.008   1.329  -0.004  0.00  0.00    +0.146 A 
ATOM      8  N   UNL     1       0.015  -0.008  -0.014  0.00  0.00    -0.207 NA
ENDROOT
BRANCH   6   9
ATOM      9  N   UNL     1       1.188   3.447   0.009  0.00  0.00    -0.274 N 
ATOM     10  C   UNL     1       1.783   4.114   1.017  0.00  0.00    +0.248 C 
ATOM     11  O   UNL     1       2.394   3.503   1.873  0.00  0.00    -0.270 OA
ATOM     12  H   UNL     1       0.759   3.937  -0.710  0.00  0.00    +0.155 HD
BRANCH  10  13
ATOM     13  C   UNL     1       1.693   5.588   1.084  0.00  0.00    +0.037 A 
ATOM     14  C   UNL     1       0.997   6.293   0.100  0.00  0.00    +0.013 A 
ATOM     15  C   UNL     1       0.912   7.668   0.171  0.00  0.00    +0.001 A 
ATOM     16  C   UNL     1       1.524   8.349   1.208  0.00  0.00    +0.000 A 
ATOM     17  C   UNL     1       2.221   7.657   2.183  0.00  0.00    +0.001 A 
ATOM     18  C   UNL     1       2.309   6.282   2.127  0.00  0.00    +0.013 A 
ENDBRANCH  10  13
ENDBRANCH   6   9
BRANCH   7  19
ATOM     19  N   UNL     1      -1.216   2.003  -0.001  0.00  0.00    -0.341 N 
ATOM     20  H   UNL     1      -2.049   1.506  -0.006  0.00  0.00    +0.144 HD
ATOM     21  H   UNL     1      -1.230   2.973   0.006  0.00  0.00    +0.144 HD
ENDBRANCH   7  19
BRANCH   1  22
ATOM     22  S   UNL     1       1.124  -2.433  -0.035  0.00  0.00    -0.084 S 
BRANCH  22  23
ATOM     23  C   UNL     1      -0.664  -2.718  -0.033  0.00  0.00    +0.104 C 
BRANCH  23  25
ATOM     24  C   UNL     1      -1.530  -4.772   0.995  0.00  0.00    +0.004 C 
ATOM     25  C   UNL     1      -0.936  -4.200  -0.043  0.00  0.00    -0.015 C 
BRANCH  24  29
ATOM     26  C   UNL     1      -2.299  -8.949   0.965  0.00  0.00    +0.000 A 
ATOM     27  C   UNL     1      -2.669  -8.188   2.059  0.00  0.00    +0.001 A 
ATOM     28  C   UNL     1      -2.423  -6.831   2.075  0.00  0.00    +0.008 A 
ATOM     29  C   UNL     1      -1.798  -6.226   0.985  0.00  0.00    -0.025 A 
ATOM     30  C   UNL     1      -1.431  -6.998  -0.118  0.00  0.00    +0.008 A 
ATOM     31  C   UNL     1      -1.678  -8.355  -0.119  0.00  0.00    +0.001 A 
ENDBRANCH  24  29
ENDBRANCH  23  25
ENDBRANCH  22  23
ENDBRANCH   1  22
TORSDOF 7
