REMARK  Name = ZINC20391128
REMARK  3 active torsions:
REMARK  status: ('A' for Active; 'I' for Inactive)
REMARK    1  A    between atoms: C_3  and  O_8
REMARK    2  A    between atoms: C_6  and  O_7
REMARK    3  A    between atoms: O_8  and  C_9
REMARK                            x       y       z     vdW  Elec       q    Type
REMARK                         _______ _______ _______ _____ _____    ______ ____
ROOT
ATOM      1  C   UNL     1       0.838   1.402   1.091  0.00  0.00    +0.049 A 
ATOM      2  C   UNL     1       0.859   0.021   1.107  0.00  0.00    +0.050 A 
ATOM      3  C   UNL     1       1.210  -0.681  -0.037  0.00  0.00    +0.129 A 
ATOM      4  C   UNL     1       1.541   0.004  -1.197  0.00  0.00    +0.050 A 
ATOM      5  C   UNL     1       1.520   1.385  -1.213  0.00  0.00    +0.049 A 
ATOM      6  C   UNL     1       1.169   2.087  -0.070  0.00  0.00    +0.117 A 
ENDROOT
BRANCH   6   7
ATOM      7  O   UNL     1       1.148   3.446  -0.086  0.00  0.00    -0.507 OA
ATOM      8  H   UNL     1       1.410   3.989  -1.006  0.00  0.00    +0.292 HD
ENDBRANCH   6   7
BRANCH   3   9
ATOM      9  O   UNL     1       1.231  -2.041  -0.020  0.00  0.00    -0.456 OA
BRANCH   9  10
ATOM     10  C   UNL     1       2.434  -2.662  -0.140  0.00  0.00    +0.129 A 
ATOM     11  C   UNL     1       3.603  -1.915  -0.151  0.00  0.00    +0.048 A 
ATOM     12  C   UNL     1       4.825  -2.549  -0.267  0.00  0.00    +0.023 A 
ATOM     13  C   UNL     1       4.883  -3.926  -0.382  0.00  0.00    +0.041 A 
ATOM     14  C   UNL     1       3.718  -4.672  -0.377  0.00  0.00    +0.023 A 
ATOM     15  C   UNL     1       2.494  -4.043  -0.256  0.00  0.00    +0.048 A 
ATOM     16 CL   UNL     1       6.420  -4.720  -0.534  0.00  0.00    -0.084 Cl
ENDBRANCH   9  10
ENDBRANCH   3   9
TORSDOF 3
