REMARK  Name = ZINC28783107
REMARK  7 active torsions:
REMARK  status: ('A' for Active; 'I' for Inactive)
REMARK    1  A    between atoms: C_1  and  C_2
REMARK    2  A    between atoms: C_4  and  N_25
REMARK    3  A    between atoms: C_7  and  N_8
REMARK    4  A    between atoms: C_9  and  C_11
REMARK    5  A    between atoms: C_11  and  O_12
REMARK    6  A    between atoms: O_12  and  C_13
REMARK    7  A    between atoms: C_22  and  C_23
REMARK                            x       y       z     vdW  Elec       q    Type
REMARK                         _______ _______ _______ _____ _____    ______ ____
ROOT
ATOM      1  N   UNL     1       0.025  -0.015   2.417  0.00  0.00    -0.282 N 
ATOM      2  C   UNL     1      -0.057  -0.694   3.578  0.00  0.00    +0.255 C 
ATOM      3  O   UNL     1      -0.040  -1.907   3.573  0.00  0.00    -0.272 OA
ATOM      4  H   UNL     1       0.077   0.954   2.425  0.00  0.00    +0.155 HD
ENDROOT
BRANCH   1  11
ATOM      5  C   UNL     1      -1.265   1.183   0.181  0.00  0.00    +0.046 C 
ATOM      6  C   UNL     1      -0.584  -0.158   0.084  0.00  0.00    -0.027 A 
ATOM      7  C   UNL     1      -0.569  -0.841  -1.117  0.00  0.00    +0.038 A 
ATOM      8  C   UNL     1       0.056  -2.071  -1.206  0.00  0.00    +0.127 A 
ATOM      9  C   UNL     1       0.667  -2.622  -0.095  0.00  0.00    +0.034 A 
ATOM     10  C   UNL     1       0.656  -1.944   1.109  0.00  0.00    +0.026 A 
ATOM     11  C   UNL     1       0.034  -0.706   1.201  0.00  0.00    +0.037 A 
BRANCH   8  12
ATOM     12  N   UNL     1       0.070  -2.800  -2.494  0.00  0.00    +0.056 N 
ATOM     13  O   UNL     1      -0.465  -2.320  -3.466  0.00  0.00    -0.126 OA
ATOM     14  O   UNL     1       0.615  -3.876  -2.574  0.00  0.00    -0.126 OA
ENDBRANCH   8  12
ENDBRANCH   1  11
BRANCH   2  15
ATOM     15  C   UNL     1      -0.169   0.052   4.882  0.00  0.00    +0.324 C 
BRANCH  15  16
ATOM     16  O   UNL     1      -0.240  -0.882   5.961  0.00  0.00    -0.482 OA
BRANCH  16  17
ATOM     17  C   UNL     1      -0.345  -0.370   7.211  0.00  0.00    +0.132 A 
ATOM     18  C   UNL     1      -0.384   1.012   7.395  0.00  0.00    +0.047 A 
ATOM     19  C   UNL     1      -0.487   1.568   8.630  0.00  0.00    +0.012 A 
ATOM     20  C   UNL     1      -0.560   0.761   9.781  0.00  0.00    -0.017 A 
ATOM     21  C   UNL     1      -0.668   1.329  11.061  0.00  0.00    +0.008 A 
ATOM     22  C   UNL     1      -0.737   0.518  12.154  0.00  0.00    +0.001 A 
ATOM     23  C   UNL     1      -0.702  -0.867  12.022  0.00  0.00    +0.001 A 
ATOM     24  C   UNL     1      -0.598  -1.450  10.793  0.00  0.00    +0.009 A 
ATOM     25  C   UNL     1      -0.526  -0.647   9.651  0.00  0.00    -0.004 A 
ATOM     26  C   UNL     1      -0.419  -1.232   8.312  0.00  0.00    +0.063 A 
BRANCH  26  27
ATOM     27  C   UNL     1      -0.386  -2.681   8.130  0.00  0.00    +0.263 C 
ATOM     28  O   UNL     1      -0.293  -3.151   7.015  0.00  0.00    -0.296 OA
ENDBRANCH  26  27
ENDBRANCH  16  17
ENDBRANCH  15  16
ENDBRANCH   2  15
TORSDOF 6
