REMARK  Name = ZINC10247186
REMARK  7 active torsions:
REMARK  status: ('A' for Active; 'I' for Inactive)
REMARK    1  A    between atoms: C_1  and  C_2
REMARK    2  A    between atoms: C_2  and  O_3
REMARK    3  A    between atoms: O_3  and  C_4
REMARK    4  A    between atoms: C_4  and  C_6
REMARK    5  A    between atoms: C_10  and  N_23
REMARK    6  A    between atoms: N_14  and  C_16
REMARK    7  A    between atoms: C_24  and  C_26
REMARK                            x       y       z     vdW  Elec       q    Type
REMARK                         _______ _______ _______ _____ _____    ______ ____
ROOT
ATOM      1  C   UNL     1       3.980   5.004  -1.306  0.00  0.00    +0.177 A 
ATOM      2  C   UNL     1       4.751   5.325  -0.070  0.00  0.00    +0.030 A 
ATOM      3  C   UNL     1       5.929   6.020   0.000  0.00  0.00    +0.058 A 
ATOM      4  S   UNL     1       6.304   6.048   1.737  0.00  0.00    -0.080 S 
ATOM      5  C   UNL     1       4.948   5.170   2.347  0.00  0.00    +0.085 A 
ATOM      6  C   UNL     1       4.205   4.855   1.206  0.00  0.00    +0.079 A 
ATOM      7  C   UNL     1       2.970   4.128   1.168  0.00  0.00    +0.282 A 
ATOM      8  O   UNL     1       2.476   3.722   2.204  0.00  0.00    -0.265 OA
ATOM      9  N   UNL     1       2.357   3.888   0.001  0.00  0.00    -0.193 N 
ATOM     10  N   UNL     1       2.866   4.329  -1.219  0.00  0.00    -0.156 NA
ENDROOT
BRANCH   9  11
ATOM     11  C   UNL     1       1.156   3.170   0.008  0.00  0.00    +0.104 A 
ATOM     12  C   UNL     1       1.175   1.781   0.000  0.00  0.00    +0.031 A 
ATOM     13  C   UNL     1      -0.013   1.076   0.008  0.00  0.00    +0.002 A 
ATOM     14  C   UNL     1      -1.220   1.750   0.017  0.00  0.00    +0.003 A 
ATOM     15  C   UNL     1      -1.245   3.132   0.031  0.00  0.00    +0.040 A 
ATOM     16  C   UNL     1      -0.060   3.846   0.023  0.00  0.00    +0.149 A 
ATOM     17  F   UNL     1      -0.083   5.197   0.031  0.00  0.00    -0.203 F 
ENDBRANCH   9  11
BRANCH   5  18
ATOM     18  N   UNL     1       4.663   4.851   3.666  0.00  0.00    -0.275 N 
ATOM     19  C   UNL     1       5.499   5.239   4.649  0.00  0.00    +0.256 C 
ATOM     20  O   UNL     1       6.504   5.868   4.380  0.00  0.00    -0.270 OA
ATOM     21  H   UNL     1       3.861   4.349   3.881  0.00  0.00    +0.156 HD
BRANCH  19  22
ATOM     22  C   UNL     1       5.196   4.900   6.049  0.00  0.00    +0.122 A 
ATOM     23  C   UNL     1       4.056   4.184   6.370  0.00  0.00    +0.031 A 
ATOM     24  C   UNL     1       3.803   3.879   7.731  0.00  0.00    +0.018 A 
ATOM     25  C   UNL     1       2.657   3.154   8.091  0.00  0.00    +0.011 A 
ATOM     26  C   UNL     1       2.420   2.864   9.404  0.00  0.00    +0.001 A 
ATOM     27  C   UNL     1       3.307   3.280  10.388  0.00  0.00    +0.004 A 
ATOM     28  C   UNL     1       4.439   3.994  10.057  0.00  0.00    +0.047 A 
ATOM     29  C   UNL     1       4.702   4.302   8.726  0.00  0.00    +0.139 A 
ATOM     30  O   UNL     1       5.812   5.000   8.405  0.00  0.00    -0.422 OA
ATOM     31  C   UNL     1       6.101   5.310   7.130  0.00  0.00    +0.350 A 
ATOM     32  O   UNL     1       7.111   5.936   6.870  0.00  0.00    -0.244 OA
ENDBRANCH  19  22
ENDBRANCH   5  18
BRANCH   1  33
ATOM     33  C   UNL     1       4.475   5.447  -2.621  0.00  0.00    +0.360 C 
ATOM     34  O   UNL     1       5.512   6.075  -2.700  0.00  0.00    -0.243 OA
BRANCH  33  35
ATOM     35  O   UNL     1       3.777   5.155  -3.737  0.00  0.00    -0.460 OA
BRANCH  35  37
ATOM     36  C   UNL     1       3.401   5.200  -6.143  0.00  0.00    +0.048 C 
ATOM     37  C   UNL     1       4.324   5.623  -4.998  0.00  0.00    +0.229 C 
ENDBRANCH  35  37
ENDBRANCH  33  35
ENDBRANCH   1  33
TORSDOF 6
