REMARK  Name = ZINC05172066
REMARK  6 active torsions:
REMARK  status: ('A' for Active; 'I' for Inactive)
REMARK    1  A    between atoms: C_4  and  O_25
REMARK    2  A    between atoms: C_5  and  C_7
REMARK    3  A    between atoms: N_9  and  N_10
REMARK    4  A    between atoms: C_11  and  C_13
REMARK    5  A    between atoms: C_13  and  S_14
REMARK    6  A    between atoms: S_14  and  C_15
REMARK                            x       y       z     vdW  Elec       q    Type
REMARK                         _______ _______ _______ _____ _____    ______ ____
ROOT
ATOM      1  N   UNL     1       0.121  -4.255  -0.024  0.00  0.00    -0.233 N 
ATOM      2  C   UNL     1      -1.033  -4.951  -0.017  0.00  0.00    +0.239 C 
ATOM      3  O   UNL     1      -2.095  -4.364  -0.003  0.00  0.00    -0.273 OA
ATOM      4  H   UNL     1       0.970  -4.725  -0.036  0.00  0.00    +0.173 HD
ENDROOT
BRANCH   1   7
ATOM      5  C   UNL     1       1.250  -2.159  -0.023  0.00  0.00    +0.264 C 
ATOM      6  O   UNL     1       2.314  -2.748  -0.037  0.00  0.00    -0.269 OA
ATOM      7  N   UNL     1       0.095  -2.855  -0.016  0.00  0.00    -0.230 N 
ATOM      8  H   UNL     1      -0.754  -2.385  -0.004  0.00  0.00    +0.173 HD
BRANCH   5  13
ATOM      9  C   UNL     1      -0.017   1.374   0.010  0.00  0.00    +0.001 A 
ATOM     10  C   UNL     1       1.170   2.089   0.002  0.00  0.00    +0.004 A 
ATOM     11  C   UNL     1       2.383   1.429  -0.013  0.00  0.00    +0.046 A 
ATOM     12  C   UNL     1       2.420   0.043  -0.021  0.00  0.00    +0.129 A 
ATOM     13  C   UNL     1       1.222  -0.684  -0.014  0.00  0.00    +0.079 A 
ATOM     14  C   UNL     1       0.002  -0.004   0.002  0.00  0.00    +0.017 A 
BRANCH  12  15
ATOM     15  O   UNL     1       3.611  -0.606  -0.037  0.00  0.00    -0.506 OA
ATOM     16  H   UNL     1       3.966  -0.799   0.842  0.00  0.00    +0.292 HD
ENDBRANCH  12  15
ENDBRANCH   5  13
ENDBRANCH   1   7
BRANCH   2  17
ATOM     17  C   UNL     1      -1.006  -6.457  -0.026  0.00  0.00    +0.171 C 
BRANCH  17  18
ATOM     18  S   UNL     1      -2.704  -7.094  -0.013  0.00  0.00    -0.116 S 
BRANCH  18  19
ATOM     19  C   UNL     1      -2.504  -8.844  -0.026  0.00  0.00    +0.012 A 
ATOM     20  C   UNL     1      -1.230  -9.398  -0.036  0.00  0.00    +0.018 A 
ATOM     21  C   UNL     1      -1.073 -10.770  -0.047  0.00  0.00    +0.050 A 
ATOM     22  C   UNL     1      -2.185 -11.599  -0.047  0.00  0.00    +0.162 A 
ATOM     23  C   UNL     1      -3.461 -11.049  -0.034  0.00  0.00    +0.163 A 
ATOM     24  C   UNL     1      -3.619  -9.671  -0.020  0.00  0.00    +0.064 A 
ATOM     25  O   UNL     1      -4.564 -11.846  -0.027  0.00  0.00    -0.485 OA
ATOM     26  C   UNL     1      -4.373 -13.212  -0.413  0.00  0.00    +0.270 C 
ATOM     27  C   UNL     1      -3.135 -13.749   0.317  0.00  0.00    +0.270 C 
ATOM     28  O   UNL     1      -2.009 -12.950  -0.062  0.00  0.00    -0.485 OA
ENDBRANCH  18  19
ENDBRANCH  17  18
ENDBRANCH   2  17
TORSDOF 6
