REMARK  Name = ZINC59461109
REMARK  12 active torsions:
REMARK  status: ('A' for Active; 'I' for Inactive)
REMARK    1  A    between atoms: C_1  and  C_2
REMARK    2  A    between atoms: C_3  and  C_26
REMARK    3  A    between atoms: C_4  and  N_12
REMARK    4  A    between atoms: C_6  and  C_7
REMARK    5  A    between atoms: C_7  and  C_11
REMARK    6  A    between atoms: C_8  and  C_9
REMARK    7  A    between atoms: N_12  and  S_13
REMARK    8  A    between atoms: S_13  and  C_16
REMARK    9  A    between atoms: C_19  and  N_22
REMARK   10  A    between atoms: C_23  and  C_25
REMARK   11  A    between atoms: C_26  and  O_28
REMARK   12  A    between atoms: O_28  and  C_29
REMARK                            x       y       z     vdW  Elec       q    Type
REMARK                         _______ _______ _______ _____ _____    ______ ____
ROOT
ATOM      1  C   UNL     1      -1.008   2.212  -0.095  0.00  0.00    +0.046 C 
ATOM      2  C   UNL     1      -1.056   0.706  -0.150  0.00  0.00    -0.020 A 
ATOM      3  C   UNL     1      -1.173   0.017  -1.352  0.00  0.00    +0.094 A 
ATOM      4  C   UNL     1      -1.208  -1.379  -1.297  0.00  0.00    +0.126 A 
ATOM      5  S   UNL     1      -1.087  -1.727   0.341  0.00  0.00    -0.070 S 
ATOM      6  C   UNL     1      -0.982  -0.071   0.989  0.00  0.00    +0.021 A 
ENDROOT
BRANCH   6   7
ATOM      7  C   UNL     1      -0.856   0.344   2.336  0.00  0.00    -0.026 C 
ATOM      8  C   UNL     1      -0.939  -0.567   3.338  0.00  0.00    +0.093 C 
ATOM      9  C   UNL     1      -0.629   1.799   2.657  0.00  0.00    +0.045 C 
BRANCH   8  10
ATOM     10  C   UNL     1      -0.930  -0.134   4.703  0.00  0.00    +0.092 C 
ATOM     11  N   UNL     1      -0.923   0.210   5.785  0.00  0.00    -0.191 NA
ENDBRANCH   8  10
ENDBRANCH   6   7
BRANCH   3  12
ATOM     12  C   UNL     1      -1.255   0.729  -2.630  0.00  0.00    +0.342 C 
ATOM     13  O   UNL     1      -0.240   0.995  -3.245  0.00  0.00    -0.245 OA
BRANCH  12  14
ATOM     14  O   UNL     1      -2.457   1.090  -3.124  0.00  0.00    -0.464 OA
ATOM     15  C   UNL     1      -2.463   1.781  -4.375  0.00  0.00    +0.280 C 
ENDBRANCH  12  14
ENDBRANCH   3  12
BRANCH   4  16
ATOM     16  N   UNL     1      -1.318  -2.264  -2.345  0.00  0.00    -0.090 NA
BRANCH  16  17
ATOM     17  S   UNL     1      -1.341  -3.893  -2.053  0.00  0.00    +0.092 S 
ATOM     18  O   UNL     1      -0.060  -4.232  -1.540  0.00  0.00    -0.148 OA
ATOM     19  O   UNL     1      -2.542  -4.161  -1.341  0.00  0.00    -0.148 OA
BRANCH  17  20
ATOM     20  C   UNL     1      -1.490  -4.700  -3.612  0.00  0.00    +0.110 A 
ATOM     21  C   UNL     1      -2.742  -4.977  -4.129  0.00  0.00    +0.031 A 
ATOM     22  C   UNL     1      -2.862  -5.609  -5.351  0.00  0.00    +0.025 A 
ATOM     23  C   UNL     1      -1.723  -5.967  -6.061  0.00  0.00    +0.033 A 
ATOM     24  C   UNL     1      -0.467  -5.687  -5.539  0.00  0.00    +0.025 A 
ATOM     25  C   UNL     1      -0.354  -5.050  -4.318  0.00  0.00    +0.031 A 
BRANCH  23  26
ATOM     26  N   UNL     1      -1.841  -6.608  -7.299  0.00  0.00    -0.286 N 
ATOM     27  C   UNL     1      -2.777  -6.204  -8.181  0.00  0.00    +0.214 C 
ATOM     28  O   UNL     1      -3.458  -5.231  -7.938  0.00  0.00    -0.276 OA
ATOM     29  C   UNL     1      -2.977  -6.963  -9.467  0.00  0.00    +0.109 C 
ATOM     30  H   UNL     1      -1.248  -7.343  -7.523  0.00  0.00    +0.155 HD
ENDBRANCH  23  26
ENDBRANCH  17  20
ENDBRANCH  16  17
ENDBRANCH   4  16
TORSDOF 8
