REMARK  Name = ZINC16371247
REMARK  7 active torsions:
REMARK  status: ('A' for Active; 'I' for Inactive)
REMARK    1  A    between atoms: C_6  and  O_7
REMARK    2  A    between atoms: O_7  and  C_8
REMARK    3  A    between atoms: C_8  and  C_9
REMARK    4  A    between atoms: C_12  and  S_15
REMARK    5  A    between atoms: N_13  and  N_14
REMARK    6  A    between atoms: S_15  and  C_16
REMARK    7  A    between atoms: C_16  and  C_17
REMARK                            x       y       z     vdW  Elec       q    Type
REMARK                         _______ _______ _______ _____ _____    ______ ____
ROOT
ATOM      1  C   UNL     1      -5.207   4.362   1.728  0.00  0.00    +0.189 A 
ATOM      2  N   UNL     1      -4.960   4.223   0.456  0.00  0.00    -0.128 NA
ATOM      3  N   UNL     1      -3.856   3.588   0.287  0.00  0.00    -0.121 NA
ATOM      4  C   UNL     1      -3.338   3.277   1.452  0.00  0.00    +0.209 A 
ATOM      5  N   UNL     1      -4.182   3.764   2.408  0.00  0.00    -0.225 N 
ENDROOT
BRANCH   5   6
ATOM      6  N   UNL     1      -4.034   3.674   3.763  0.00  0.00    -0.295 N 
ATOM      7  H   UNL     1      -3.521   4.464   4.125  0.00  0.00    +0.163 HD
ATOM      8  H   UNL     1      -4.929   3.585   4.220  0.00  0.00    +0.163 HD
ENDBRANCH   5   6
BRANCH   1   9
ATOM      9  C   UNL     1      -6.400   5.053   2.336  0.00  0.00    +0.306 C 
BRANCH   9  10
ATOM     10  O   UNL     1      -6.100   6.437   2.532  0.00  0.00    -0.484 OA
BRANCH  10  16
ATOM     11  C   UNL     1      -8.301   6.647   3.410  0.00  0.00    +0.048 A 
ATOM     12  C   UNL     1      -9.291   7.432   3.968  0.00  0.00    +0.042 A 
ATOM     13  C   UNL     1      -9.067   8.781   4.185  0.00  0.00    +0.124 A 
ATOM     14  C   UNL     1      -7.848   9.344   3.848  0.00  0.00    +0.042 A 
ATOM     15  C   UNL     1      -6.854   8.560   3.295  0.00  0.00    +0.048 A 
ATOM     16  C   UNL     1      -7.077   7.209   3.077  0.00  0.00    +0.121 A 
ATOM     17  F   UNL     1     -10.038   9.548   4.726  0.00  0.00    -0.205 F 
ENDBRANCH  10  16
ENDBRANCH   9  10
ENDBRANCH   1   9
BRANCH   4  18
ATOM     18  S   UNL     1      -1.833   2.403   1.730  0.00  0.00    -0.080 S 
BRANCH  18  19
ATOM     19  C   UNL     1      -1.320   2.109   0.020  0.00  0.00    +0.113 C 
BRANCH  19  20
ATOM     20  C   UNL     1      -0.016   1.353   0.009  0.00  0.00    -0.020 A 
ATOM     21  C   UNL     1       0.002  -0.004   0.002  0.00  0.00    +0.097 A 
ATOM     22  C   UNL     1       1.237  -0.689  -0.013  0.00  0.00    +0.338 A 
ATOM     23  O   UNL     1       1.240  -1.906  -0.019  0.00  0.00    -0.245 OA
ATOM     24  O   UNL     1       2.407  -0.032  -0.021  0.00  0.00    -0.422 OA
ATOM     25  C   UNL     1       2.459   1.317  -0.015  0.00  0.00    +0.140 A 
ATOM     26  C   UNL     1       1.266   2.063   0.001  0.00  0.00    +0.022 A 
ATOM     27  C   UNL     1       1.319   3.458   0.009  0.00  0.00    +0.015 A 
ATOM     28  C   UNL     1       2.540   4.100   0.000  0.00  0.00    -0.043 A 
ATOM     29  C   UNL     1       3.716   3.364  -0.016  0.00  0.00    -0.041 A 
ATOM     30  C   UNL     1       3.676   1.982  -0.024  0.00  0.00    +0.051 A 
ATOM     31  C   UNL     1       4.904   4.303  -0.024  0.00  0.00    +0.036 C 
ATOM     32  C   UNL     1       4.335   5.672  -0.453  0.00  0.00    +0.009 C 
ATOM     33  C   UNL     1       2.864   5.579   0.005  0.00  0.00    +0.036 C 
ENDBRANCH  19  20
ENDBRANCH  18  19
ENDBRANCH   4  18
TORSDOF 7
