REMARK  Name = ZINC08609888
REMARK  7 active torsions:
REMARK  status: ('A' for Active; 'I' for Inactive)
REMARK    1  A    between atoms: C_1  and  C_2
REMARK    2  A    between atoms: C_5  and  N_9
REMARK    3  A    between atoms: C_6  and  C_8
REMARK    4  A    between atoms: C_10  and  C_12
REMARK    5  A    between atoms: C_13  and  C_29
REMARK    6  A    between atoms: C_20  and  C_22
REMARK    7  A    between atoms: C_27  and  C_28
REMARK                            x       y       z     vdW  Elec       q    Type
REMARK                         _______ _______ _______ _____ _____    ______ ____
ROOT
ATOM      1  C   UNL     1       0.430  -7.013  -0.955  0.00  0.00    +0.060 C 
ATOM      2  C   UNL     1       0.331  -7.665  -2.123  0.00  0.00    +0.018 C 
ATOM      3  N   UNL     1       0.540  -9.018  -2.225  0.00  0.00    -0.287 N 
ATOM      4  C   UNL     1       0.602  -9.746  -1.045  0.00  0.00    +0.218 A 
ATOM      5  N   UNL     1       0.570 -11.036  -0.848  0.00  0.00    -0.201 NA
ATOM      6  C   UNL     1       0.653 -11.290   0.462  0.00  0.00    +0.247 A 
ATOM      7  N   UNL     1       0.740 -10.159   1.116  0.00  0.00    -0.156 NA
ATOM      8  N   UNL     1       0.713  -9.141   0.164  0.00  0.00    -0.221 N 
ATOM      9  C   UNL     1       0.794  -7.692   0.338  0.00  0.00    +0.177 C 
ATOM     10  C   UNL     1      -0.022  -6.886  -3.364  0.00  0.00    +0.061 C 
ATOM     11  H   UNL     1       0.640  -9.449  -3.089  0.00  0.00    +0.155 HD
ENDROOT
BRANCH   9  12
ATOM     12  C   UNL     1       2.197  -7.306   0.731  0.00  0.00    -0.015 A 
ATOM     13  C   UNL     1       3.259  -7.631  -0.092  0.00  0.00    +0.006 A 
ATOM     14  C   UNL     1       4.546  -7.277   0.268  0.00  0.00    +0.000 A 
ATOM     15  C   UNL     1       4.770  -6.597   1.451  0.00  0.00    +0.000 A 
ATOM     16  C   UNL     1       3.708  -6.271   2.273  0.00  0.00    +0.004 A 
ATOM     17  C   UNL     1       2.420  -6.622   1.910  0.00  0.00    -0.045 A 
ATOM     18  C   UNL     1       1.262  -6.261   2.804  0.00  0.00    +0.044 C 
ENDBRANCH   9  12
BRANCH   1  20
ATOM     19  N   UNL     1       1.135  -4.764  -1.368  0.00  0.00    -0.281 N 
ATOM     20  C   UNL     1       0.186  -5.619  -0.939  0.00  0.00    +0.248 C 
ATOM     21  O   UNL     1      -0.882  -5.192  -0.537  0.00  0.00    -0.270 OA
ATOM     22  H   UNL     1       1.944  -5.104  -1.780  0.00  0.00    +0.155 HD
BRANCH  19  27
ATOM     23  C   UNL     1       0.396   0.828  -0.761  0.00  0.00    +0.044 C 
ATOM     24  C   UNL     1       0.592  -0.658  -0.923  0.00  0.00    -0.050 A 
ATOM     25  C   UNL     1      -0.499  -1.478  -1.140  0.00  0.00    +0.005 A 
ATOM     26  C   UNL     1      -0.323  -2.840  -1.288  0.00  0.00    +0.024 A 
ATOM     27  C   UNL     1       0.953  -3.385  -1.219  0.00  0.00    +0.037 A 
ATOM     28  C   UNL     1       2.047  -2.558  -1.001  0.00  0.00    -0.029 A 
ATOM     29  C   UNL     1       1.864  -1.196  -0.859  0.00  0.00    +0.008 A 
ATOM     30  C   UNL     1       3.433  -3.145  -0.925  0.00  0.00    +0.045 C 
ENDBRANCH  19  27
ENDBRANCH   1  20
TORSDOF 3
