REMARK  Name = ZINC13957148
REMARK  2 active torsions:
REMARK  status: ('A' for Active; 'I' for Inactive)
REMARK    1  A    between atoms: N_13  and  N_14
REMARK    2  A    between atoms: C_15  and  C_16
REMARK                            x       y       z     vdW  Elec       q    Type
REMARK                         _______ _______ _______ _____ _____    ______ ____
ROOT
ATOM      1  C   UNL     1      -7.326  -0.347  -3.000  0.00  0.00    +0.001 A 
ATOM      2  C   UNL     1      -6.170   0.307  -3.398  0.00  0.00    +0.002 A 
ATOM      3  C   UNL     1      -5.285   0.798  -2.462  0.00  0.00    +0.028 A 
ATOM      4  C   UNL     1      -5.549   0.642  -1.104  0.00  0.00    +0.074 A 
ATOM      5  C   UNL     1      -6.718  -0.024  -0.704  0.00  0.00    +0.010 A 
ATOM      6  C   UNL     1      -7.603  -0.515  -1.660  0.00  0.00    +0.010 A 
ATOM      7  C   UNL     1      -6.710  -0.033   0.771  0.00  0.00    +0.010 A 
ATOM      8  C   UNL     1      -7.587  -0.534   1.730  0.00  0.00    +0.010 A 
ATOM      9  C   UNL     1      -7.297  -0.382   3.069  0.00  0.00    +0.001 A 
ATOM     10  C   UNL     1      -6.136   0.267   3.462  0.00  0.00    +0.002 A 
ATOM     11  C   UNL     1      -5.260   0.768   2.524  0.00  0.00    +0.028 A 
ATOM     12  C   UNL     1      -5.536   0.625   1.167  0.00  0.00    +0.074 A 
ATOM     13  N   UNL     1      -4.851   1.020   0.030  0.00  0.00    -0.232 N 
ENDROOT
BRANCH  13  14
ATOM     14  N   UNL     1      -3.631   1.708   0.028  0.00  0.00    -0.174 NA
ATOM     15  C   UNL     1      -2.514   1.047   0.019  0.00  0.00    +0.144 C 
BRANCH  15  16
ATOM     16  C   UNL     1      -1.229   1.770   0.017  0.00  0.00    +0.031 A 
ATOM     17  C   UNL     1      -0.013   1.076   0.008  0.00  0.00    +0.125 A 
ATOM     18  N   UNL     1       1.116   1.762   0.001  0.00  0.00    -0.222 NA
ATOM     19  C   UNL     1       1.107   3.087   0.008  0.00  0.00    +0.213 A 
ATOM     20  N   UNL     1      -0.022   3.781   0.022  0.00  0.00    -0.222 NA
ATOM     21  C   UNL     1      -1.193   3.171   0.029  0.00  0.00    +0.125 A 
ATOM     22  N   UNL     1       2.312   3.766  -0.001  0.00  0.00    -0.327 N 
ATOM     23  H   UNL     1       3.147   3.272  -0.011  0.00  0.00    +0.145 HD
ATOM     24  H   UNL     1       2.323   4.736   0.004  0.00  0.00    +0.145 HD
ENDBRANCH  15  16
ENDBRANCH  13  14
TORSDOF 2
