REMARK  Name = ZINC36618846
REMARK  6 active torsions:
REMARK  status: ('A' for Active; 'I' for Inactive)
REMARK    1  A    between atoms: C_1  and  O_2
REMARK    2  A    between atoms: O_2  and  C_3
REMARK    3  A    between atoms: C_8  and  N_9
REMARK    4  A    between atoms: C_13  and  N_17
REMARK    5  A    between atoms: C_20  and  C_23
REMARK    6  A    between atoms: C_20  and  C_29
REMARK                            x       y       z     vdW  Elec       q    Type
REMARK                         _______ _______ _______ _____ _____    ______ ____
ROOT
ATOM      1  N   UNL     1       0.954  -5.199   2.034  0.00  0.00    +0.388 N 
ATOM      2  C   UNL     1       2.166  -5.401   2.837  0.00  0.00    -0.077 C 
ATOM      3  C   UNL     1       2.477  -6.897   2.929  0.00  0.00    -0.002 C 
ATOM      4  C   UNL     1       1.298  -7.618   3.590  0.00  0.00    +0.046 C 
ATOM      5  C   UNL     1       0.026  -7.338   2.786  0.00  0.00    -0.002 C 
ATOM      6  C   UNL     1      -0.194  -5.826   2.699  0.00  0.00    -0.077 C 
ATOM      7  H   UNL     1       1.082  -5.614   1.123  0.00  0.00    -0.081 HD
ENDROOT
BRANCH   1  12
ATOM      8  N   UNL     1       1.280  -2.577  -0.037  0.00  0.00    -0.208 N 
ATOM      9  C   UNL     1      -0.042  -2.748  -0.162  0.00  0.00    +0.225 C 
ATOM     10  O   UNL     1      -0.717  -2.351  -1.088  0.00  0.00    -0.275 OA
ATOM     11  C   UNL     1      -0.561  -3.514   1.035  0.00  0.00    +0.090 C 
ATOM     12  C   UNL     1       0.704  -3.759   1.883  0.00  0.00    +0.029 C 
ATOM     13  C   UNL     1       1.805  -3.110   1.073  0.00  0.00    +0.213 C 
ATOM     14  O   UNL     1       2.977  -3.077   1.382  0.00  0.00    -0.277 OA
BRANCH   8  20
ATOM     15  C   UNL     1       2.252  -0.526  -0.883  0.00  0.00    +0.142 A 
ATOM     16  C   UNL     1       3.021   0.137  -1.827  0.00  0.00    +0.047 A 
ATOM     17  C   UNL     1       3.582  -0.565  -2.877  0.00  0.00    +0.004 A 
ATOM     18  C   UNL     1       3.379  -1.928  -2.990  0.00  0.00    +0.002 A 
ATOM     19  C   UNL     1       2.614  -2.596  -2.053  0.00  0.00    +0.027 A 
ATOM     20  C   UNL     1       2.052  -1.899  -0.993  0.00  0.00    +0.085 A 
BRANCH  15  22
ATOM     21  C   UNL     1       1.947   1.569   0.200  0.00  0.00    +0.277 C 
ATOM     22  O   UNL     1       1.700   0.163   0.151  0.00  0.00    -0.493 OA
ENDBRANCH  15  22
ENDBRANCH   8  20
ENDBRANCH   1  12
BRANCH   4  23
ATOM     23  C   UNL     1       1.568  -9.124   3.614  0.00  0.00    +0.004 C 
ATOM     24  C   UNL     1       1.738  -9.634   2.181  0.00  0.00    +0.004 C 
ATOM     25  C   UNL     1       2.008 -11.140   2.205  0.00  0.00    +0.000 C 
ATOM     26  C   UNL     1       0.830 -11.858   2.866  0.00  0.00    +0.000 C 
ATOM     27  C   UNL     1       0.660 -11.348   4.298  0.00  0.00    +0.000 C 
ATOM     28  C   UNL     1       0.390  -9.842   4.274  0.00  0.00    +0.004 C 
ENDBRANCH   4  23
BRANCH   4  29
ATOM     29  C   UNL     1       1.125  -7.113   4.999  0.00  0.00    +0.217 C 
ATOM     30  O   UNL     1       0.047  -6.697   5.366  0.00  0.00    -0.275 OA
ATOM     31  N   UNL     1       2.169  -7.123   5.852  0.00  0.00    -0.329 N 
ATOM     32  H   UNL     1       3.049  -7.387   5.539  0.00  0.00    +0.145 HD
ATOM     33  H   UNL     1       2.041  -6.867   6.778  0.00  0.00    +0.145 HD
ENDBRANCH   4  29
TORSDOF 5
