REMARK  Name = ZINC36693004
REMARK  6 active torsions:
REMARK  status: ('A' for Active; 'I' for Inactive)
REMARK    1  A    between atoms: C_1  and  N_2
REMARK    2  A    between atoms: N_2  and  C_3
REMARK    3  A    between atoms: N_2  and  S_22
REMARK    4  A    between atoms: C_3  and  C_4
REMARK    5  A    between atoms: C_10  and  C_12
REMARK    6  A    between atoms: S_22  and  C_25
REMARK                            x       y       z     vdW  Elec       q    Type
REMARK                         _______ _______ _______ _____ _____    ______ ____
ROOT
ATOM      1  C   UNL     1      -1.384  -0.909   1.776  0.00  0.00    +0.234 C 
ATOM      2  O   UNL     1      -2.315  -0.455   1.145  0.00  0.00    -0.274 OA
ATOM      3  N   UNL     1      -1.610  -1.563   2.933  0.00  0.00    -0.262 N 
ATOM      4  C   UNL     1      -2.910  -1.716   3.403  0.00  0.00    +0.188 A 
ATOM      5  N   UNL     1      -4.042  -1.304   2.867  0.00  0.00    -0.126 NA
ATOM      6  N   UNL     1      -5.159  -1.520   3.417  0.00  0.00    -0.144 NA
ATOM      7  C   UNL     1      -5.194  -2.175   4.561  0.00  0.00    +0.110 A 
ATOM      8  S   UNL     1      -3.450  -2.482   4.804  0.00  0.00    -0.035 S 
ATOM      9  H   UNL     1      -0.866  -1.926   3.438  0.00  0.00    +0.157 HD
ENDROOT
BRANCH   7  10
ATOM     10  C   UNL     1      -6.372  -2.561   5.417  0.00  0.00    +0.022 C 
ATOM     11  C   UNL     1      -7.120  -1.300   5.855  0.00  0.00    +0.017 C 
ATOM     12  C   UNL     1      -8.316  -1.693   6.724  0.00  0.00    -0.010 C 
ATOM     13  C   UNL     1      -9.259  -2.591   5.920  0.00  0.00    +0.007 C 
ATOM     14  C   UNL     1      -8.511  -3.852   5.482  0.00  0.00    -0.010 C 
ATOM     15  C   UNL     1      -7.315  -3.459   4.613  0.00  0.00    +0.017 C 
ATOM     16  C   UNL     1      -8.018  -4.607   6.718  0.00  0.00    +0.007 C 
ATOM     17  C   UNL     1      -7.075  -3.709   7.522  0.00  0.00    -0.010 C 
ATOM     18  C   UNL     1      -7.823  -2.448   7.960  0.00  0.00    +0.007 C 
ATOM     19  C   UNL     1      -5.879  -3.317   6.653  0.00  0.00    +0.017 C 
ENDBRANCH   7  10
BRANCH   1  20
ATOM     20  C   UNL     1       0.024  -0.743   1.267  0.00  0.00    +0.205 C 
BRANCH  20  22
ATOM     21  C   UNL     1      -0.018   1.461   0.010  0.00  0.00    +0.132 C 
ATOM     22  N   UNL     1       0.002  -0.004   0.002  0.00  0.00    -0.170 NA
BRANCH  22  23
ATOM     23  S   UNL     1      -0.000  -0.824  -1.437  0.00  0.00    +0.067 S 
ATOM     24  O   UNL     1      -0.531  -2.115  -1.167  0.00  0.00    -0.152 OA
ATOM     25  O   UNL     1      -0.572   0.049  -2.401  0.00  0.00    -0.152 OA
BRANCH  23  26
ATOM     26  C   UNL     1       1.682  -1.059  -1.905  0.00  0.00    +0.144 A 
ATOM     27  C   UNL     1       2.512  -2.090  -1.615  0.00  0.00    +0.038 A 
ATOM     28  C   UNL     1       3.809  -2.063  -2.095  0.00  0.00    +0.030 A 
ATOM     29  C   UNL     1       4.210  -1.004  -2.842  0.00  0.00    +0.080 A 
ATOM     30  S   UNL     1       2.732  -0.005  -2.891  0.00  0.00    -0.057 S 
ATOM     31 CL   UNL     1       5.758  -0.703  -3.568  0.00  0.00    -0.076 Cl
ENDBRANCH  23  26
ENDBRANCH  22  23
ENDBRANCH  20  22
ENDBRANCH   1  20
TORSDOF 5
