REMARK  Name = ZINC36529641
REMARK  10 active torsions:
REMARK  status: ('A' for Active; 'I' for Inactive)
REMARK    1  A    between atoms: C_1  and  C_2
REMARK    2  A    between atoms: C_5  and  S_8
REMARK    3  A    between atoms: S_8  and  C_11
REMARK    4  A    between atoms: C_11  and  N_12
REMARK    5  A    between atoms: C_13  and  C_15
REMARK    6  A    between atoms: C_15  and  C_17
REMARK    7  A    between atoms: C_15  and  N_26
REMARK    8  A    between atoms: C_20  and  N_23
REMARK    9  A    between atoms: N_26  and  C_27
REMARK   10  A    between atoms: C_28  and  C_30
REMARK                            x       y       z     vdW  Elec       q    Type
REMARK                         _______ _______ _______ _____ _____    ______ ____
ROOT
ATOM      1  C   UNL     1       3.219  -4.900   3.534  0.00  0.00    +0.192 C 
ENDROOT
BRANCH   1   2
ATOM      2  C   UNL     1       4.605  -4.329   3.380  0.00  0.00    -0.018 A 
ATOM      3  C   UNL     1       4.837  -2.994   3.654  0.00  0.00    +0.008 A 
ATOM      4  C   UNL     1       6.109  -2.471   3.514  0.00  0.00    +0.033 A 
ATOM      5  C   UNL     1       7.149  -3.283   3.100  0.00  0.00    +0.126 A 
ATOM      6  C   UNL     1       6.917  -4.618   2.827  0.00  0.00    +0.033 A 
ATOM      7  C   UNL     1       5.646  -5.142   2.971  0.00  0.00    +0.008 A 
BRANCH   5   8
ATOM      8  N   UNL     1       8.510  -2.722   2.948  0.00  0.00    +0.056 N 
ATOM      9  O   UNL     1       8.713  -1.554   3.187  0.00  0.00    -0.126 OA
ATOM     10  O   UNL     1       9.419  -3.432   2.586  0.00  0.00    -0.126 OA
ENDBRANCH   5   8
ENDBRANCH   1   2
BRANCH   1  12
ATOM     11  N   UNL     1       2.607  -4.517   1.168  0.00  0.00    -0.294 N 
ATOM     12  C   UNL     1       2.723  -5.382   2.195  0.00  0.00    +0.239 C 
ATOM     13  O   UNL     1       2.428  -6.548   2.041  0.00  0.00    -0.273 OA
ATOM     14  H   UNL     1       2.843  -3.584   1.290  0.00  0.00    +0.150 HD
BRANCH  11  15
ATOM     15  C   UNL     1       2.126  -4.986  -0.134  0.00  0.00    +0.278 C 
BRANCH  15  16
ATOM     16  S   UNL     1       0.339  -4.698  -0.257  0.00  0.00    +0.013 S 
ATOM     17  O   UNL     1      -0.312  -5.149   0.924  0.00  0.00    -0.168 OA
ATOM     18  O   UNL     1      -0.133  -5.089  -1.538  0.00  0.00    -0.168 OA
BRANCH  16  23
ATOM     19  C   UNL     1      -0.279   1.303  -0.157  0.00  0.00    +0.044 C 
ATOM     20  C   UNL     1      -0.125  -0.196  -0.182  0.00  0.00    -0.050 A 
ATOM     21  C   UNL     1       0.034  -0.854  -1.387  0.00  0.00    +0.005 A 
ATOM     22  C   UNL     1       0.175  -2.229  -1.410  0.00  0.00    +0.027 A 
ATOM     23  C   UNL     1       0.159  -2.945  -0.227  0.00  0.00    +0.090 A 
ATOM     24  C   UNL     1       0.002  -2.287   0.978  0.00  0.00    +0.027 A 
ATOM     25  C   UNL     1      -0.136  -0.911   1.001  0.00  0.00    +0.005 A 
ENDBRANCH  16  23
ENDBRANCH  15  16
ENDBRANCH  11  15
ENDBRANCH   1  12
BRANCH   1  26
ATOM     26  N   UNL     1       3.254  -6.022   4.474  0.00  0.00    -0.285 N 
ATOM     27  C   UNL     1       4.062  -7.206   4.172  0.00  0.00    +0.133 C 
ATOM     28  C   UNL     1       2.542  -5.966   5.618  0.00  0.00    +0.247 C 
ATOM     29  O   UNL     1       1.931  -4.955   5.904  0.00  0.00    -0.270 OA
BRANCH  28  30
ATOM     30  C   UNL     1       2.506  -7.134   6.524  0.00  0.00    +0.038 A 
ATOM     31  C   UNL     1       3.651  -7.909   6.716  0.00  0.00    +0.013 A 
ATOM     32  C   UNL     1       3.610  -8.997   7.562  0.00  0.00    +0.002 A 
ATOM     33  C   UNL     1       2.438  -9.322   8.221  0.00  0.00    +0.020 A 
ATOM     34  C   UNL     1       1.298  -8.558   8.036  0.00  0.00    +0.042 A 
ATOM     35  C   UNL     1       1.327  -7.463   7.195  0.00  0.00    +0.033 A 
ATOM     36 CL   UNL     1      -0.168  -8.973   8.867  0.00  0.00    -0.084 Cl
ENDBRANCH  28  30
ENDBRANCH   1  26
TORSDOF 8
