REMARK  Name = ZINC28059750
REMARK  7 active torsions:
REMARK  status: ('A' for Active; 'I' for Inactive)
REMARK    1  A    between atoms: C_1  and  C_2
REMARK    2  A    between atoms: C_10  and  C_18
REMARK    3  A    between atoms: C_21  and  O_26
REMARK    4  A    between atoms: C_22  and  O_24
REMARK    5  A    between atoms: O_24  and  C_25
REMARK    6  A    between atoms: O_26  and  C_27
REMARK    7  A    between atoms: C_28  and  C_31
REMARK                            x       y       z     vdW  Elec       q    Type
REMARK                         _______ _______ _______ _____ _____    ______ ____
ROOT
ATOM      1  C   UNL     1       2.304  -9.063   4.423  0.00  0.00    +0.044 C 
ATOM      2  C   UNL     1       2.678  -7.627   4.163  0.00  0.00    -0.050 A 
ATOM      3  C   UNL     1       3.228  -6.864   5.178  0.00  0.00    +0.007 A 
ATOM      4  C   UNL     1       3.576  -5.543   4.956  0.00  0.00    +0.046 A 
ATOM      5  C   UNL     1       3.373  -4.981   3.709  0.00  0.00    +0.131 A 
ATOM      6  C   UNL     1       2.819  -5.753   2.679  0.00  0.00    +0.038 A 
ATOM      7  C   UNL     1       2.471  -7.077   2.912  0.00  0.00    +0.016 A 
ATOM      8  C   UNL     1       2.620  -5.120   1.354  0.00  0.00    +0.050 C 
ATOM      9  C   UNL     1       2.659  -3.789   1.273  0.00  0.00    +0.025 C 
ATOM     10  C   UNL     1       2.492  -3.054  -0.035  0.00  0.00    +0.174 C 
ATOM     11  N   UNL     1       2.585  -3.986  -1.149  0.00  0.00    -0.201 N 
ATOM     12  C   UNL     1       2.539  -5.337  -1.013  0.00  0.00    +0.240 A 
ATOM     13  N   UNL     1       2.639  -5.851  -2.204  0.00  0.00    -0.092 NA
ATOM     14  N   UNL     1       2.752  -4.917  -3.086  0.00  0.00    -0.021 NA
ATOM     15  N   UNL     1       2.729  -3.755  -2.517  0.00  0.00    -0.042 NA
ATOM     16  N   UNL     1       2.413  -5.932   0.232  0.00  0.00    -0.282 N 
ATOM     17  C   UNL     1       2.868  -2.980   2.533  0.00  0.00    +0.234 C 
ATOM     18  O   UNL     1       3.699  -3.689   3.451  0.00  0.00    -0.479 OA
ATOM     19  H   UNL     1       2.162  -6.995   0.361  0.00  0.00    +0.155 HD
ENDROOT
BRANCH  17  20
ATOM     20  C   UNL     1       1.532  -2.711   3.178  0.00  0.00    -0.000 A 
ATOM     21  C   UNL     1       0.976  -1.447   3.112  0.00  0.00    +0.009 A 
ATOM     22  C   UNL     1      -0.251  -1.199   3.698  0.00  0.00    +0.023 A 
ATOM     23  C   UNL     1      -0.919  -2.213   4.360  0.00  0.00    +0.076 A 
ATOM     24  C   UNL     1      -0.359  -3.479   4.431  0.00  0.00    +0.142 A 
ATOM     25  C   UNL     1       0.867  -3.726   3.838  0.00  0.00    +0.047 A 
ATOM     26  F   UNL     1      -1.010  -4.471   5.078  0.00  0.00    -0.204 F 
ATOM     27 CL   UNL     1      -2.456  -1.901   5.103  0.00  0.00    -0.081 Cl
ENDBRANCH  17  20
BRANCH  10  28
ATOM     28  C   UNL     1       1.145  -2.378  -0.059  0.00  0.00    -0.015 A 
ATOM     29  C   UNL     1      -0.008  -3.135   0.038  0.00  0.00    +0.010 A 
ATOM     30  C   UNL     1      -1.246  -2.519   0.016  0.00  0.00    +0.050 A 
ATOM     31  C   UNL     1      -1.333  -1.142  -0.103  0.00  0.00    +0.162 A 
ATOM     32  C   UNL     1      -0.172  -0.380  -0.201  0.00  0.00    +0.162 A 
ATOM     33  C   UNL     1       1.065  -1.004  -0.185  0.00  0.00    +0.055 A 
BRANCH  32  34
ATOM     34  O   UNL     1      -0.252   0.972  -0.319  0.00  0.00    -0.491 OA
ATOM     35  C   UNL     1       0.980   1.689  -0.415  0.00  0.00    +0.277 C 
ENDBRANCH  32  34
BRANCH  31  36
ATOM     36  O   UNL     1      -2.549  -0.535  -0.125  0.00  0.00    -0.491 OA
ATOM     37  C   UNL     1      -3.697  -1.380  -0.020  0.00  0.00    +0.277 C 
ENDBRANCH  31  36
ENDBRANCH  10  28
TORSDOF 4
