REMARK  Name = ZINC09347555
REMARK  8 active torsions:
REMARK  status: ('A' for Active; 'I' for Inactive)
REMARK    1  A    between atoms: C_1  and  C_2
REMARK    2  A    between atoms: C_2  and  O_3
REMARK    3  A    between atoms: O_3  and  C_4
REMARK    4  A    between atoms: C_12  and  N_18
REMARK    5  A    between atoms: C_13  and  C_14
REMARK    6  A    between atoms: C_14  and  O_16
REMARK    7  A    between atoms: O_16  and  C_17
REMARK    8  A    between atoms: C_19  and  C_21
REMARK                            x       y       z     vdW  Elec       q    Type
REMARK                         _______ _______ _______ _____ _____    ______ ____
ROOT
ATOM      1  N   UNL     1      -3.708   7.574   0.077  0.00  0.00    -0.275 N 
ATOM      2  C   UNL     1      -2.514   8.198   0.069  0.00  0.00    +0.256 C 
ATOM      3  O   UNL     1      -2.463   9.414   0.074  0.00  0.00    -0.270 OA
ATOM      4  H   UNL     1      -3.749   6.604   0.072  0.00  0.00    +0.156 HD
ENDROOT
BRANCH   2   5
ATOM      5  C   UNL     1      -1.272   7.410   0.053  0.00  0.00    +0.122 A 
ATOM      6  C   UNL     1      -1.312   6.021   0.046  0.00  0.00    +0.032 A 
ATOM      7  C   UNL     1      -0.098   5.309   0.032  0.00  0.00    +0.026 A 
ATOM      8  C   UNL     1      -0.094   3.844   0.024  0.00  0.00    -0.007 A 
ATOM      9  C   UNL     1      -1.282   3.109   0.031  0.00  0.00    +0.009 A 
ATOM     10  C   UNL     1      -1.232   1.745   0.017  0.00  0.00    +0.001 A 
ATOM     11  C   UNL     1      -0.013   1.076   0.008  0.00  0.00    +0.001 A 
ATOM     12  C   UNL     1       1.164   1.764   0.000  0.00  0.00    +0.008 A 
ATOM     13  C   UNL     1       1.149   3.167   0.008  0.00  0.00    -0.017 A 
ATOM     14  C   UNL     1       2.344   3.913   0.002  0.00  0.00    +0.012 A 
ATOM     15  C   UNL     1       2.325   5.269   0.008  0.00  0.00    +0.047 A 
ATOM     16  C   UNL     1       1.126   5.992   0.024  0.00  0.00    +0.140 A 
ATOM     17  O   UNL     1       1.161   7.341   0.030  0.00  0.00    -0.422 OA
ATOM     18  C   UNL     1       0.035   8.073   0.045  0.00  0.00    +0.350 A 
ATOM     19  O   UNL     1       0.101   9.289   0.050  0.00  0.00    -0.244 OA
ENDBRANCH   2   5
BRANCH   1  28
ATOM     20  C   UNL     1      -9.900  11.613  -0.909  0.00  0.00    +0.403 C 
ATOM     21  O   UNL     1     -11.041  11.231  -1.080  0.00  0.00    -0.226 OA
ATOM     22  N   UNL     1      -9.076  10.929  -0.091  0.00  0.00    -0.262 N 
ATOM     23  C   UNL     1      -9.529   9.718   0.610  0.00  0.00    +0.116 C 
ATOM     24  C   UNL     1      -8.732   8.510   0.115  0.00  0.00    +0.056 C 
ATOM     25  C   UNL     1      -7.248   8.856   0.113  0.00  0.00    -0.018 A 
ATOM     26  C   UNL     1      -6.826  10.139   0.118  0.00  0.00    +0.013 A 
ATOM     27  S   UNL     1      -5.059  10.039   0.108  0.00  0.00    -0.076 S 
ATOM     28  C   UNL     1      -4.877   8.316   0.091  0.00  0.00    +0.087 A 
ATOM     29  C   UNL     1      -6.189   7.859   0.101  0.00  0.00    +0.091 A 
ATOM     30  C   UNL     1      -7.685  11.367   0.136  0.00  0.00    +0.153 C 
BRANCH  29  31
ATOM     31  C   UNL     1      -6.495   6.427   0.099  0.00  0.00    +0.342 C 
ATOM     32  O   UNL     1      -6.612   5.829   1.151  0.00  0.00    -0.245 OA
BRANCH  31  33
ATOM     33  O   UNL     1      -6.646   5.771  -1.070  0.00  0.00    -0.464 OA
ATOM     34  C   UNL     1      -6.948   4.353  -0.996  0.00  0.00    +0.280 C 
ENDBRANCH  31  33
ENDBRANCH  29  31
BRANCH  20  35
ATOM     35  O   UNL     1      -9.459  12.718  -1.539  0.00  0.00    -0.451 OA
BRANCH  35  37
ATOM     36  C   UNL     1      -9.724  14.627  -3.028  0.00  0.00    +0.048 C 
ATOM     37  C   UNL     1     -10.400  13.404  -2.405  0.00  0.00    +0.230 C 
ENDBRANCH  35  37
ENDBRANCH  20  35
ENDBRANCH   1  28
TORSDOF 6
