REMARK  Name = ZINC02246445
REMARK  15 active torsions:
REMARK  status: ('A' for Active; 'I' for Inactive)
REMARK    1  A    between atoms: C_1  and  C_2
REMARK    2  A    between atoms: C_2  and  O_3
REMARK    3  A    between atoms: O_3  and  C_4
REMARK    4  A    between atoms: C_7  and  C_13
REMARK    5  A    between atoms: C_9  and  O_10
REMARK    6  A    between atoms: O_10  and  C_11
REMARK    7  A    between atoms: C_11  and  C_12
REMARK    8  A    between atoms: C_18  and  C_27
REMARK    9  A    between atoms: N_19  and  C_22
REMARK   10  A    between atoms: C_22  and  C_23
REMARK   11  A    between atoms: C_23  and  N_24
REMARK   12  A    between atoms: N_24  and  C_25
REMARK   13  A    between atoms: N_24  and  C_26
REMARK   14  A    between atoms: C_29  and  N_33
REMARK   15  A    between atoms: C_30  and  C_31
REMARK                            x       y       z     vdW  Elec       q    Type
REMARK                         _______ _______ _______ _____ _____    ______ ____
ROOT
ATOM      1  C   UNL     1       1.107  -6.044  -1.844  0.00  0.00    +0.103 C 
ATOM      2  C   UNL     1       1.870  -6.626  -0.686  0.00  0.00    +0.072 A 
ATOM      3  C   UNL     1       1.215  -7.302   0.322  0.00  0.00    +0.141 A 
ATOM      4  C   UNL     1       1.968  -7.832   1.390  0.00  0.00    +0.068 A 
ATOM      5  C   UNL     1       3.308  -7.671   1.411  0.00  0.00    +0.022 A 
ATOM      6  N   UNL     1       3.947  -7.003   0.414  0.00  0.00    -0.314 N 
ATOM      7  C   UNL     1       3.262  -6.484  -0.622  0.00  0.00    +0.259 A 
ATOM      8  O   UNL     1       3.856  -5.888  -1.507  0.00  0.00    -0.267 OA
ATOM      9  C   UNL     1       4.108  -8.239   2.556  0.00  0.00    +0.064 C 
ATOM     10  O   UNL     1      -0.125  -7.463   0.298  0.00  0.00    -0.441 OA
ATOM     11  C   UNL     1      -0.798  -7.309  -0.856  0.00  0.00    +0.199 C 
ATOM     12  C   UNL     1      -0.269  -6.647  -1.908  0.00  0.00    +0.098 C 
ENDROOT
BRANCH   1  16
ATOM     13  C   UNL     1       0.777  -1.811  -1.336  0.00  0.00    +0.162 A 
ATOM     14  C   UNL     1       0.243  -2.669  -0.388  0.00  0.00    +0.050 A 
ATOM     15  C   UNL     1       0.352  -4.037  -0.555  0.00  0.00    +0.008 A 
ATOM     16  C   UNL     1       0.992  -4.552  -1.667  0.00  0.00    -0.031 A 
ATOM     17  C   UNL     1       1.526  -3.702  -2.616  0.00  0.00    +0.054 A 
ATOM     18  C   UNL     1       1.416  -2.330  -2.458  0.00  0.00    +0.162 A 
BRANCH  13  19
ATOM     19  O   UNL     1       0.671  -0.465  -1.174  0.00  0.00    -0.489 OA
BRANCH  19  21
ATOM     20  C   UNL     1      -0.019   1.526   0.010  0.00  0.00    +0.048 C 
ATOM     21  C   UNL     1       0.002  -0.004   0.002  0.00  0.00    +0.226 C 
ENDBRANCH  19  21
ENDBRANCH  13  19
BRANCH  18  22
ATOM     22  O   UNL     1       1.936  -1.492  -3.394  0.00  0.00    -0.489 OA
BRANCH  22  23
ATOM     23  C   UNL     1       2.578  -2.095  -4.520  0.00  0.00    +0.226 C 
ATOM     24  C   UNL     1       3.096  -1.002  -5.457  0.00  0.00    +0.048 C 
ENDBRANCH  22  23
ENDBRANCH  18  22
ENDBRANCH   1  16
BRANCH  11  25
ATOM     25  N   UNL     1      -2.059  -7.840  -0.967  0.00  0.00    -0.328 N 
ATOM     26  H   UNL     1      -2.451  -8.318  -0.219  0.00  0.00    +0.145 HD
ATOM     27  H   UNL     1      -2.557  -7.738  -1.793  0.00  0.00    +0.145 HD
ENDBRANCH  11  25
BRANCH  12  28
ATOM     28  C   UNL     1      -1.038  -6.516  -3.109  0.00  0.00    +0.101 C 
ATOM     29  N   UNL     1      -1.647  -6.413  -4.062  0.00  0.00    -0.191 NA
ENDBRANCH  12  28
BRANCH   6  30
ATOM     30  C   UNL     1       5.402  -6.847   0.469  0.00  0.00    +0.106 C 
BRANCH  30  31
ATOM     31  C   UNL     1       6.069  -8.028  -0.238  0.00  0.00    -0.058 C 
BRANCH  31  32
ATOM     32  N   UNL     1       7.529  -7.871  -0.184  0.00  0.00    +0.377 N 
ATOM     33  C   UNL     1       8.171  -9.062  -0.756  0.00  0.00    -0.097 C 
ATOM     34  C   UNL     1       7.922  -6.685  -0.956  0.00  0.00    -0.097 C 
ATOM     35  H   UNL     1       7.819  -7.761   0.775  0.00  0.00    -0.083 HD
ENDBRANCH  31  32
ENDBRANCH  30  31
ENDBRANCH   6  30
TORSDOF 10
