REMARK  Name = ZINC16187151
REMARK  8 active torsions:
REMARK  status: ('A' for Active; 'I' for Inactive)
REMARK    1  A    between atoms: C_1  and  N_2
REMARK    2  A    between atoms: N_2  and  C_3
REMARK    3  A    between atoms: N_2  and  S_17
REMARK    4  A    between atoms: C_3  and  C_4
REMARK    5  A    between atoms: N_6  and  N_7
REMARK    6  A    between atoms: C_8  and  C_9
REMARK    7  A    between atoms: C_14  and  C_15
REMARK    8  A    between atoms: S_17  and  C_20
REMARK                            x       y       z     vdW  Elec       q    Type
REMARK                         _______ _______ _______ _____ _____    ______ ____
ROOT
ATOM      1  C   UNL     1      -3.267   1.360  -1.417  0.00  0.00    +0.248 C 
ATOM      2  O   UNL     1      -3.406   2.257  -0.612  0.00  0.00    -0.273 OA
ATOM      3  N   UNL     1      -4.330   0.620  -1.792  0.00  0.00    -0.206 N 
ATOM      4  H   UNL     1      -4.219  -0.097  -2.435  0.00  0.00    +0.177 HD
ENDROOT
BRANCH   3   5
ATOM      5  N   UNL     1      -5.595   0.887  -1.251  0.00  0.00    -0.188 NA
ATOM      6  C   UNL     1      -6.619   0.174  -1.612  0.00  0.00    +0.139 C 
BRANCH   6   7
ATOM      7  C   UNL     1      -7.947   0.455  -1.044  0.00  0.00    +0.009 A 
ATOM      8  C   UNL     1      -8.093   1.406  -0.034  0.00  0.00    +0.010 A 
ATOM      9  C   UNL     1      -9.341   1.668   0.491  0.00  0.00    +0.001 A 
ATOM     10  C   UNL     1     -10.456   0.985   0.030  0.00  0.00    +0.001 A 
ATOM     11  C   UNL     1     -10.334   0.037  -0.964  0.00  0.00    +0.016 A 
ATOM     12  C   UNL     1      -9.081  -0.240  -1.513  0.00  0.00    +0.072 A 
BRANCH  12  13
ATOM     13  C   UNL     1      -8.944  -1.253  -2.576  0.00  0.00    +0.387 C 
ATOM     14  O   UNL     1      -7.841  -1.569  -2.975  0.00  0.00    -0.241 OA
ATOM     15  O   UNL     1     -10.043  -1.828  -3.104  0.00  0.00    -0.241 OA
ENDBRANCH  12  13
ENDBRANCH   6   7
ENDBRANCH   3   5
BRANCH   1  16
ATOM     16  C   UNL     1      -1.907   1.073  -1.998  0.00  0.00    +0.206 C 
BRANCH  16  18
ATOM     17  C   UNL     1      -0.751   3.332  -2.037  0.00  0.00    +0.132 C 
ATOM     18  N   UNL     1      -0.928   2.007  -1.436  0.00  0.00    -0.171 NA
BRANCH  18  19
ATOM     19  S   UNL     1      -0.023   1.567  -0.121  0.00  0.00    +0.061 S 
ATOM     20  O   UNL     1       0.018   0.146  -0.115  0.00  0.00    -0.153 OA
ATOM     21  O   UNL     1       1.153   2.363  -0.153  0.00  0.00    -0.153 OA
BRANCH  19  22
ATOM     22  C   UNL     1      -0.921   2.051   1.315  0.00  0.00    +0.106 A 
ATOM     23  C   UNL     1      -0.724   3.304   1.864  0.00  0.00    +0.029 A 
ATOM     24  C   UNL     1      -1.432   3.686   2.988  0.00  0.00    +0.017 A 
ATOM     25  C   UNL     1      -2.330   2.810   3.570  0.00  0.00    +0.018 A 
ATOM     26  C   UNL     1      -2.523   1.554   3.024  0.00  0.00    +0.017 A 
ATOM     27  C   UNL     1      -1.819   1.175   1.897  0.00  0.00    +0.029 A 
ATOM     28 BR   UNL     1      -3.293   3.330   5.112  0.00  0.00    -0.050 Br
ENDBRANCH  19  22
ENDBRANCH  18  19
ENDBRANCH  16  18
ENDBRANCH   1  16
TORSDOF 7
