REMARK  Name = ZINC29422313
REMARK  10 active torsions:
REMARK  status: ('A' for Active; 'I' for Inactive)
REMARK    1  A    between atoms: C_1  and  C_2
REMARK    2  A    between atoms: C_2  and  C_3
REMARK    3  A    between atoms: C_2  and  N_4
REMARK    4  A    between atoms: N_4  and  S_5
REMARK    5  A    between atoms: S_5  and  C_8
REMARK    6  A    between atoms: C_8  and  C_9
REMARK    7  A    between atoms: C_12  and  C_15
REMARK    8  A    between atoms: C_15  and  N_16
REMARK    9  A    between atoms: C_17  and  C_19
REMARK   10  A    between atoms: C_19  and  C_20
REMARK                            x       y       z     vdW  Elec       q    Type
REMARK                         _______ _______ _______ _____ _____    ______ ____
ROOT
ATOM      1  N   UNL     1       1.658  -6.604   3.240  0.00  0.00    -0.311 N 
ATOM      2  C   UNL     1       1.827  -7.905   3.549  0.00  0.00    +0.215 C 
ATOM      3  O   UNL     1       1.468  -8.764   2.772  0.00  0.00    -0.276 OA
ATOM      4  H   UNL     1       1.983  -5.825   3.945  0.00  0.00    +0.149 HD
ENDROOT
BRANCH   1   5
ATOM      5  C   UNL     1       1.041  -6.228   1.965  0.00  0.00    +0.139 C 
BRANCH   5   9
ATOM      6  C   UNL     1       0.837  -1.971   1.681  0.00  0.00    -0.025 A 
ATOM      7  C   UNL     1      -0.208  -2.676   2.249  0.00  0.00    +0.005 A 
ATOM      8  C   UNL     1      -0.143  -4.054   2.337  0.00  0.00    +0.005 A 
ATOM      9  C   UNL     1       0.969  -4.726   1.866  0.00  0.00    -0.030 A 
ATOM     10  C   UNL     1       2.016  -4.020   1.303  0.00  0.00    +0.005 A 
ATOM     11  C   UNL     1       1.950  -2.642   1.211  0.00  0.00    +0.005 A 
BRANCH   6  12
ATOM     12  C   UNL     1       0.764  -0.469   1.581  0.00  0.00    +0.220 C 
BRANCH  12  13
ATOM     13  S   UNL     1       0.002  -0.004   0.002  0.00  0.00    +0.034 S 
ATOM     14  O   UNL     1      -1.367  -0.385  -0.012  0.00  0.00    -0.158 OA
ATOM     15  O   UNL     1       0.861  -0.349  -1.076  0.00  0.00    -0.158 OA
BRANCH  13  16
ATOM     16  N   UNL     1      -0.020   1.652   0.011  0.00  0.00    -0.192 NA
ATOM     17  H   UNL     1      -0.971   2.175   0.188  0.00  0.00    +0.148 HD
BRANCH  16  19
ATOM     18  C   UNL     1       1.598   2.778  -1.435  0.00  0.00    +0.025 C 
ATOM     19  C   UNL     1       1.238   2.401   0.003  0.00  0.00    +0.070 C 
ATOM     20  C   UNL     1       1.080   3.673   0.839  0.00  0.00    +0.025 C 
ENDBRANCH  16  19
ENDBRANCH  13  16
ENDBRANCH  12  13
ENDBRANCH   6  12
ENDBRANCH   5   9
ENDBRANCH   1   5
BRANCH   2  21
ATOM     21  C   UNL     1       2.461  -8.292   4.860  0.00  0.00    +0.119 C 
BRANCH  21  22
ATOM     22  C   UNL     1       2.534  -9.817   4.961  0.00  0.00    +0.146 C 
ATOM     23  C   UNL     1       3.053 -10.211   6.319  0.00  0.00    +0.231 C 
ATOM     24  O   UNL     1       2.253 -10.533   7.172  0.00  0.00    -0.274 OA
ATOM     25  N   UNL     1       4.346 -10.223   6.628  0.00  0.00    -0.284 N 
ATOM     26  C   UNL     1       5.410  -9.995   5.761  0.00  0.00    +0.047 A 
ATOM     27  C   UNL     1       6.669  -9.722   6.285  0.00  0.00    +0.024 A 
ATOM     28  C   UNL     1       7.739  -9.487   5.444  0.00  0.00    +0.002 A 
ATOM     29  C   UNL     1       7.574  -9.530   4.072  0.00  0.00    +0.001 A 
ATOM     30  C   UNL     1       6.332  -9.819   3.536  0.00  0.00    +0.016 A 
ATOM     31  C   UNL     1       5.257 -10.059   4.376  0.00  0.00    +0.030 A 
ATOM     32  S   UNL     1       3.676 -10.460   3.700  0.00  0.00    -0.110 S 
ATOM     33  H   UNL     1       4.662 -10.428   7.661  0.00  0.00    +0.155 HD
ENDBRANCH  21  22
ENDBRANCH   2  21
TORSDOF 8
