REMARK  Name = ZINC01761101
REMARK  5 active torsions:
REMARK  status: ('A' for Active; 'I' for Inactive)
REMARK    1  A    between atoms: C_3  and  O_20
REMARK    2  A    between atoms: C_4  and  O_19
REMARK    3  A    between atoms: C_6  and  C_7
REMARK    4  A    between atoms: C_10  and  O_18
REMARK    5  A    between atoms: C_13  and  O_17
REMARK                            x       y       z     vdW  Elec       q    Type
REMARK                         _______ _______ _______ _____ _____    ______ ____
ROOT
ATOM      1  C   UNL     1       0.058  -4.256  -0.026  0.00  0.00    +0.048 A 
ATOM      2  C   UNL     1       0.084  -5.047   1.075  0.00  0.00    +0.040 A 
ATOM      3  C   UNL     1       0.092  -6.432   0.606  0.00  0.00    +0.045 A 
ATOM      4  C   UNL     1       0.113  -7.676   1.254  0.00  0.00    +0.126 A 
ATOM      5  C   UNL     1       0.121  -8.835   0.506  0.00  0.00    +0.050 A 
ATOM      6  C   UNL     1       0.107  -8.776  -0.881  0.00  0.00    +0.051 A 
ATOM      7  C   UNL     1       0.086  -7.559  -1.534  0.00  0.00    +0.141 A 
ATOM      8  C   UNL     1       0.078  -6.373  -0.799  0.00  0.00    +0.092 A 
ATOM      9  N   UNL     1       0.057  -5.041  -1.157  0.00  0.00    -0.351 N 
ATOM     10  H   UNL     1       0.044  -4.708  -2.067  0.00  0.00    +0.166 HD
ENDROOT
BRANCH   1  16
ATOM     11  C   UNL     1       0.018  -2.069  -1.216  0.00  0.00    +0.014 A 
ATOM     12  C   UNL     1      -0.006  -0.689  -1.203  0.00  0.00    +0.050 A 
ATOM     13  C   UNL     1       0.002  -0.004   0.002  0.00  0.00    +0.158 A 
ATOM     14  C   UNL     1       0.023  -0.706   1.206  0.00  0.00    +0.159 A 
ATOM     15  C   UNL     1       0.041  -2.088   1.200  0.00  0.00    +0.059 A 
ATOM     16  C   UNL     1       0.039  -2.778  -0.014  0.00  0.00    +0.002 A 
BRANCH  14  17
ATOM     17  O   UNL     1       0.026  -0.031   2.386  0.00  0.00    -0.503 OA
ATOM     18  H   UNL     1      -0.857   0.153   2.736  0.00  0.00    +0.292 HD
ENDBRANCH  14  17
BRANCH  13  19
ATOM     19  O   UNL     1      -0.016   1.355   0.009  0.00  0.00    -0.503 OA
ATOM     20  H   UNL     1       0.862   1.761   0.003  0.00  0.00    +0.292 HD
ENDBRANCH  13  19
ENDBRANCH   1  16
BRANCH   7  21
ATOM     21  O   UNL     1       0.072  -7.517  -2.894  0.00  0.00    -0.505 OA
ATOM     22  H   UNL     1       0.951  -7.493  -3.296  0.00  0.00    +0.292 HD
ENDBRANCH   7  21
BRANCH   4  23
ATOM     23  O   UNL     1       0.127  -7.738   2.612  0.00  0.00    -0.506 OA
ATOM     24  H   UNL     1       1.014  -7.745   2.997  0.00  0.00    +0.292 HD
ENDBRANCH   4  23
TORSDOF 5
