REMARK  Name = ZINC12873480
REMARK  9 active torsions:
REMARK  status: ('A' for Active; 'I' for Inactive)
REMARK    1  A    between atoms: C_1  and  C_2
REMARK    2  A    between atoms: C_2  and  C_3
REMARK    3  A    between atoms: C_3  and  O_4
REMARK    4  A    between atoms: O_4  and  C_5
REMARK    5  A    between atoms: C_8  and  C_13
REMARK    6  A    between atoms: C_10  and  O_11
REMARK    7  A    between atoms: O_11  and  C_12
REMARK    8  A    between atoms: N_20  and  C_35
REMARK    9  A    between atoms: C_23  and  C_34
REMARK                            x       y       z     vdW  Elec       q    Type
REMARK                         _______ _______ _______ _____ _____    ______ ____
ROOT
ATOM      1  C   UNL     1       1.149   3.596   0.010  0.00  0.00    +0.069 C 
ATOM      2  C   UNL     1       1.861   4.126  -1.240  0.00  0.00    +0.122 C 
ATOM      3  N   UNL     1       3.315   3.950  -1.069  0.00  0.00    -0.280 N 
ATOM      4  C   UNL     1       3.970   3.114  -1.879  0.00  0.00    +0.234 C 
ATOM      5  O   UNL     1       3.369   2.655  -2.827  0.00  0.00    -0.274 OA
ATOM      6  C   UNL     1       5.396   2.708  -1.692  0.00  0.00    +0.204 C 
ATOM      7  N   UNL     1       5.981   3.292  -0.497  0.00  0.00    -0.288 N 
ATOM      8  C   UNL     1       5.355   4.183   0.273  0.00  0.00    +0.246 C 
ATOM      9  O   UNL     1       5.938   4.604   1.249  0.00  0.00    -0.273 OA
ATOM     10  C   UNL     1       3.978   4.693   0.003  0.00  0.00    +0.151 C 
ATOM     11  C   UNL     1       3.124   4.591   1.244  0.00  0.00    +0.054 A 
ATOM     12  C   UNL     1       1.863   4.104   1.236  0.00  0.00    -0.008 A 
ATOM     13  C   UNL     1       1.375   4.173   2.599  0.00  0.00    +0.004 A 
ATOM     14  C   UNL     1       0.159   3.814   3.189  0.00  0.00    +0.010 A 
ATOM     15  C   UNL     1       0.040   4.024   4.540  0.00  0.00    +0.001 A 
ATOM     16  C   UNL     1       1.068   4.566   5.295  0.00  0.00    +0.002 A 
ATOM     17  C   UNL     1       2.281   4.928   4.737  0.00  0.00    +0.026 A 
ATOM     18  C   UNL     1       2.432   4.725   3.366  0.00  0.00    +0.047 A 
ATOM     19  N   UNL     1       3.472   4.963   2.515  0.00  0.00    -0.356 N 
ATOM     20  H   UNL     1       4.329   5.338   2.771  0.00  0.00    +0.166 HD
ATOM     21  C   UNL     1       4.082   6.163  -0.406  0.00  0.00    +0.048 C 
ENDROOT
BRANCH   1  25
ATOM     22  C   UNL     1       1.218  -0.680  -0.013  0.00  0.00    +0.162 A 
ATOM     23  C   UNL     1       2.405   0.035  -0.021  0.00  0.00    +0.050 A 
ATOM     24  C   UNL     1       2.379   1.417  -0.013  0.00  0.00    +0.008 A 
ATOM     25  C   UNL     1       1.171   2.089   0.002  0.00  0.00    -0.035 A 
ATOM     26  C   UNL     1      -0.017   1.381   0.010  0.00  0.00    +0.053 A 
ATOM     27  C   UNL     1       0.002  -0.004   0.002  0.00  0.00    +0.162 A 
BRANCH  27  28
ATOM     28  O   UNL     1      -1.165  -0.702   0.009  0.00  0.00    -0.491 OA
ATOM     29  C   UNL     1      -2.375   0.059   0.024  0.00  0.00    +0.277 C 
ENDBRANCH  27  28
BRANCH  22  30
ATOM     30  O   UNL     1       1.242  -2.040  -0.021  0.00  0.00    -0.488 OA
BRANCH  30  31
ATOM     31  C   UNL     1       2.526  -2.666  -0.037  0.00  0.00    +0.229 C 
BRANCH  31  33
ATOM     32  C   UNL     1       3.727  -4.857  -0.060  0.00  0.00    +0.007 C 
ATOM     33  C   UNL     1       2.352  -4.186  -0.044  0.00  0.00    +0.038 C 
ENDBRANCH  31  33
ENDBRANCH  30  31
ENDBRANCH  22  30
ENDBRANCH   1  25
BRANCH   7  34
ATOM     34  C   UNL     1       7.334   2.880  -0.116  0.00  0.00    +0.077 C 
ATOM     35  C   UNL     1       8.320   3.177  -1.265  0.00  0.00    +0.022 C 
ATOM     36  C   UNL     1       9.306   1.982  -1.236  0.00  0.00    +0.002 C 
ATOM     37  C   UNL     1       8.385   0.785  -0.897  0.00  0.00    +0.002 C 
ATOM     38  C   UNL     1       7.376   1.360   0.118  0.00  0.00    +0.022 C 
ENDBRANCH   7  34
TORSDOF 6
