REMARK  Name = ZINC66811803
REMARK  4 active torsions:
REMARK  status: ('A' for Active; 'I' for Inactive)
REMARK    1  A    between atoms: C_6  and  C_7
REMARK    2  A    between atoms: C_11  and  N_13
REMARK    3  A    between atoms: N_13  and  C_14
REMARK    4  A    between atoms: C_20  and  O_22
REMARK                            x       y       z     vdW  Elec       q    Type
REMARK                         _______ _______ _______ _____ _____    ______ ____
ROOT
ATOM      1  C   UNL     1      -1.261  -0.784   0.010  0.00  0.00    +0.162 A 
ATOM      2  N   UNL     1      -1.202  -2.107   0.008  0.00  0.00    -0.232 NA
ATOM      3  C   UNL     1      -2.307  -2.839   0.016  0.00  0.00    +0.050 A 
ATOM      4  C   UNL     1      -3.534  -2.204   0.026  0.00  0.00    +0.014 A 
ATOM      5  C   UNL     1      -3.565  -0.808   0.028  0.00  0.00    +0.126 A 
ATOM      6  N   UNL     1      -2.418  -0.138   0.025  0.00  0.00    -0.213 NA
ATOM      7  C   UNL     1      -4.644  -3.229   0.033  0.00  0.00    +0.041 C 
ATOM      8  C   UNL     1      -3.977  -4.549  -0.410  0.00  0.00    +0.011 C 
ATOM      9  C   UNL     1      -2.508  -4.338   0.016  0.00  0.00    +0.056 C 
ENDROOT
BRANCH   1  15
ATOM     10  C   UNL     1      -0.017   1.393   0.010  0.00  0.00    +0.031 A 
ATOM     11  C   UNL     1       1.181   2.079   0.002  0.00  0.00    +0.111 A 
ATOM     12  N   UNL     1       2.331   1.433  -0.013  0.00  0.00    -0.263 NA
ATOM     13  C   UNL     1       2.393   0.116  -0.020  0.00  0.00    +0.111 A 
ATOM     14  C   UNL     1       1.242  -0.647  -0.013  0.00  0.00    +0.031 A 
ATOM     15  C   UNL     1       0.002  -0.004   0.002  0.00  0.00    +0.022 A 
ENDBRANCH   1  15
BRANCH   5  16
ATOM     16  N   UNL     1      -4.775  -0.132   0.038  0.00  0.00    -0.323 N 
ATOM     17  H   UNL     1      -5.608  -0.628   0.043  0.00  0.00    +0.148 HD
BRANCH  16  18
ATOM     18  C   UNL     1      -4.795   1.333   0.040  0.00  0.00    +0.100 C 
ATOM     19  C   UNL     1      -4.687   1.847  -1.397  0.00  0.00    +0.025 C 
ATOM     20  C   UNL     1      -4.708   3.377  -1.395  0.00  0.00    +0.002 C 
ATOM     21  C   UNL     1      -6.018   3.868  -0.775  0.00  0.00    +0.003 C 
ATOM     22  C   UNL     1      -6.126   3.354   0.662  0.00  0.00    +0.033 C 
ATOM     23  C   UNL     1      -6.105   1.824   0.660  0.00  0.00    +0.135 C 
BRANCH  23  24
ATOM     24  O   UNL     1      -7.207   1.334  -0.105  0.00  0.00    -0.390 OA
ATOM     25  H   UNL     1      -8.072   1.607   0.231  0.00  0.00    +0.210 HD
ENDBRANCH  23  24
ENDBRANCH  16  18
ENDBRANCH   5  16
TORSDOF 4
