REMARK  Name = ZINC39890269
REMARK  8 active torsions:
REMARK  status: ('A' for Active; 'I' for Inactive)
REMARK    1  A    between atoms: C_1  and  C_2
REMARK    2  A    between atoms: C_7  and  C_8
REMARK    3  A    between atoms: C_8  and  N_9
REMARK    4  A    between atoms: N_32  and  C_33
REMARK    5  A    between atoms: C_33  and  C_34
REMARK    6  A    between atoms: C_34  and  C_35
REMARK    7  A    between atoms: C_35  and  O_36
REMARK    8  A    between atoms: O_36  and  C_37
REMARK                            x       y       z     vdW  Elec       q    Type
REMARK                         _______ _______ _______ _____ _____    ______ ____
ROOT
ATOM      1  N   UNL     1      -1.244   0.856   2.611  0.00  0.00    -0.264 N 
ATOM      2  C   UNL     1      -1.628   2.072   2.074  0.00  0.00    +0.043 A 
ATOM      3  C   UNL     1      -0.910   2.945   1.256  0.00  0.00    +0.024 A 
ATOM      4  C   UNL     1      -1.548   4.110   0.858  0.00  0.00    +0.002 A 
ATOM      5  C   UNL     1      -2.838   4.405   1.247  0.00  0.00    +0.000 A 
ATOM      6  C   UNL     1      -3.565   3.544   2.062  0.00  0.00    +0.008 A 
ATOM      7  C   UNL     1      -2.937   2.384   2.463  0.00  0.00    +0.011 A 
ATOM      8  C   UNL     1      -3.397   1.253   3.324  0.00  0.00    +0.174 C 
ATOM      9  C   UNL     1      -2.223   0.299   3.355  0.00  0.00    +0.253 C 
ATOM     10  O   UNL     1      -2.171  -0.762   3.939  0.00  0.00    -0.272 OA
ATOM     11  C   UNL     1      -4.620   0.588   2.797  0.00  0.00    +0.084 A 
ATOM     12  C   UNL     1      -4.903  -0.048   1.506  0.00  0.00    +0.199 A 
ATOM     13  O   UNL     1      -4.045  -0.268   0.670  0.00  0.00    -0.287 OA
ATOM     14  C   UNL     1      -6.333  -0.400   1.314  0.00  0.00    +0.067 A 
ATOM     15  C   UNL     1      -6.791  -0.835   0.071  0.00  0.00    +0.053 A 
ATOM     16  C   UNL     1      -8.123  -1.155  -0.091  0.00  0.00    +0.124 A 
ATOM     17  C   UNL     1      -9.001  -1.042   0.981  0.00  0.00    +0.042 A 
ATOM     18  C   UNL     1      -8.558  -0.614   2.212  0.00  0.00    +0.050 A 
ATOM     19  C   UNL     1      -7.215  -0.286   2.401  0.00  0.00    +0.140 A 
ATOM     20  O   UNL     1      -6.806   0.122   3.624  0.00  0.00    -0.450 OA
ATOM     21  C   UNL     1      -5.574   0.647   3.775  0.00  0.00    +0.200 A 
ATOM     22  C   UNL     1      -5.002   1.351   4.937  0.00  0.00    +0.284 C 
ATOM     23  O   UNL     1      -5.592   1.576   5.975  0.00  0.00    -0.267 OA
ATOM     24  N   UNL     1      -3.726   1.709   4.679  0.00  0.00    -0.273 N 
ATOM     25  F   UNL     1      -8.575  -1.577  -1.292  0.00  0.00    -0.205 F 
ENDROOT
BRANCH   1  26
ATOM     26  C   UNL     1       0.068   0.242   2.394  0.00  0.00    +0.149 C 
BRANCH  26  33
ATOM     27  C   UNL     1       2.795  -0.712   2.413  0.00  0.00    +0.044 C 
ATOM     28  C   UNL     1       2.361   0.348   3.392  0.00  0.00    -0.046 A 
ATOM     29  C   UNL     1       3.269   0.869   4.296  0.00  0.00    +0.003 A 
ATOM     30  C   UNL     1       2.870   1.841   5.193  0.00  0.00    +0.000 A 
ATOM     31  C   UNL     1       1.564   2.294   5.187  0.00  0.00    +0.000 A 
ATOM     32  C   UNL     1       0.657   1.774   4.284  0.00  0.00    +0.005 A 
ATOM     33  C   UNL     1       1.056   0.805   3.383  0.00  0.00    -0.027 A 
ENDBRANCH  26  33
ENDBRANCH   1  26
BRANCH  24  34
ATOM     34  C   UNL     1      -2.829   2.425   5.590  0.00  0.00    +0.112 C 
BRANCH  34  35
ATOM     35  C   UNL     1      -2.883   3.923   5.285  0.00  0.00    +0.047 C 
BRANCH  35  36
ATOM     36  C   UNL     1      -1.946   4.671   6.236  0.00  0.00    +0.161 C 
BRANCH  36  37
ATOM     37  O   UNL     1      -1.996   6.071   5.951  0.00  0.00    -0.383 OA
ATOM     38  C   UNL     1      -1.153   6.865   6.788  0.00  0.00    +0.193 C 
ENDBRANCH  36  37
ENDBRANCH  35  36
ENDBRANCH  34  35
ENDBRANCH  24  34
TORSDOF 6
