REMARK  Name = ZINC06780766
REMARK  5 active torsions:
REMARK  status: ('A' for Active; 'I' for Inactive)
REMARK    1  A    between atoms: C_2  and  C_3
REMARK    2  A    between atoms: C_3  and  N_4
REMARK    3  A    between atoms: C_8  and  N_9
REMARK    4  A    between atoms: N_9  and  N_10
REMARK    5  A    between atoms: C_16  and  O_20
REMARK                            x       y       z     vdW  Elec       q    Type
REMARK                         _______ _______ _______ _____ _____    ______ ____
ROOT
ATOM      1  N   UNL     1      -0.016   1.336   0.028  0.00  0.00    -0.216 N 
ATOM      2  C   UNL     1       1.131   2.049   0.025  0.00  0.00    +0.261 C 
ATOM      3  O   UNL     1       1.115   3.265   0.053  0.00  0.00    -0.269 OA
ATOM      4  C   UNL     1       2.403   1.305  -0.016  0.00  0.00    +0.111 C 
ATOM      5  C   UNL     1       3.625   1.960  -0.023  0.00  0.00    +0.102 C 
ATOM      6  C   UNL     1       2.318  -0.161  -0.049  0.00  0.00    +0.219 C 
ATOM      7  N   UNL     1       1.120  -0.724  -0.042  0.00  0.00    -0.127 NA
ATOM      8  C   UNL     1       0.002  -0.004  -0.004  0.00  0.00    +0.336 C 
ATOM      9  O   UNL     1      -1.063  -0.595   0.000  0.00  0.00    -0.250 OA
ENDROOT
BRANCH   5  10
ATOM     10  N   UNL     1       3.670   3.302  -0.117  0.00  0.00    -0.284 N 
ATOM     11  H   UNL     1       2.847   3.816  -0.107  0.00  0.00    +0.166 HD
BRANCH  10  12
ATOM     12  N   UNL     1       4.872   3.939  -0.229  0.00  0.00    -0.230 NA
ATOM     13  C   UNL     1       5.124   4.795   0.937  0.00  0.00    +0.105 C 
ATOM     14  C   UNL     1       6.537   5.378   0.849  0.00  0.00    +0.017 C 
ATOM     15  C   UNL     1       6.668   6.190  -0.442  0.00  0.00    +0.003 C 
ATOM     16  C   UNL     1       6.354   5.288  -1.639  0.00  0.00    +0.017 C 
ATOM     17  C   UNL     1       4.947   4.708  -1.478  0.00  0.00    +0.105 C 
ENDBRANCH  10  12
ENDBRANCH   5  10
BRANCH   6  18
ATOM     18  O   UNL     1       3.435  -0.917  -0.087  0.00  0.00    -0.493 OA
ATOM     19  H   UNL     1       3.266  -1.869  -0.106  0.00  0.00    +0.294 HD
ENDBRANCH   6  18
BRANCH   1  20
ATOM     20  C   UNL     1      -1.301   2.039   0.061  0.00  0.00    +0.145 C 
BRANCH  20  22
ATOM     21  C   UNL     1      -2.001   3.450   1.926  0.00  0.00    +0.005 C 
ATOM     22  C   UNL     1      -1.723   2.246   1.493  0.00  0.00    -0.015 C 
ENDBRANCH  20  22
ENDBRANCH   1  20
TORSDOF 5
