REMARK  Name = ZINC12313055
REMARK  9 active torsions:
REMARK  status: ('A' for Active; 'I' for Inactive)
REMARK    1  A    between atoms: C_1  and  C_2
REMARK    2  A    between atoms: C_5  and  N_12
REMARK    3  A    between atoms: C_8  and  C_10
REMARK    4  A    between atoms: C_8  and  C_11
REMARK    5  A    between atoms: C_13  and  C_15
REMARK    6  A    between atoms: N_17  and  C_18
REMARK    7  A    between atoms: N_22  and  C_23
REMARK    8  A    between atoms: C_26  and  O_29
REMARK    9  A    between atoms: O_29  and  C_30
REMARK                            x       y       z     vdW  Elec       q    Type
REMARK                         _______ _______ _______ _____ _____    ______ ____
ROOT
ATOM      1  C   UNL     1      -2.591   7.342   2.510  0.00  0.00    +0.304 C 
ATOM      2  O   UNL     1      -1.744   8.039   3.031  0.00  0.00    -0.265 OA
ATOM      3  N   UNL     1      -3.522   7.898   1.710  0.00  0.00    -0.262 N 
ATOM      4  H   UNL     1      -4.165   7.336   1.251  0.00  0.00    +0.157 HD
ENDROOT
BRANCH   3   5
ATOM      5  C   UNL     1      -3.562   9.279   1.544  0.00  0.00    +0.133 A 
ATOM      6  C   UNL     1      -2.495  10.143   1.655  0.00  0.00    +0.026 A 
ATOM      7  C   UNL     1      -2.961  11.424   1.413  0.00  0.00    +0.079 A 
ATOM      8  N   UNL     1      -4.263  11.356   1.172  0.00  0.00    -0.168 NA
ATOM      9  N   UNL     1      -4.660  10.020   1.249  0.00  0.00    -0.218 N 
ATOM     10  C   UNL     1      -1.934  12.553   1.481  0.00  0.00    +0.127 C 
ATOM     11  S   UNL     1      -0.348  11.624   1.397  0.00  0.00    -0.150 S 
ATOM     12  C   UNL     1      -1.004   9.998   1.952  0.00  0.00    +0.110 C 
BRANCH   9  13
ATOM     13  C   UNL     1      -5.960   9.531   1.057  0.00  0.00    +0.068 A 
ATOM     14  C   UNL     1      -6.163   8.363   0.333  0.00  0.00    +0.031 A 
ATOM     15  C   UNL     1      -7.443   7.879   0.148  0.00  0.00    +0.048 A 
ATOM     16  C   UNL     1      -8.527   8.566   0.676  0.00  0.00    +0.120 A 
ATOM     17  C   UNL     1      -8.325   9.735   1.395  0.00  0.00    +0.048 A 
ATOM     18  C   UNL     1      -7.046  10.217   1.585  0.00  0.00    +0.031 A 
BRANCH  16  19
ATOM     19  O   UNL     1      -9.788   8.092   0.488  0.00  0.00    -0.495 OA
ATOM     20  C   UNL     1      -9.922   6.883  -0.261  0.00  0.00    +0.277 C 
ENDBRANCH  16  19
ENDBRANCH   9  13
ENDBRANCH   3   5
BRANCH   1  22
ATOM     21  N   UNL     1      -1.669   5.314   3.555  0.00  0.00    -0.305 N 
ATOM     22  C   UNL     1      -2.600   5.870   2.756  0.00  0.00    +0.300 C 
ATOM     23  O   UNL     1      -3.447   5.173   2.235  0.00  0.00    -0.265 OA
ATOM     24  H   UNL     1      -0.992   5.870   3.971  0.00  0.00    +0.149 HD
BRANCH  21  28
ATOM     25  C   UNL     1      -0.179   0.940   1.796  0.00  0.00    +0.007 C 
ATOM     26  C   UNL     1      -0.933   1.650   2.922  0.00  0.00    -0.012 C 
ATOM     27  C   UNL     1      -0.924   3.159   2.670  0.00  0.00    +0.025 C 
ATOM     28  C   UNL     1      -1.678   3.869   3.796  0.00  0.00    +0.074 C 
ATOM     29  C   UNL     1      -0.997   3.570   5.134  0.00  0.00    +0.028 C 
ATOM     30  C   UNL     1      -1.007   2.061   5.385  0.00  0.00    -0.033 C 
ATOM     31  C   UNL     1      -0.253   1.351   4.259  0.00  0.00    +0.009 C 
ATOM     32  C   UNL     1      -2.452   1.560   5.426  0.00  0.00    +0.011 C 
ATOM     33  C   UNL     1      -0.326   1.763   6.723  0.00  0.00    +0.011 C 
ENDBRANCH  21  28
ENDBRANCH   1  22
TORSDOF 5
