REMARK  Name = ZINC49209502
REMARK  4 active torsions:
REMARK  status: ('A' for Active; 'I' for Inactive)
REMARK    1  A    between atoms: C_1  and  N_2
REMARK    2  A    between atoms: C_6  and  C_7
REMARK    3  A    between atoms: C_7  and  N_8
REMARK    4  A    between atoms: C_14  and  C_17
REMARK                            x       y       z     vdW  Elec       q    Type
REMARK                         _______ _______ _______ _____ _____    ______ ____
ROOT
ATOM      1  N   UNL     1      -1.346  -0.281   3.008  0.00  0.00    -0.292 N 
ATOM      2  C   UNL     1      -1.585   0.089   4.282  0.00  0.00    +0.306 C 
ATOM      3  O   UNL     1      -0.657   0.324   5.031  0.00  0.00    -0.252 OA
ATOM      4  N   UNL     1      -2.853   0.199   4.725  0.00  0.00    -0.248 N 
ATOM      5  C   UNL     1      -3.100   0.580   6.039  0.00  0.00    +0.166 A 
ATOM      6  N   UNL     1      -4.258   0.733   6.642  0.00  0.00    -0.229 NA
ATOM      7  C   UNL     1      -4.325   1.105   7.907  0.00  0.00    +0.054 A 
ATOM      8  C   UNL     1      -3.151   1.319   8.549  0.00  0.00    +0.072 A 
ATOM      9  S   UNL     1      -1.987   0.952   7.246  0.00  0.00    -0.060 S 
ATOM     10  H   UNL     1      -2.087  -0.468   2.410  0.00  0.00    +0.151 HD
ATOM     11  H   UNL     1      -3.594   0.011   4.127  0.00  0.00    +0.158 HD
ENDROOT
BRANCH   7  12
ATOM     12  C   UNL     1      -5.648   1.283   8.607  0.00  0.00    +0.038 C 
ATOM     13  C   UNL     1      -5.638   1.335  10.136  0.00  0.00    +0.010 C 
ATOM     14  C   UNL     1      -6.184   0.100   9.416  0.00  0.00    +0.010 C 
ENDBRANCH   7  12
BRANCH   1  15
ATOM     15  C   UNL     1       0.032  -0.400   2.526  0.00  0.00    +0.182 C 
BRANCH  15  21
ATOM     16  C   UNL     1      -0.018   1.461   0.010  0.00  0.00    +0.151 C 
ATOM     17  N   UNL     1       0.002  -0.004   0.002  0.00  0.00    -0.319 N 
ATOM     18  C   UNL     1       0.009  -0.813  -1.085  0.00  0.00    +0.224 A 
ATOM     19  N   UNL     1       0.027  -2.044  -0.652  0.00  0.00    -0.138 NA
ATOM     20  N   UNL     1       0.032  -2.051   0.634  0.00  0.00    -0.133 NA
ATOM     21  C   UNL     1       0.024  -0.825   1.080  0.00  0.00    +0.150 A 
ENDBRANCH  15  21
ENDBRANCH   1  15
TORSDOF 3
