REMARK  Name = ZINC49041050
REMARK  7 active torsions:
REMARK  status: ('A' for Active; 'I' for Inactive)
REMARK    1  A    between atoms: C_1  and  C_2
REMARK    2  A    between atoms: C_4  and  C_7
REMARK    3  A    between atoms: C_13  and  C_15
REMARK    4  A    between atoms: C_15  and  C_17
REMARK    5  A    between atoms: C_15  and  N_18
REMARK    6  A    between atoms: N_18  and  S_19
REMARK    7  A    between atoms: S_19  and  C_22
REMARK                            x       y       z     vdW  Elec       q    Type
REMARK                         _______ _______ _______ _____ _____    ______ ____
ROOT
ATOM      1  C   UNL     1       0.039  -3.320  -1.631  0.00  0.00    +0.145 C 
ATOM      2  C   UNL     1      -1.374  -3.936  -1.699  0.00  0.00    +0.032 C 
ATOM      3  C   UNL     1      -1.088  -5.461  -1.706  0.00  0.00    +0.021 C 
ATOM      4  C   UNL     1       0.145  -5.551  -0.773  0.00  0.00    +0.108 C 
ATOM      5  N   UNL     1       0.939  -4.342  -1.077  0.00  0.00    -0.290 N 
ATOM      6  C   UNL     1       2.264  -4.199  -0.881  0.00  0.00    +0.234 C 
ATOM      7  O   UNL     1       2.811  -3.156  -1.169  0.00  0.00    -0.274 OA
ENDROOT
BRANCH   1  11
ATOM      8  C   UNL     1      -0.018   1.503   0.010  0.00  0.00    +0.069 C 
ATOM      9  C   UNL     1       0.002  -0.004   0.002  0.00  0.00    +0.081 A 
ATOM     10  C   UNL     1       0.008  -0.824  -1.141  0.00  0.00    +0.072 A 
ATOM     11  C   UNL     1       0.027  -2.108  -0.735  0.00  0.00    +0.158 A 
ATOM     12  O   UNL     1       0.034  -2.119   0.606  0.00  0.00    -0.357 OA
ATOM     13  N   UNL     1       0.023  -0.775   1.052  0.00  0.00    -0.083 NA
ENDBRANCH   1  11
BRANCH   6  14
ATOM     14  C   UNL     1       3.067  -5.335  -0.302  0.00  0.00    +0.159 C 
ATOM     15  C   UNL     1       2.525  -5.690   1.084  0.00  0.00    +0.035 C 
BRANCH  14  16
ATOM     16  N   UNL     1       4.471  -4.933  -0.188  0.00  0.00    -0.183 NA
ATOM     17  H   UNL     1       4.697  -4.016   0.032  0.00  0.00    +0.148 HD
BRANCH  16  18
ATOM     18  S   UNL     1       5.674  -6.044  -0.436  0.00  0.00    +0.027 S 
ATOM     19  O   UNL     1       6.881  -5.325  -0.225  0.00  0.00    -0.158 OA
ATOM     20  O   UNL     1       5.330  -7.143   0.397  0.00  0.00    -0.158 OA
ATOM     21  C   UNL     1       5.523  -6.513  -2.182  0.00  0.00    +0.214 C 
ENDBRANCH  16  18
ENDBRANCH  14  16
ENDBRANCH   6  14
TORSDOF 4
