REMARK  Name = ZINC41328309
REMARK  10 active torsions:
REMARK  status: ('A' for Active; 'I' for Inactive)
REMARK    1  A    between atoms: C_1  and  C_2
REMARK    2  A    between atoms: C_5  and  N_27
REMARK    3  A    between atoms: C_7  and  N_8
REMARK    4  A    between atoms: C_9  and  C_11
REMARK    5  A    between atoms: N_13  and  C_14
REMARK    6  A    between atoms: C_14  and  C_15
REMARK    7  A    between atoms: C_15  and  C_17
REMARK    8  A    between atoms: C_15  and  N_20
REMARK    9  A    between atoms: C_17  and  C_18
REMARK   10  A    between atoms: C_17  and  C_19
REMARK                            x       y       z     vdW  Elec       q    Type
REMARK                         _______ _______ _______ _____ _____    ______ ____
ROOT
ATOM      1  C   UNL     1      -0.008  -0.185   4.837  0.00  0.00    +0.299 C 
ATOM      2  O   UNL     1       0.410   0.954   4.803  0.00  0.00    -0.265 OA
ATOM      3  N   UNL     1      -0.324  -0.751   6.018  0.00  0.00    -0.309 N 
ATOM      4  H   UNL     1      -0.658  -1.662   6.045  0.00  0.00    +0.149 HD
ENDROOT
BRANCH   1   6
ATOM      5  N   UNL     1       0.144  -0.392   2.388  0.00  0.00    -0.277 N 
ATOM      6  C   UNL     1      -0.172  -0.958   3.570  0.00  0.00    +0.303 C 
ATOM      7  O   UNL     1      -0.590  -2.097   3.604  0.00  0.00    -0.265 OA
ATOM      8  H   UNL     1       0.549   0.489   2.366  0.00  0.00    +0.155 HD
BRANCH   5  15
ATOM      9  C   UNL     1      -0.582   1.134   0.099  0.00  0.00    +0.045 C 
ATOM     10  C   UNL     1      -0.469  -0.368   0.054  0.00  0.00    -0.029 A 
ATOM     11  C   UNL     1      -0.716  -1.045  -1.125  0.00  0.00    +0.007 A 
ATOM     12  C   UNL     1      -0.613  -2.423  -1.167  0.00  0.00    +0.033 A 
ATOM     13  C   UNL     1      -0.263  -3.129  -0.030  0.00  0.00    +0.128 A 
ATOM     14  C   UNL     1      -0.015  -2.459   1.151  0.00  0.00    +0.056 A 
ATOM     15  C   UNL     1      -0.112  -1.073   1.196  0.00  0.00    +0.039 A 
BRANCH  13  16
ATOM     16  N   UNL     1      -0.154  -4.604  -0.080  0.00  0.00    +0.056 N 
ATOM     17  O   UNL     1      -0.371  -5.192  -1.115  0.00  0.00    -0.126 OA
ATOM     18  O   UNL     1       0.151  -5.222   0.913  0.00  0.00    -0.126 OA
ENDBRANCH  13  16
ENDBRANCH   5  15
ENDBRANCH   1   6
BRANCH   3  19
ATOM     19  C   UNL     1      -0.163   0.007   7.261  0.00  0.00    +0.089 C 
BRANCH  19  20
ATOM     20  C   UNL     1      -0.461  -0.901   8.455  0.00  0.00    -0.049 C 
BRANCH  20  21
ATOM     21  N   UNL     1       0.437  -2.063   8.423  0.00  0.00    +0.383 N 
ATOM     22  C   UNL     1      -0.071  -3.081   9.363  0.00  0.00    -0.078 C 
ATOM     23  C   UNL     1       0.432  -4.431   8.918  0.00  0.00    -0.019 C 
ATOM     24  C   UNL     1       1.712  -4.832   9.675  0.00  0.00    -0.002 C 
ATOM     25  C   UNL     1       2.672  -3.638   9.849  0.00  0.00    -0.002 C 
ATOM     26  C   UNL     1       2.758  -2.784   8.610  0.00  0.00    -0.019 C 
ATOM     27  C   UNL     1       1.733  -1.636   8.716  0.00  0.00    -0.078 C 
ATOM     28  H   UNL     1       0.428  -2.452   7.492  0.00  0.00    -0.081 HD
ENDBRANCH  20  21
BRANCH  20  29
ATOM     29  C   UNL     1      -0.242  -0.124   9.755  0.00  0.00    -0.029 C 
ATOM     30  C   UNL     1      -0.080  -1.107  10.916  0.00  0.00    +0.005 C 
ATOM     31  C   UNL     1       1.021   0.731   9.630  0.00  0.00    +0.005 C 
ENDBRANCH  20  29
ENDBRANCH  19  20
ENDBRANCH   3  19
TORSDOF 7
