REMARK  Name = ZINC39920646
REMARK  5 active torsions:
REMARK  status: ('A' for Active; 'I' for Inactive)
REMARK    1  A    between atoms: C_4  and  O_7
REMARK    2  A    between atoms: O_7  and  C_8
REMARK    3  A    between atoms: C_8  and  C_9
REMARK    4  A    between atoms: N_11  and  N_12
REMARK    5  A    between atoms: C_13  and  C_25
REMARK                            x       y       z     vdW  Elec       q    Type
REMARK                         _______ _______ _______ _____ _____    ______ ____
ROOT
ATOM      1  N   UNL     1       6.430  -4.465  -0.086  0.00  0.00    -0.188 N 
ATOM      2  C   UNL     1       6.966  -5.025  -1.328  0.00  0.00    +0.247 C 
ATOM      3  N   UNL     1       8.412  -4.790  -1.409  0.00  0.00    -0.318 N 
ATOM      4  C   UNL     1       9.189  -4.996  -0.274  0.00  0.00    +0.041 A 
ATOM      5  C   UNL     1      10.519  -5.372  -0.360  0.00  0.00    +0.025 A 
ATOM      6  C   UNL     1      11.255  -5.554   0.795  0.00  0.00    +0.017 A 
ATOM      7  C   UNL     1      10.672  -5.362   2.039  0.00  0.00    +0.019 A 
ATOM      8  C   UNL     1       9.347  -4.991   2.142  0.00  0.00    +0.030 A 
ATOM      9  C   UNL     1       8.593  -4.809   0.984  0.00  0.00    +0.060 A 
ATOM     10  C   UNL     1       7.170  -4.433   1.040  0.00  0.00    +0.267 C 
ATOM     11  O   UNL     1       6.665  -4.100   2.095  0.00  0.00    -0.268 OA
ATOM     12 BR   UNL     1      11.701  -5.611   3.606  0.00  0.00    -0.050 Br
ATOM     13  H   UNL     1       8.819  -4.498  -2.240  0.00  0.00    +0.148 HD
ENDROOT
BRANCH   2  14
ATOM     14  C   UNL     1       6.702  -6.508  -1.361  0.00  0.00    +0.145 A 
ATOM     15  C   UNL     1       7.470  -7.430  -1.969  0.00  0.00    +0.048 A 
ATOM     16  C   UNL     1       6.855  -8.684  -1.750  0.00  0.00    +0.041 A 
ATOM     17  C   UNL     1       5.748  -8.454  -1.021  0.00  0.00    +0.195 A 
ATOM     18  O   UNL     1       5.664  -7.134  -0.784  0.00  0.00    -0.464 OA
ENDBRANCH   2  14
BRANCH   1  21
ATOM     19  C   UNL     1       4.932  -2.615  -0.061  0.00  0.00    +0.267 C 
ATOM     20  O   UNL     1       5.883  -1.863  -0.067  0.00  0.00    -0.271 OA
ATOM     21  N   UNL     1       5.128  -3.949  -0.070  0.00  0.00    -0.227 N 
ATOM     22  H   UNL     1       4.368  -4.551  -0.066  0.00  0.00    +0.173 HD
BRANCH  19  23
ATOM     23  C   UNL     1       3.531  -2.060  -0.044  0.00  0.00    +0.326 C 
BRANCH  23  24
ATOM     24  O   UNL     1       3.586  -0.632  -0.037  0.00  0.00    -0.483 OA
BRANCH  24  28
ATOM     25  C   UNL     1      -0.017   1.378   0.010  0.00  0.00    +0.000 A 
ATOM     26  C   UNL     1       1.170   2.088   0.002  0.00  0.00    +0.004 A 
ATOM     27  C   UNL     1       2.377   1.417  -0.013  0.00  0.00    +0.045 A 
ATOM     28  C   UNL     1       2.399   0.030  -0.021  0.00  0.00    +0.121 A 
ATOM     29  C   UNL     1       1.207  -0.680  -0.013  0.00  0.00    +0.045 A 
ATOM     30  C   UNL     1       0.002  -0.004   0.002  0.00  0.00    +0.004 A 
ENDBRANCH  24  28
ENDBRANCH  23  24
ENDBRANCH  19  23
ENDBRANCH   1  21
TORSDOF 5
