REMARK  Name = ZINC42535851
REMARK  5 active torsions:
REMARK  status: ('A' for Active; 'I' for Inactive)
REMARK    1  A    between atoms: C_1  and  C_2
REMARK    2  A    between atoms: C_2  and  C_4
REMARK    3  A    between atoms: C_2  and  N_12
REMARK    4  A    between atoms: N_15  and  S_18
REMARK    5  A    between atoms: S_18  and  C_21
REMARK                            x       y       z     vdW  Elec       q    Type
REMARK                         _______ _______ _______ _____ _____    ______ ____
ROOT
ATOM      1  C   UNL     1      -0.019   1.526   0.010  0.00  0.00    +0.034 C 
ATOM      2  C   UNL     1       0.002  -0.004   0.002  0.00  0.00    +0.140 C 
ENDROOT
BRANCH   2   3
ATOM      3  C   UNL     1       0.731  -0.503   1.223  0.00  0.00    +0.236 C 
ATOM      4  O   UNL     1       1.725  -1.187   1.099  0.00  0.00    -0.274 OA
ATOM      5  N   UNL     1       0.278  -0.191   2.453  0.00  0.00    -0.263 N 
ATOM      6  C   UNL     1       0.950  -0.651   3.579  0.00  0.00    +0.164 A 
ATOM      7  N   UNL     1       2.037  -1.390   3.637  0.00  0.00    -0.233 NA
ATOM      8  C   UNL     1       2.558  -1.748   4.796  0.00  0.00    +0.120 A 
ATOM      9  C   UNL     1       1.923  -1.319   5.915  0.00  0.00    +0.068 A 
ATOM     10  S   UNL     1       0.576  -0.392   5.199  0.00  0.00    -0.061 S 
ATOM     11  H   UNL     1      -0.517   0.356   2.553  0.00  0.00    +0.157 HD
ENDBRANCH   2   3
BRANCH   2  12
ATOM     12  N   UNL     1       0.690  -0.478  -1.207  0.00  0.00    -0.289 NA
ATOM     13  C   UNL     1       2.069   0.026  -1.259  0.00  0.00    +0.102 C 
ATOM     14  C   UNL     1       2.805  -0.632  -2.431  0.00  0.00    +0.124 C 
ATOM     15  N   UNL     1       2.018  -0.420  -3.656  0.00  0.00    -0.179 NA
ATOM     16  C   UNL     1       0.590  -0.774  -3.635  0.00  0.00    +0.124 C 
ATOM     17  C   UNL     1      -0.059  -0.110  -2.416  0.00  0.00    +0.102 C 
BRANCH  15  18
ATOM     18  S   UNL     1       2.720   0.201  -5.021  0.00  0.00    +0.029 S 
ATOM     19  O   UNL     1       1.656   0.825  -5.725  0.00  0.00    -0.158 OA
ATOM     20  O   UNL     1       3.822   0.964  -4.547  0.00  0.00    -0.158 OA
ATOM     21  C   UNL     1       3.312  -1.247  -5.940  0.00  0.00    +0.215 C 
ENDBRANCH  15  18
ENDBRANCH   2  12
TORSDOF 3
