REMARK  Name = ZINC12309532
REMARK  10 active torsions:
REMARK  status: ('A' for Active; 'I' for Inactive)
REMARK    1  A    between atoms: C_1  and  C_2
REMARK    2  A    between atoms: C_2  and  C_3
REMARK    3  A    between atoms: C_9  and  N_10
REMARK    4  A    between atoms: N_10  and  O_11
REMARK    5  A    between atoms: O_11  and  C_12
REMARK    6  A    between atoms: C_12  and  C_13
REMARK    7  A    between atoms: C_15  and  C_20
REMARK    8  A    between atoms: C_18  and  C_19
REMARK    9  A    between atoms: N_23  and  C_28
REMARK   10  A    between atoms: N_26  and  C_27
REMARK                            x       y       z     vdW  Elec       q    Type
REMARK                         _______ _______ _______ _____ _____    ______ ____
ROOT
ATOM      1  C   UNL     1      -1.377   5.990  -0.471  0.00  0.00    -0.006 A 
ATOM      2  C   UNL     1      -2.485   5.232  -0.450  0.00  0.00    +0.090 A 
ATOM      3  N   UNL     1      -2.470   3.943   0.012  0.00  0.00    -0.347 N 
ATOM      4  H   UNL     1      -3.416   3.427   0.236  0.00  0.00    +0.167 HD
ATOM      5  C   UNL     1      -1.311   3.260   0.210  0.00  0.00    +0.129 A 
ATOM      6  C   UNL     1      -0.098   3.944   0.227  0.00  0.00    +0.106 A 
ATOM      7  C   UNL     1      -0.112   5.404   0.015  0.00  0.00    +0.082 A 
ATOM      8  C   UNL     1       1.102   3.228   0.440  0.00  0.00    +0.268 A 
ATOM      9  O   UNL     1       2.174   3.805   0.461  0.00  0.00    -0.267 OA
ATOM     10  N   UNL     1       1.037   1.890   0.621  0.00  0.00    -0.263 N 
ATOM     11  C   UNL     1      -0.144   1.250   0.596  0.00  0.00    +0.333 A 
ATOM     12  O   UNL     1      -0.165   0.045   0.759  0.00  0.00    -0.246 OA
ATOM     13  N   UNL     1      -1.304   1.901   0.391  0.00  0.00    -0.282 N 
ATOM     14  C   UNL     1      -2.564   1.155   0.366  0.00  0.00    +0.155 C 
ATOM     15  C   UNL     1       2.269   1.129   0.845  0.00  0.00    +0.157 C 
ENDROOT
BRANCH   1  17
ATOM     16  C   UNL     1      -1.145   7.420  -2.483  0.00  0.00    +0.009 C 
ATOM     17  C   UNL     1      -1.424   7.408  -0.979  0.00  0.00    +0.035 C 
ENDBRANCH   1  17
BRANCH   7  18
ATOM     18  N   UNL     1       0.948   6.145   0.247  0.00  0.00    -0.264 N 
ATOM     19  H   UNL     1       1.060   7.116  -0.256  0.00  0.00    +0.194 HD
BRANCH  18  20
ATOM     20  O   UNL     1       1.945   5.693   1.145  0.00  0.00    -0.269 OA
BRANCH  20  21
ATOM     21  C   UNL     1       2.984   6.644   1.387  0.00  0.00    +0.228 C 
BRANCH  21  22
ATOM     22  C   UNL     1       4.033   6.027   2.275  0.00  0.00    -0.016 A 
ATOM     23  C   UNL     1       3.829   4.771   2.817  0.00  0.00    +0.009 A 
ATOM     24  C   UNL     1       4.794   4.203   3.627  0.00  0.00    -0.050 A 
ATOM     25  C   UNL     1       5.958   4.895   3.905  0.00  0.00    +0.003 A 
ATOM     26  C   UNL     1       6.160   6.153   3.369  0.00  0.00    +0.004 A 
ATOM     27  C   UNL     1       5.197   6.719   2.553  0.00  0.00    -0.045 A 
ATOM     28  C   UNL     1       5.416   8.090   1.968  0.00  0.00    +0.044 C 
ATOM     29  C   UNL     1       4.574   2.832   4.213  0.00  0.00    +0.044 C 
ENDBRANCH  21  22
ENDBRANCH  20  21
ENDBRANCH  18  20
ENDBRANCH   7  18
TORSDOF 5
