REMARK  Name = ZINC22295898
REMARK  6 active torsions:
REMARK  status: ('A' for Active; 'I' for Inactive)
REMARK    1  A    between atoms: C_1  and  C_2
REMARK    2  A    between atoms: C_5  and  C_24
REMARK    3  A    between atoms: N_8  and  C_10
REMARK    4  A    between atoms: C_10  and  C_11
REMARK    5  A    between atoms: N_16  and  C_17
REMARK    6  A    between atoms: C_17  and  C_19
REMARK                            x       y       z     vdW  Elec       q    Type
REMARK                         _______ _______ _______ _____ _____    ______ ____
ROOT
ATOM      1  C   UNL     1       2.971  -2.034   2.241  0.00  0.00    +0.008 A 
ATOM      2  C   UNL     1       3.536  -1.180   3.102  0.00  0.00    +0.067 A 
ATOM      3  S   UNL     1       5.192  -1.044   2.456  0.00  0.00    -0.061 S 
ATOM      4  C   UNL     1       5.040  -2.084   1.143  0.00  0.00    +0.163 A 
ATOM      5  N   UNL     1       3.749  -2.507   1.230  0.00  0.00    -0.341 N 
ATOM      6  N   UNL     1       5.960  -2.416   0.240  0.00  0.00    -0.152 NA
ATOM      7  H   UNL     1       3.389  -3.132   0.582  0.00  0.00    +0.167 HD
ENDROOT
BRANCH   6   8
ATOM      8  C   UNL     1       7.189  -1.898   0.317  0.00  0.00    +0.272 C 
ATOM      9  O   UNL     1       7.469  -1.122   1.216  0.00  0.00    -0.268 OA
BRANCH   8  10
ATOM     10  C   UNL     1       8.211  -2.266  -0.686  0.00  0.00    +0.076 A 
ATOM     11  C   UNL     1       9.603  -1.800  -0.747  0.00  0.00    +0.054 A 
ATOM     12  C   UNL     1      10.145  -2.397  -1.821  0.00  0.00    +0.195 A 
ATOM     13  O   UNL     1       9.219  -3.172  -2.406  0.00  0.00    -0.470 OA
ATOM     14  C   UNL     1       8.059  -3.113  -1.742  0.00  0.00    +0.208 A 
ENDBRANCH   8  10
ENDBRANCH   6   8
BRANCH   1  15
ATOM     15  C   UNL     1       1.534  -2.461   2.390  0.00  0.00    -0.024 C 
BRANCH  15  21
ATOM     16  C   UNL     1      -0.019   1.526   0.010  0.00  0.00    +0.005 C 
ATOM     17  C   UNL     1       0.002  -0.004   0.002  0.00  0.00    -0.031 C 
ATOM     18  C   UNL     1      -1.434  -0.535   0.015  0.00  0.00    +0.003 C 
ATOM     19  C   UNL     1      -1.402  -2.064   0.086  0.00  0.00    -0.031 C 
ATOM     20  C   UNL     1      -0.613  -2.496   1.324  0.00  0.00    -0.075 C 
ATOM     21  N   UNL     1       0.758  -1.980   1.239  0.00  0.00    +0.384 N 
ATOM     22  C   UNL     1       0.740  -0.512   1.242  0.00  0.00    -0.075 C 
ATOM     23  C   UNL     1      -2.832  -2.602   0.177  0.00  0.00    +0.005 C 
ATOM     24  H   UNL     1       1.188  -2.307   0.386  0.00  0.00    -0.081 HD
ENDBRANCH  15  21
ENDBRANCH   1  15
TORSDOF 4
