REMARK  Name = ZINC11935572
REMARK  6 active torsions:
REMARK  status: ('A' for Active; 'I' for Inactive)
REMARK    1  A    between atoms: C_5  and  C_7
REMARK    2  A    between atoms: C_7  and  N_51
REMARK    3  A    between atoms: C_13  and  C_15
REMARK    4  A    between atoms: C_15  and  C_16
REMARK    5  A    between atoms: N_18  and  C_19
REMARK    6  A    between atoms: C_19  and  C_20
REMARK                            x       y       z     vdW  Elec       q    Type
REMARK                         _______ _______ _______ _____ _____    ______ ____
ROOT
ATOM      1  C   UNL     1       1.573   5.607  -1.853  0.00  0.00    -0.058 C 
ATOM      2  C   UNL     1       1.748   6.143  -3.275  0.00  0.00    +0.085 C 
ATOM      3  N   UNL     1       3.154   6.449  -3.525  0.00  0.00    -0.318 N 
ATOM      4  C   UNL     1       4.149   5.960  -2.777  0.00  0.00    +0.200 C 
ATOM      5  O   UNL     1       5.291   6.240  -3.073  0.00  0.00    -0.278 OA
ATOM      6  C   UNL     1       3.910   5.076  -1.585  0.00  0.00    +0.028 C 
ATOM      7  H   UNL     1       3.376   7.034  -4.266  0.00  0.00    +0.149 HD
ATOM      8  N   UNL     1       2.548   4.516  -1.652  0.00  0.00    +0.391 N 
ATOM      9  H   UNL     1       2.491   3.865  -2.445  0.00  0.00    -0.080 HD
ENDROOT
BRANCH   8  10
ATOM     10  C   UNL     1       2.240   3.782  -0.404  0.00  0.00    -0.039 C 
BRANCH  10  15
ATOM     11  C   UNL     1       0.800   6.103   2.203  0.00  0.00    +0.000 A 
ATOM     12  C   UNL     1       1.939   6.508   2.873  0.00  0.00    +0.003 A 
ATOM     13  C   UNL     1       3.176   6.025   2.490  0.00  0.00    +0.038 A 
ATOM     14  C   UNL     1       3.275   5.143   1.427  0.00  0.00    +0.125 A 
ATOM     15  C   UNL     1       2.134   4.742   0.753  0.00  0.00    -0.029 A 
ATOM     16  C   UNL     1       0.897   5.223   1.142  0.00  0.00    +0.004 A 
ATOM     17  F   UNL     1       4.484   4.674   1.048  0.00  0.00    -0.205 F 
ENDBRANCH  10  15
ENDBRANCH   8  10
BRANCH   6  18
ATOM     18  C   UNL     1       4.922   3.928  -1.593  0.00  0.00    +0.089 C 
BRANCH  18  19
ATOM     19  C   UNL     1       4.729   3.098  -2.837  0.00  0.00    +0.212 C 
ATOM     20  O   UNL     1       3.804   3.333  -3.585  0.00  0.00    -0.276 OA
ATOM     21  N   UNL     1       5.584   2.095  -3.116  0.00  0.00    -0.310 N 
ATOM     22  H   UNL     1       6.324   1.907  -2.518  0.00  0.00    +0.149 HD
BRANCH  21  23
ATOM     23  C   UNL     1       5.397   1.288  -4.325  0.00  0.00    +0.161 C 
BRANCH  23  24
ATOM     24  C   UNL     1       6.479   0.242  -4.403  0.00  0.00    +0.077 A 
ATOM     25  C   UNL     1       6.377  -1.032  -3.964  0.00  0.00    +0.117 A 
ATOM     26  N   UNL     1       7.572  -1.645  -4.221  0.00  0.00    -0.306 N 
ATOM     27  C   UNL     1       8.028  -2.912  -3.995  0.00  0.00    +0.092 A 
ATOM     28  C   UNL     1       9.279  -3.266  -4.355  0.00  0.00    +0.018 A 
ATOM     29  C   UNL     1      10.132  -2.333  -4.969  0.00  0.00    +0.005 A 
ATOM     30  C   UNL     1       9.690  -1.067  -5.200  0.00  0.00    +0.047 A 
ATOM     31  C   UNL     1       8.381  -0.713  -4.818  0.00  0.00    +0.138 A 
ATOM     32  N   UNL     1       7.696   0.418  -4.922  0.00  0.00    -0.231 NA
ENDBRANCH  23  24
ENDBRANCH  21  23
ENDBRANCH  18  19
ENDBRANCH   6  18
TORSDOF 6
