REMARK  Name = ZINC04063493
REMARK  7 active torsions:
REMARK  status: ('A' for Active; 'I' for Inactive)
REMARK    1  A    between atoms: C_1  and  C_2
REMARK    2  A    between atoms: P_7  and  C_10
REMARK    3  A    between atoms: C_10  and  C_12
REMARK    4  A    between atoms: C_10  and  N_21
REMARK    5  A    between atoms: C_15  and  N_18
REMARK    6  A    between atoms: N_21  and  C_22
REMARK    7  A    between atoms: C_25  and  O_28
REMARK                            x       y       z     vdW  Elec       q    Type
REMARK                         _______ _______ _______ _____ _____    ______ ____
ROOT
ATOM      1  C   UNL     1      -0.215   1.298   0.044  0.00  0.00    +0.216 C 
ENDROOT
BRANCH   1   7
ATOM      2  C   UNL     1       3.021   1.064  -3.988  0.00  0.00    +0.038 C 
ATOM      3  C   UNL     1       2.879   1.827  -2.670  0.00  0.00    +0.127 C 
ATOM      4  C   UNL     1       2.433   3.262  -2.955  0.00  0.00    +0.060 C 
ATOM      5  C   UNL     1       2.357   4.073  -1.661  0.00  0.00    +0.172 C 
ATOM      6  O   UNL     1       1.353   3.496  -0.804  0.00  0.00    -0.306 OA
ATOM      7  P   UNL     1       1.426   1.908  -0.465  0.00  0.00    +0.357 P 
ATOM      8  O   UNL     1       2.417   1.659   0.606  0.00  0.00    -0.256 OA
ATOM      9  O   UNL     1       1.891   1.184  -1.843  0.00  0.00    -0.303 OA
ENDBRANCH   1   7
BRANCH   1  10
ATOM     10  C   UNL     1      -0.103  -0.141   0.478  0.00  0.00    -0.016 A 
ATOM     11  C   UNL     1       0.271  -0.445   1.774  0.00  0.00    +0.008 A 
ATOM     12  C   UNL     1       0.369  -1.765   2.173  0.00  0.00    +0.033 A 
ATOM     13  C   UNL     1       0.102  -2.781   1.274  0.00  0.00    +0.126 A 
ATOM     14  C   UNL     1      -0.267  -2.477  -0.023  0.00  0.00    +0.033 A 
ATOM     15  C   UNL     1      -0.369  -1.157  -0.421  0.00  0.00    +0.008 A 
BRANCH  13  16
ATOM     16  N   UNL     1       0.211  -4.194   1.701  0.00  0.00    +0.056 N 
ATOM     17  O   UNL     1      -0.024  -5.089   0.909  0.00  0.00    -0.126 OA
ATOM     18  O   UNL     1       0.536  -4.462   2.844  0.00  0.00    -0.126 OA
ENDBRANCH  13  16
ENDBRANCH   1  10
BRANCH   1  19
ATOM     19  N   UNL     1      -0.713   2.107   1.159  0.00  0.00    -0.327 N 
ATOM     20  H   UNL     1      -0.367   1.964   2.054  0.00  0.00    +0.147 HD
BRANCH  19  21
ATOM     21  C   UNL     1      -1.687   3.085   0.933  0.00  0.00    +0.028 A 
ATOM     22  C   UNL     1      -2.061   3.407  -0.365  0.00  0.00    +0.026 A 
ATOM     23  C   UNL     1      -3.027   4.369  -0.587  0.00  0.00    +0.047 A 
ATOM     24  C   UNL     1      -3.616   5.021   0.486  0.00  0.00    +0.117 A 
ATOM     25  C   UNL     1      -3.239   4.705   1.783  0.00  0.00    +0.047 A 
ATOM     26  C   UNL     1      -2.277   3.739   2.007  0.00  0.00    +0.026 A 
BRANCH  24  27
ATOM     27  O   UNL     1      -4.563   5.972   0.266  0.00  0.00    -0.507 OA
ATOM     28  H   UNL     1      -4.208   6.866   0.171  0.00  0.00    +0.292 HD
ENDBRANCH  24  27
ENDBRANCH  19  21
ENDBRANCH   1  19
TORSDOF 6
