REMARK  Name = ZINC16808200
REMARK  10 active torsions:
REMARK  status: ('A' for Active; 'I' for Inactive)
REMARK    1  A    between atoms: C_1  and  C_2
REMARK    2  A    between atoms: C_2  and  C_4
REMARK    3  A    between atoms: C_2  and  O_18
REMARK    4  A    between atoms: C_4  and  C_6
REMARK    5  A    between atoms: C_15  and  C_17
REMARK    6  A    between atoms: O_18  and  C_19
REMARK    7  A    between atoms: C_19  and  C_21
REMARK    8  A    between atoms: C_21  and  S_22
REMARK    9  A    between atoms: S_22  and  C_23
REMARK   10  A    between atoms: C_26  and  C_28
REMARK                            x       y       z     vdW  Elec       q    Type
REMARK                         _______ _______ _______ _____ _____    ______ ____
ROOT
ATOM      1  O   UNL     1       1.353   1.584   0.002  0.00  0.00    -0.453 OA
ENDROOT
BRANCH   1   3
ATOM      2  C   UNL     1      -0.748   1.588  -1.229  0.00  0.00    +0.061 C 
ATOM      3  C   UNL     1      -0.009   1.082   0.012  0.00  0.00    +0.244 C 
BRANCH   3   4
ATOM      4  C   UNL     1      -0.715   1.569   1.251  0.00  0.00    +0.203 C 
ATOM      5  O   UNL     1      -0.290   2.532   1.852  0.00  0.00    -0.288 OA
BRANCH   4   6
ATOM      6  C   UNL     1      -1.919   0.877   1.730  0.00  0.00    +0.022 A 
ATOM      7  C   UNL     1      -2.418  -0.233   1.036  0.00  0.00    +0.013 A 
ATOM      8  C   UNL     1      -3.532  -0.877   1.485  0.00  0.00    +0.024 A 
ATOM      9  C   UNL     1      -4.197  -0.434   2.635  0.00  0.00    +0.040 A 
ATOM     10  C   UNL     1      -3.707   0.670   3.322  0.00  0.00    -0.024 A 
ATOM     11  C   UNL     1      -2.579   1.324   2.880  0.00  0.00    +0.017 A 
ATOM     12  C   UNL     1      -4.602   0.932   4.512  0.00  0.00    +0.056 C 
ATOM     13  C   UNL     1      -5.680  -0.162   4.431  0.00  0.00    +0.118 C 
ATOM     14  N   UNL     1      -5.340  -0.949   3.242  0.00  0.00    -0.271 N 
ATOM     15  C   UNL     1      -6.034  -2.017   2.800  0.00  0.00    +0.217 C 
ATOM     16  O   UNL     1      -5.727  -2.549   1.755  0.00  0.00    -0.276 OA
ATOM     17  C   UNL     1      -7.190  -2.550   3.607  0.00  0.00    +0.109 C 
ENDBRANCH   4   6
ENDBRANCH   3   4
ENDBRANCH   1   3
BRANCH   1  18
ATOM     18  C   UNL     1       2.278   0.825  -0.607  0.00  0.00    +0.318 C 
ATOM     19  O   UNL     1       1.960  -0.223  -1.117  0.00  0.00    -0.250 OA
BRANCH  18  20
ATOM     20  C   UNL     1       3.713   1.282  -0.657  0.00  0.00    +0.199 C 
BRANCH  20  21
ATOM     21  S   UNL     1       4.707   0.053  -1.540  0.00  0.00    -0.054 S 
BRANCH  21  22
ATOM     22  C   UNL     1       6.291   0.819  -1.450  0.00  0.00    +0.278 A 
ATOM     23  N   UNL     1       6.568   1.968  -0.877  0.00  0.00    -0.101 NA
ATOM     24  N   UNL     1       7.824   2.217  -1.003  0.00  0.00    -0.106 NA
ATOM     25  C   UNL     1       8.399   1.240  -1.660  0.00  0.00    +0.249 A 
ATOM     26  O   UNL     1       7.442   0.332  -1.952  0.00  0.00    -0.411 OA
BRANCH  25  27
ATOM     27  C   UNL     1       9.831   1.146  -2.012  0.00  0.00    +0.039 A 
ATOM     28  C   UNL     1      10.309   0.038  -2.714  0.00  0.00    +0.014 A 
ATOM     29  C   UNL     1      11.646  -0.041  -3.044  0.00  0.00    +0.021 A 
ATOM     30  C   UNL     1      12.515   0.970  -2.671  0.00  0.00    +0.041 A 
ATOM     31  C   UNL     1      12.048   2.069  -1.970  0.00  0.00    +0.021 A 
ATOM     32  C   UNL     1      10.712   2.163  -1.639  0.00  0.00    +0.014 A 
ATOM     33 CL   UNL     1      14.198   0.860  -3.084  0.00  0.00    -0.084 Cl
ENDBRANCH  25  27
ENDBRANCH  21  22
ENDBRANCH  20  21
ENDBRANCH  18  20
ENDBRANCH   1  18
TORSDOF 8
