REMARK  Name = ZINC59124467
REMARK  6 active torsions:
REMARK  status: ('A' for Active; 'I' for Inactive)
REMARK    1  A    between atoms: C_1  and  C_2
REMARK    2  A    between atoms: C_11  and  N_30
REMARK    3  A    between atoms: C_13  and  C_15
REMARK    4  A    between atoms: C_15  and  N_16
REMARK    5  A    between atoms: C_17  and  C_26
REMARK    6  A    between atoms: C_20  and  C_23
REMARK                            x       y       z     vdW  Elec       q    Type
REMARK                         _______ _______ _______ _____ _____    ______ ____
ROOT
ATOM      1  C   UNL     1      -0.178   1.053  -0.610  0.00  0.00    +0.008 C 
ATOM      2  C   UNL     1      -0.154  -0.476  -0.548  0.00  0.00    -0.009 C 
ATOM      3  C   UNL     1      -1.580  -1.005  -0.364  0.00  0.00    +0.008 C 
ATOM      4  C   UNL     1      -1.597  -2.522  -0.549  0.00  0.00    +0.037 C 
ATOM      5  C   UNL     1      -0.546  -3.144   0.367  0.00  0.00    -0.025 A 
ATOM      6  C   UNL     1       0.456  -2.390   0.874  0.00  0.00    -0.004 A 
ATOM      7  S   UNL     1       1.423  -3.503   1.863  0.00  0.00    -0.073 S 
ATOM      8  C   UNL     1       0.487  -4.974   1.599  0.00  0.00    +0.114 A 
ATOM      9  C   UNL     1      -0.559  -4.549   0.740  0.00  0.00    +0.051 A 
ATOM     10  C   UNL     1      -1.503  -5.537   0.339  0.00  0.00    +0.128 A 
ATOM     11  N   UNL     1      -1.299  -6.763   0.818  0.00  0.00    -0.215 NA
ATOM     12  C   UNL     1      -0.300  -7.085   1.615  0.00  0.00    +0.152 A 
ATOM     13  N   UNL     1       0.614  -6.214   2.027  0.00  0.00    -0.223 NA
ATOM     14  C   UNL     1       0.699  -0.929   0.645  0.00  0.00    +0.046 C 
ENDROOT
BRANCH  10  15
ATOM     15  N   UNL     1      -2.566  -5.242  -0.496  0.00  0.00    -0.343 N 
ATOM     16  H   UNL     1      -2.519  -4.475  -1.088  0.00  0.00    +0.144 HD
ATOM     17  H   UNL     1      -3.358  -5.801  -0.489  0.00  0.00    +0.144 HD
ENDBRANCH  10  15
BRANCH  12  18
ATOM     18  C   UNL     1      -0.190  -8.513   2.083  0.00  0.00    +0.201 C 
BRANCH  18  19
ATOM     19  N   UNL     1       0.626  -9.276   1.136  0.00  0.00    -0.297 N 
ATOM     20  C   UNL     1       0.030  -9.894   0.089  0.00  0.00    +0.126 A 
ATOM     21  C   UNL     1       0.752 -10.609  -0.811  0.00  0.00    +0.031 A 
ATOM     22  C   UNL     1       2.135 -10.720  -0.669  0.00  0.00    +0.020 A 
ATOM     23  C   UNL     1       2.756 -10.087   0.406  0.00  0.00    +0.101 A 
ATOM     24  C   UNL     1       1.959  -9.346   1.317  0.00  0.00    +0.264 A 
ATOM     25  O   UNL     1       2.478  -8.779   2.262  0.00  0.00    -0.267 OA
BRANCH  23  26
ATOM     26  C   UNL     1       4.212 -10.181   0.590  0.00  0.00    +0.247 C 
ATOM     27  O   UNL     1       4.900 -10.711  -0.262  0.00  0.00    -0.270 OA
ATOM     28  N   UNL     1       4.784  -9.679   1.702  0.00  0.00    -0.325 N 
ATOM     29  H   UNL     1       4.230  -9.325   2.416  0.00  0.00    +0.145 HD
ATOM     30  H   UNL     1       5.750  -9.672   1.790  0.00  0.00    +0.145 HD
ENDBRANCH  23  26
BRANCH  20  31
ATOM     31  C   UNL     1      -1.464  -9.785  -0.080  0.00  0.00    +0.433 C 
ATOM     32  F   UNL     1      -1.857 -10.496  -1.220  0.00  0.00    -0.164 F 
ATOM     33  F   UNL     1      -2.101 -10.319   1.045  0.00  0.00    -0.164 F 
ATOM     34  F   UNL     1      -1.821  -8.440  -0.224  0.00  0.00    -0.164 F 
ENDBRANCH  20  31
ENDBRANCH  18  19
ENDBRANCH  12  18
TORSDOF 5
