REMARK  Name = ZINC00074451
REMARK  9 active torsions:
REMARK  status: ('A' for Active; 'I' for Inactive)
REMARK    1  A    between atoms: C_1  and  C_2
REMARK    2  A    between atoms: C_2  and  O_3
REMARK    3  A    between atoms: O_3  and  C_4
REMARK    4  A    between atoms: C_4  and  C_6
REMARK    5  A    between atoms: C_7  and  C_24
REMARK    6  A    between atoms: C_12  and  C_14
REMARK    7  A    between atoms: C_16  and  O_22
REMARK    8  A    between atoms: C_17  and  O_21
REMARK    9  A    between atoms: O_22  and  C_23
REMARK                            x       y       z     vdW  Elec       q    Type
REMARK                         _______ _______ _______ _____ _____    ______ ____
ROOT
ATOM      1  C   UNL     1       2.215   0.616  -0.363  0.00  0.00    +0.078 C 
ATOM      2  C   UNL     1       1.685   1.760   0.119  0.00  0.00    +0.021 C 
ATOM      3  N   UNL     1       0.341   1.880   0.333  0.00  0.00    -0.273 N 
ATOM      4  C   UNL     1      -0.539   0.901   0.089  0.00  0.00    +0.304 C 
ATOM      5  O   UNL     1      -1.718   1.104   0.306  0.00  0.00    -0.252 OA
ATOM      6  N   UNL     1      -0.162  -0.299  -0.394  0.00  0.00    -0.288 N 
ATOM      7  C   UNL     1       1.268  -0.530  -0.658  0.00  0.00    +0.144 C 
ATOM      8  C   UNL     1       2.591   2.925   0.426  0.00  0.00    +0.061 C 
ATOM      9  H   UNL     1       0.006   2.722   0.680  0.00  0.00    +0.156 HD
ATOM     10  H   UNL     1      -0.817  -0.995  -0.562  0.00  0.00    +0.151 HD
ENDROOT
BRANCH   7  11
ATOM     11  C   UNL     1       1.706  -1.718   0.160  0.00  0.00    -0.017 A 
ATOM     12  C   UNL     1       1.508  -1.723   1.528  0.00  0.00    +0.055 A 
ATOM     13  C   UNL     1       1.910  -2.813   2.283  0.00  0.00    +0.163 A 
ATOM     14  C   UNL     1       2.513  -3.902   1.660  0.00  0.00    +0.177 A 
ATOM     15  C   UNL     1       2.709  -3.891   0.288  0.00  0.00    +0.086 A 
ATOM     16  C   UNL     1       2.300  -2.801  -0.460  0.00  0.00    +0.029 A 
ATOM     17 CL   UNL     1       3.461  -5.247  -0.493  0.00  0.00    -0.080 Cl
BRANCH  14  18
ATOM     18  O   UNL     1       2.909  -4.975   2.396  0.00  0.00    -0.502 OA
ATOM     19  H   UNL     1       2.231  -5.658   2.493  0.00  0.00    +0.292 HD
ENDBRANCH  14  18
BRANCH  13  20
ATOM     20  O   UNL     1       1.716  -2.820   3.629  0.00  0.00    -0.491 OA
ATOM     21  C   UNL     1       0.992  -1.720   4.185  0.00  0.00    +0.277 C 
ENDBRANCH  13  20
ENDBRANCH   7  11
BRANCH   1  22
ATOM     22  C   UNL     1       3.606   0.490  -0.584  0.00  0.00    +0.339 C 
ATOM     23  O   UNL     1       4.334   1.455  -0.445  0.00  0.00    -0.245 OA
BRANCH  22  24
ATOM     24  O   UNL     1       4.127  -0.700  -0.949  0.00  0.00    -0.462 OA
BRANCH  24  26
ATOM     25  C   UNL     1       5.897  -2.122  -1.778  0.00  0.00    +0.048 C 
ATOM     26  C   UNL     1       5.519  -0.728  -1.271  0.00  0.00    +0.229 C 
ENDBRANCH  24  26
ENDBRANCH  22  24
ENDBRANCH   1  22
TORSDOF 6
