REMARK  Name = ZINC02708662
REMARK  9 active torsions:
REMARK  status: ('A' for Active; 'I' for Inactive)
REMARK    1  A    between atoms: C_1  and  C_2
REMARK    2  A    between atoms: C_7  and  N_8
REMARK    3  A    between atoms: C_13  and  C_14
REMARK    4  A    between atoms: C_13  and  N_63
REMARK    5  A    between atoms: C_14  and  C_16
REMARK    6  A    between atoms: C_14  and  O_34
REMARK    7  A    between atoms: C_16  and  N_17
REMARK    8  A    between atoms: C_26  and  C_32
REMARK    9  A    between atoms: C_27  and  C_31
REMARK                            x       y       z     vdW  Elec       q    Type
REMARK                         _______ _______ _______ _____ _____    ______ ____
ROOT
ATOM      1  C   UNL     1      -1.031   3.356  -1.066  0.00  0.00    +0.118 C 
ENDROOT
BRANCH   1   2
ATOM      2  O   UNL     1       0.149   4.138  -0.870  0.00  0.00    -0.392 OA
ATOM      3  H   UNL     1       0.762   4.118  -1.617  0.00  0.00    +0.210 HD
ENDBRANCH   1   2
BRANCH   1   4
ATOM      4  C   UNL     1      -0.642   1.893  -1.294  0.00  0.00    -0.045 C 
BRANCH   4  10
ATOM      5  N   UNL     1       0.443  -0.607   1.934  0.00  0.00    -0.333 N 
ATOM      6  C   UNL     1      -0.347   0.596   2.230  0.00  0.00    +0.086 C 
ATOM      7  C   UNL     1      -1.037   1.077   0.952  0.00  0.00    -0.060 C 
ATOM      8  C   UNL     1       0.767   0.153  -0.371  0.00  0.00    -0.060 C 
ATOM      9  C   UNL     1       1.457  -0.328   0.908  0.00  0.00    +0.086 C 
ATOM     10  N   UNL     1      -0.005   1.375  -0.064  0.00  0.00    +0.383 N 
ATOM     11  H   UNL     1       0.633   2.089   0.308  0.00  0.00    -0.082 HD
BRANCH   5  18
ATOM     12  C   UNL     1      -0.372  -3.181   2.831  0.00  0.00    +0.045 C 
ATOM     13  C   UNL     1       0.663  -2.370   3.567  0.00  0.00    -0.029 A 
ATOM     14  C   UNL     1       1.247  -2.873   4.713  0.00  0.00    +0.005 A 
ATOM     15  C   UNL     1       2.198  -2.130   5.389  0.00  0.00    +0.000 A 
ATOM     16  C   UNL     1       2.567  -0.882   4.920  0.00  0.00    +0.002 A 
ATOM     17  C   UNL     1       1.991  -0.377   3.772  0.00  0.00    +0.023 A 
ATOM     18  C   UNL     1       1.031  -1.118   3.093  0.00  0.00    +0.033 A 
ENDBRANCH   5  18
ENDBRANCH   4  10
ENDBRANCH   1   4
BRANCH   1  19
ATOM     19  C   UNL     1      -1.790   3.877  -2.288  0.00  0.00    +0.153 C 
BRANCH  19  20
ATOM     20  N   UNL     1      -2.163   5.277  -2.071  0.00  0.00    -0.322 N 
ATOM     21  C   UNL     1      -1.399   6.385  -2.413  0.00  0.00    +0.068 A 
ATOM     22  C   UNL     1      -0.155   6.528  -3.013  0.00  0.00    +0.028 A 
ATOM     23  C   UNL     1       0.362   7.789  -3.232  0.00  0.00    +0.002 A 
ATOM     24  C   UNL     1      -0.355   8.912  -2.855  0.00  0.00    +0.002 A 
ATOM     25  C   UNL     1      -1.593   8.781  -2.258  0.00  0.00    +0.028 A 
ATOM     26  C   UNL     1      -2.121   7.517  -2.034  0.00  0.00    +0.075 A 
ATOM     27  N   UNL     1      -3.315   7.075  -1.465  0.00  0.00    -0.260 N 
ATOM     28  C   UNL     1      -3.325   5.716  -1.502  0.00  0.00    +0.140 A 
ATOM     29  C   UNL     1      -4.419   5.009  -0.983  0.00  0.00    +0.096 A 
ATOM     30  C   UNL     1      -5.505   5.720  -0.437  0.00  0.00    -0.024 A 
ATOM     31  C   UNL     1      -5.466   7.083  -0.421  0.00  0.00    +0.075 A 
ATOM     32  C   UNL     1      -4.354   7.756  -0.943  0.00  0.00    +0.258 A 
ATOM     33  O   UNL     1      -4.327   8.976  -0.926  0.00  0.00    -0.267 OA
ATOM     34  C   UNL     1      -6.695   4.984   0.122  0.00  0.00    +0.045 C 
BRANCH  29  35
ATOM     35  C   UNL     1      -4.434   3.578  -1.013  0.00  0.00    +0.103 C 
ATOM     36  N   UNL     1      -4.446   2.442  -1.036  0.00  0.00    -0.191 NA
ENDBRANCH  29  35
ENDBRANCH  19  20
ENDBRANCH   1  19
TORSDOF 7
