REMARK  Name = ZINC40825636
REMARK  9 active torsions:
REMARK  status: ('A' for Active; 'I' for Inactive)
REMARK    1  A    between atoms: C_1  and  C_2
REMARK    2  A    between atoms: C_2  and  O_3
REMARK    3  A    between atoms: O_3  and  C_4
REMARK    4  A    between atoms: N_6  and  N_7
REMARK    5  A    between atoms: C_14  and  C_27
REMARK    6  A    between atoms: C_15  and  C_17
REMARK    7  A    between atoms: C_17  and  O_19
REMARK    8  A    between atoms: O_19  and  C_20
REMARK    9  A    between atoms: C_23  and  C_26
REMARK                            x       y       z     vdW  Elec       q    Type
REMARK                         _______ _______ _______ _____ _____    ______ ____
ROOT
ATOM      1  N   UNL     1      -3.874  -1.564   0.155  0.00  0.00    -0.182 NA
ATOM      2  C   UNL     1      -5.069  -2.068   0.120  0.00  0.00    +0.070 C 
ATOM      3  C   UNL     1      -5.321  -3.569   0.091  0.00  0.00    +0.058 C 
ATOM      4  C   UNL     1      -6.441  -3.848  -0.916  0.00  0.00    +0.014 C 
ATOM      5  C   UNL     1      -7.755  -3.214  -0.452  0.00  0.00    +0.075 C 
ATOM      6  C   UNL     1      -7.529  -1.754  -0.155  0.00  0.00    +0.115 A 
ATOM      7  C   UNL     1      -6.286  -1.227   0.113  0.00  0.00    +0.042 A 
ATOM      8  C   UNL     1      -6.450   0.144   0.343  0.00  0.00    +0.011 A 
ATOM      9  C   UNL     1      -7.788   0.397   0.214  0.00  0.00    +0.215 A 
ATOM     10  O   UNL     1      -8.417  -0.764  -0.093  0.00  0.00    -0.452 OA
ATOM     11  C   UNL     1      -5.368   1.141   0.669  0.00  0.00    +0.048 C 
ENDROOT
BRANCH   1  14
ATOM     12  C   UNL     1      -1.516  -1.885   0.196  0.00  0.00    +0.420 C 
ATOM     13  O   UNL     1      -0.546  -2.618   0.200  0.00  0.00    -0.225 OA
ATOM     14  N   UNL     1      -2.757  -2.409   0.160  0.00  0.00    -0.172 N 
ATOM     15  H   UNL     1      -2.876  -3.371   0.138  0.00  0.00    +0.181 HD
BRANCH  12  16
ATOM     16  O   UNL     1      -1.350  -0.548   0.227  0.00  0.00    -0.450 OA
BRANCH  16  18
ATOM     17  C   UNL     1      -0.019   1.468   0.295  0.00  0.00    +0.048 C 
ATOM     18  C   UNL     1      -0.007  -0.062   0.264  0.00  0.00    +0.230 C 
ENDBRANCH  16  18
ENDBRANCH  12  16
ENDBRANCH   1  14
BRANCH   9  19
ATOM     19  C   UNL     1      -8.431   1.704   0.369  0.00  0.00    +0.380 C 
ATOM     20  O   UNL     1      -7.761   2.683   0.636  0.00  0.00    -0.241 OA
BRANCH  19  21
ATOM     21  O   UNL     1      -9.766   1.822   0.215  0.00  0.00    -0.420 OA
BRANCH  21  22
ATOM     22  C   UNL     1     -10.334   3.030   0.468  0.00  0.00    +0.132 A 
ATOM     23  C   UNL     1     -10.228   4.055  -0.461  0.00  0.00    +0.046 A 
ATOM     24  C   UNL     1     -10.806   5.283  -0.202  0.00  0.00    +0.007 A 
ATOM     25  C   UNL     1     -11.488   5.491   0.983  0.00  0.00    -0.050 A 
ATOM     26  C   UNL     1     -11.594   4.471   1.910  0.00  0.00    +0.007 A 
ATOM     27  C   UNL     1     -11.024   3.240   1.653  0.00  0.00    +0.046 A 
ATOM     28  C   UNL     1     -12.116   6.832   1.263  0.00  0.00    +0.044 C 
ENDBRANCH  21  22
ENDBRANCH  19  21
ENDBRANCH   9  19
TORSDOF 6
