REMARK  Name = ZINC10064884
REMARK  9 active torsions:
REMARK  status: ('A' for Active; 'I' for Inactive)
REMARK    1  A    between atoms: C_1  and  N_2
REMARK    2  A    between atoms: C_5  and  O_31
REMARK    3  A    between atoms: C_6  and  O_29
REMARK    4  A    between atoms: N_11  and  C_12
REMARK    5  A    between atoms: C_12  and  C_14
REMARK    6  A    between atoms: N_19  and  S_21
REMARK    7  A    between atoms: S_21  and  C_24
REMARK    8  A    between atoms: O_29  and  C_30
REMARK    9  A    between atoms: O_31  and  C_32
REMARK                            x       y       z     vdW  Elec       q    Type
REMARK                         _______ _______ _______ _____ _____    ______ ____
ROOT
ATOM      1  C   UNL     1       3.529   2.132  -1.302  0.00  0.00    +0.243 C 
ATOM      2  O   UNL     1       4.476   1.370  -1.335  0.00  0.00    -0.273 OA
ENDROOT
BRANCH   1  13
ATOM      3  C   UNL     1       4.377   6.297  -1.263  0.00  0.00    +0.151 C 
ATOM      4  N   UNL     1       5.375   5.225  -1.302  0.00  0.00    -0.324 N 
ATOM      5  C   UNL     1       6.723   5.535  -1.330  0.00  0.00    +0.061 A 
ATOM      6  C   UNL     1       7.323   6.805  -1.325  0.00  0.00    +0.076 A 
ATOM      7  C   UNL     1       8.694   6.938  -1.356  0.00  0.00    +0.164 A 
ATOM      8  C   UNL     1       9.523   5.819  -1.391  0.00  0.00    +0.163 A 
ATOM      9  C   UNL     1       8.952   4.555  -1.396  0.00  0.00    +0.066 A 
ATOM     10  C   UNL     1       7.582   4.429  -1.366  0.00  0.00    +0.043 A 
ATOM     11  S   UNL     1       6.468   3.047  -1.352  0.00  0.00    -0.052 S 
ATOM     12  C   UNL     1       4.974   3.926  -1.311  0.00  0.00    +0.166 A 
ATOM     13  N   UNL     1       3.733   3.445  -1.288  0.00  0.00    -0.156 NA
BRANCH   8  14
ATOM     14  O   UNL     1      10.876   5.964  -1.421  0.00  0.00    -0.491 OA
ATOM     15  C   UNL     1      11.656   4.767  -1.456  0.00  0.00    +0.277 C 
ENDBRANCH   8  14
BRANCH   7  16
ATOM     16  O   UNL     1       9.246   8.181  -1.352  0.00  0.00    -0.491 OA
ATOM     17  C   UNL     1       8.346   9.291  -1.315  0.00  0.00    +0.277 C 
ENDBRANCH   7  16
ENDBRANCH   1  13
BRANCH   1  18
ATOM     18  C   UNL     1       2.124   1.587  -1.276  0.00  0.00    +0.093 C 
ATOM     19  C   UNL     1       1.419   2.053  -0.001  0.00  0.00    +0.015 C 
ATOM     20  C   UNL     1      -0.019   1.528   0.010  0.00  0.00    +0.018 C 
ATOM     21  C   UNL     1       0.002  -0.004   0.002  0.00  0.00    +0.109 C 
ATOM     22  N   UNL     1       0.803  -0.460  -1.143  0.00  0.00    -0.175 NA
ATOM     23  C   UNL     1       2.170   0.056  -1.299  0.00  0.00    +0.122 C 
BRANCH  22  24
ATOM     24  S   UNL     1       0.176  -1.534  -2.236  0.00  0.00    +0.067 S 
ATOM     25  O   UNL     1       1.282  -2.187  -2.843  0.00  0.00    -0.152 OA
ATOM     26  O   UNL     1      -0.853  -2.246  -1.562  0.00  0.00    -0.152 OA
BRANCH  24  27
ATOM     27  C   UNL     1      -0.609  -0.592  -3.501  0.00  0.00    +0.143 A 
ATOM     28  C   UNL     1      -0.085  -0.105  -4.653  0.00  0.00    +0.036 A 
ATOM     29  C   UNL     1      -0.899   0.613  -5.509  0.00  0.00    +0.010 A 
ATOM     30  C   UNL     1      -2.194   0.819  -5.166  0.00  0.00    +0.047 A 
ATOM     31  S   UNL     1      -2.298  -0.022  -3.595  0.00  0.00    -0.077 S 
ENDBRANCH  24  27
ENDBRANCH  22  24
ENDBRANCH   1  18
TORSDOF 6
