REMARK  Name = ZINC00549856
REMARK  5 active torsions:
REMARK  status: ('A' for Active; 'I' for Inactive)
REMARK    1  A    between atoms: C_1  and  C_2
REMARK    2  A    between atoms: C_2  and  C_24
REMARK    3  A    between atoms: C_6  and  C_14
REMARK    4  A    between atoms: C_8  and  C_12
REMARK    5  A    between atoms: C_9  and  N_11
REMARK                            x       y       z     vdW  Elec       q    Type
REMARK                         _______ _______ _______ _____ _____    ______ ____
ROOT
ATOM      1  C   UNL     1      -4.553   1.600  -3.140  0.00  0.00    +0.012 C 
ATOM      2  C   UNL     1      -5.444   1.311  -1.930  0.00  0.00    -0.021 C 
ATOM      3  C   UNL     1      -4.624   0.613  -0.843  0.00  0.00    +0.081 C 
ATOM      4  C   UNL     1      -3.495   1.513  -0.401  0.00  0.00    +0.115 C 
ATOM      5  C   UNL     1      -3.635   2.851  -0.424  0.00  0.00    +0.042 C 
ATOM      6  C   UNL     1      -2.509   3.750   0.028  0.00  0.00    +0.078 C 
ATOM      7  C   UNL     1      -1.211   2.991   0.030  0.00  0.00    +0.094 C 
ATOM      8  C   UNL     1      -1.209   1.636   0.017  0.00  0.00    +0.198 C 
ATOM      9  O   UNL     1      -2.354   0.935   0.018  0.00  0.00    -0.445 OA
ATOM     10  C   UNL     1      -4.826   3.455  -0.869  0.00  0.00    +0.164 C 
ATOM     11  O   UNL     1      -4.922   4.666  -0.857  0.00  0.00    -0.292 OA
ATOM     12  C   UNL     1      -5.983   2.628  -1.361  0.00  0.00    +0.086 C 
ATOM     13  C   UNL     1      -6.609   0.413  -2.352  0.00  0.00    +0.012 C 
ENDROOT
BRANCH   6  14
ATOM     14  C   UNL     1      -2.798   4.253   1.443  0.00  0.00    +0.024 C 
ATOM     15  C   UNL     1      -4.120   5.023   1.448  0.00  0.00    +0.009 C 
ATOM     16  C   UNL     1      -4.263   5.735   2.799  0.00  0.00    +0.005 C 
ATOM     17  C   UNL     1      -3.193   6.825   2.887  0.00  0.00    +0.027 C 
ATOM     18  C   UNL     1      -1.850   6.262   2.524  0.00  0.00    -0.031 C 
ATOM     19  C   UNL     1      -1.679   5.146   1.892  0.00  0.00    -0.027 C 
ENDBRANCH   6  14
BRANCH   8  20
ATOM     20  N   UNL     1      -0.011   0.966   0.007  0.00  0.00    -0.328 N 
ATOM     21  H   UNL     1       0.002  -0.004   0.002  0.00  0.00    +0.145 HD
ATOM     22  H   UNL     1       0.822   1.462   0.002  0.00  0.00    +0.145 HD
ENDBRANCH   8  20
BRANCH   7  23
ATOM     23  C   UNL     1       0.031   3.705   0.040  0.00  0.00    +0.100 C 
ATOM     24  N   UNL     1       1.016   4.271   0.047  0.00  0.00    -0.191 NA
ENDBRANCH   7  23
TORSDOF 3
