REMARK  Name = ZINC00914730
REMARK  10 active torsions:
REMARK  status: ('A' for Active; 'I' for Inactive)
REMARK    1  A    between atoms: C_1  and  C_2
REMARK    2  A    between atoms: C_5  and  C_38
REMARK    3  A    between atoms: C_9  and  C_14
REMARK    4  A    between atoms: C_14  and  N_15
REMARK    5  A    between atoms: N_15  and  C_16
REMARK    6  A    between atoms: N_15  and  S_25
REMARK    7  A    between atoms: C_16  and  C_17
REMARK    8  A    between atoms: C_20  and  O_23
REMARK    9  A    between atoms: O_23  and  C_24
REMARK   10  A    between atoms: S_25  and  C_28
REMARK                            x       y       z     vdW  Elec       q    Type
REMARK                         _______ _______ _______ _____ _____    ______ ____
ROOT
ATOM      1  N   UNL     1       4.190  -1.186  -1.584  0.00  0.00    -0.168 NA
ENDROOT
BRANCH   1   2
ATOM      2  S   UNL     1       3.599  -0.774  -0.093  0.00  0.00    +0.062 S 
ATOM      3  O   UNL     1       4.638  -0.072   0.576  0.00  0.00    -0.153 OA
ATOM      4  O   UNL     1       3.002  -1.946   0.446  0.00  0.00    -0.153 OA
BRANCH   2   5
ATOM      5  C   UNL     1       2.295   0.382  -0.351  0.00  0.00    +0.109 A 
ATOM      6  C   UNL     1       0.983  -0.052  -0.379  0.00  0.00    +0.032 A 
ATOM      7  C   UNL     1      -0.043   0.852  -0.583  0.00  0.00    +0.051 A 
ATOM      8  C   UNL     1       0.242   2.197  -0.760  0.00  0.00    +0.162 A 
ATOM      9  C   UNL     1       1.561   2.635  -0.729  0.00  0.00    +0.164 A 
ATOM     10  C   UNL     1       2.585   1.722  -0.525  0.00  0.00    +0.078 A 
ATOM     11  O   UNL     1       1.862   3.952  -0.892  0.00  0.00    -0.485 OA
ATOM     12  C   UNL     1       0.843   4.779  -1.465  0.00  0.00    +0.270 C 
ATOM     13  C   UNL     1      -0.485   4.462  -0.764  0.00  0.00    +0.270 C 
ATOM     14  O   UNL     1      -0.778   3.074  -0.968  0.00  0.00    -0.485 OA
ENDBRANCH   2   5
ENDBRANCH   1   2
BRANCH   1  15
ATOM     15  C   UNL     1       3.708  -2.396  -2.254  0.00  0.00    +0.150 C 
BRANCH  15  24
ATOM     16  C   UNL     1       4.910  -1.866  -7.293  0.00  0.00    +0.044 C 
ATOM     17  C   UNL     1       3.446  -1.540  -7.145  0.00  0.00    -0.041 A 
ATOM     18  C   UNL     1       2.709  -1.186  -8.239  0.00  0.00    +0.004 A 
ATOM     19  C   UNL     1       1.360  -0.884  -8.114  0.00  0.00    +0.005 A 
ATOM     20  C   UNL     1       0.739  -0.935  -6.884  0.00  0.00    -0.026 A 
ATOM     21  C   UNL     1       1.469  -1.292  -5.756  0.00  0.00    +0.052 A 
ATOM     22  C   UNL     1       2.837  -1.598  -5.888  0.00  0.00    +0.002 A 
ATOM     23  C   UNL     1       3.598  -1.974  -4.694  0.00  0.00    +0.020 A 
ATOM     24  C   UNL     1       2.954  -2.013  -3.502  0.00  0.00    +0.033 A 
ATOM     25  C   UNL     1       1.580  -1.703  -3.425  0.00  0.00    +0.254 A 
ATOM     26  O   UNL     1       1.019  -1.749  -2.344  0.00  0.00    -0.268 OA
ATOM     27  N   UNL     1       0.874  -1.352  -4.514  0.00  0.00    -0.322 N 
ATOM     28  H   UNL     1      -0.097  -1.131  -4.422  0.00  0.00    +0.169 HD
ATOM     29  C   UNL     1      -0.727  -0.604  -6.763  0.00  0.00    +0.046 C 
ENDBRANCH  15  24
ENDBRANCH   1  15
BRANCH   1  30
ATOM     30  C   UNL     1       5.196  -0.341  -2.232  0.00  0.00    +0.145 C 
BRANCH  30  31
ATOM     31  C   UNL     1       6.572  -0.879  -1.936  0.00  0.00    -0.031 A 
ATOM     32  C   UNL     1       7.261  -0.436  -0.822  0.00  0.00    +0.008 A 
ATOM     33  C   UNL     1       8.520  -0.932  -0.545  0.00  0.00    +0.046 A 
ATOM     34  C   UNL     1       9.098  -1.867  -1.392  0.00  0.00    +0.120 A 
ATOM     35  C   UNL     1       8.406  -2.306  -2.512  0.00  0.00    +0.046 A 
ATOM     36  C   UNL     1       7.145  -1.811  -2.781  0.00  0.00    +0.008 A 
BRANCH  34  37
ATOM     37  O   UNL     1      10.338  -2.353  -1.124  0.00  0.00    -0.495 OA
ATOM     38  C   UNL     1      10.991  -1.857   0.046  0.00  0.00    +0.277 C 
ENDBRANCH  34  37
ENDBRANCH  30  31
ENDBRANCH   1  30
TORSDOF 7
