REMARK  Name = ZINC66052281
REMARK  2 active torsions:
REMARK  status: ('A' for Active; 'I' for Inactive)
REMARK    1  A    between atoms: N_9  and  C_12
REMARK    2  A    between atoms: C_15  and  C_18
REMARK                            x       y       z     vdW  Elec       q    Type
REMARK                         _______ _______ _______ _____ _____    ______ ____
ROOT
ATOM      1  C   UNL     1       2.672  -4.088  -0.047  0.00  0.00    +0.051 A 
ATOM      2  C   UNL     1       1.544  -4.894   0.060  0.00  0.00    +0.027 A 
ATOM      3  C   UNL     1       1.671  -6.265   0.051  0.00  0.00    +0.015 A 
ATOM      4  C   UNL     1       2.936  -6.847  -0.065  0.00  0.00    +0.037 A 
ATOM      5  C   UNL     1       4.068  -6.034  -0.172  0.00  0.00    +0.015 A 
ATOM      6  C   UNL     1       3.933  -4.664  -0.168  0.00  0.00    +0.027 A 
ENDROOT
BRANCH   1  15
ATOM      7  C   UNL     1       2.334   1.585   2.136  0.00  0.00    +0.001 A 
ATOM      8  C   UNL     1       2.159   2.185   0.895  0.00  0.00    +0.002 A 
ATOM      9  C   UNL     1       2.122   1.429  -0.255  0.00  0.00    +0.028 A 
ATOM     10  C   UNL     1       2.263   0.042  -0.176  0.00  0.00    +0.078 A 
ATOM     11  C   UNL     1       2.442  -0.565   1.087  0.00  0.00    +0.065 A 
ATOM     12  C   UNL     1       2.475   0.218   2.239  0.00  0.00    +0.015 A 
ATOM     13  C   UNL     1       2.587  -2.027   1.136  0.00  0.00    +0.266 A 
ATOM     14  O   UNL     1       2.743  -2.611   2.192  0.00  0.00    -0.267 OA
ATOM     15  N   UNL     1       2.539  -2.698  -0.038  0.00  0.00    -0.267 N 
ATOM     16  C   UNL     1       2.363  -2.029  -1.211  0.00  0.00    +0.207 A 
ATOM     17  N   UNL     1       2.232  -0.740  -1.284  0.00  0.00    -0.237 NA
ENDBRANCH   1  15
BRANCH   4  18
ATOM     18  C   UNL     1       3.077  -8.316  -0.074  0.00  0.00    +0.249 C 
ATOM     19  O   UNL     1       2.091  -9.022   0.020  0.00  0.00    -0.270 OA
ATOM     20  N   UNL     1       4.298  -8.875  -0.186  0.00  0.00    -0.265 N 
ATOM     21  C   UNL     1       4.432 -10.270  -0.194  0.00  0.00    +0.147 A 
ATOM     22  C   UNL     1       3.384 -11.200  -0.100  0.00  0.00    +0.064 A 
ATOM     23  C   UNL     1       3.923 -12.439  -0.144  0.00  0.00    +0.107 A 
ATOM     24  N   UNL     1       5.261 -12.304  -0.263  0.00  0.00    -0.283 N 
ATOM     25  H   UNL     1       5.903 -13.029  -0.318  0.00  0.00    +0.188 HD
ATOM     26  N   UNL     1       5.558 -10.936  -0.298  0.00  0.00    -0.159 NA
ATOM     27  H   UNL     1       5.085  -8.312  -0.261  0.00  0.00    +0.157 HD
ENDBRANCH   4  18
TORSDOF 2
