REMARK  Name = ZINC28052690
REMARK  13 active torsions:
REMARK  status: ('A' for Active; 'I' for Inactive)
REMARK    1  A    between atoms: C_1  and  C_2
REMARK    2  A    between atoms: C_10  and  C_12
REMARK    3  A    between atoms: C_14  and  O_22
REMARK    4  A    between atoms: C_15  and  O_20
REMARK    5  A    between atoms: C_17  and  O_18
REMARK    6  A    between atoms: O_18  and  C_19
REMARK    7  A    between atoms: O_20  and  C_21
REMARK    8  A    between atoms: O_22  and  C_23
REMARK    9  A    between atoms: C_27  and  C_30
REMARK   10  A    between atoms: C_33  and  O_38
REMARK   11  A    between atoms: C_34  and  O_36
REMARK   12  A    between atoms: O_36  and  C_37
REMARK   13  A    between atoms: O_38  and  C_39
REMARK                            x       y       z     vdW  Elec       q    Type
REMARK                         _______ _______ _______ _____ _____    ______ ____
ROOT
ATOM      1  C   UNL     1      -6.820   7.178  -0.853  0.00  0.00    +0.069 C 
ATOM      2  C   UNL     1      -5.848   6.408  -1.710  0.00  0.00    +0.087 A 
ATOM      3  C   UNL     1      -4.926   5.457  -1.282  0.00  0.00    +0.049 A 
ATOM      4  C   UNL     1      -4.288   5.058  -2.427  0.00  0.00    +0.226 A 
ATOM      5  O   UNL     1      -4.836   5.750  -3.420  0.00  0.00    -0.339 OA
ATOM      6  N   UNL     1      -5.701   6.498  -3.008  0.00  0.00    -0.081 NA
ATOM      7  N   UNL     1      -3.286   4.110  -2.393  0.00  0.00    -0.286 N 
ATOM      8  C   UNL     1      -2.730   3.786  -1.177  0.00  0.00    +0.019 C 
ATOM      9  C   UNL     1      -3.300   4.130  -0.003  0.00  0.00    +0.024 C 
ATOM     10  C   UNL     1      -4.600   4.905   0.069  0.00  0.00    +0.094 C 
ATOM     11  C   UNL     1      -2.704   3.778   1.221  0.00  0.00    +0.162 C 
ATOM     12  O   UNL     1      -3.233   4.122   2.260  0.00  0.00    -0.292 OA
ATOM     13  C   UNL     1      -1.427   2.987   1.275  0.00  0.00    +0.088 C 
ATOM     14  C   UNL     1      -1.333   2.112   0.020  0.00  0.00    +0.032 C 
ATOM     15  C   UNL     1      -1.426   3.021  -1.207  0.00  0.00    +0.059 C 
ATOM     16  H   UNL     1      -2.948   3.631  -3.324  0.00  0.00    +0.155 HD
ENDROOT
BRANCH  10  17
ATOM     17  C   UNL     1      -5.708   3.988   0.518  0.00  0.00    +0.010 A 
ATOM     18  C   UNL     1      -6.030   2.874  -0.235  0.00  0.00    +0.057 A 
ATOM     19  C   UNL     1      -7.045   2.027   0.178  0.00  0.00    +0.162 A 
ATOM     20  C   UNL     1      -7.748   2.304   1.347  0.00  0.00    +0.165 A 
ATOM     21  C   UNL     1      -7.428   3.423   2.098  0.00  0.00    +0.095 A 
ATOM     22  C   UNL     1      -6.407   4.265   1.683  0.00  0.00    +0.128 A 
BRANCH  22  23
ATOM     23  O   UNL     1      -6.091   5.364   2.420  0.00  0.00    -0.495 OA
ATOM     24  C   UNL     1      -6.852   5.589   3.608  0.00  0.00    +0.277 C 
ENDBRANCH  22  23
BRANCH  20  25
ATOM     25  O   UNL     1      -8.749   1.476   1.752  0.00  0.00    -0.491 OA
ATOM     26  C   UNL     1      -9.427   1.821   2.961  0.00  0.00    +0.277 C 
ENDBRANCH  20  25
BRANCH  19  27
ATOM     27  O   UNL     1      -7.358   0.929  -0.561  0.00  0.00    -0.491 OA
ATOM     28  C   UNL     1      -6.595   0.707  -1.748  0.00  0.00    +0.277 C 
ENDBRANCH  19  27
ENDBRANCH  10  17
BRANCH  14  29
ATOM     29  C   UNL     1      -0.017   1.378   0.010  0.00  0.00    -0.040 A 
ATOM     30  C   UNL     1       1.169   2.089   0.002  0.00  0.00    +0.008 A 
ATOM     31  C   UNL     1       2.379   1.420  -0.013  0.00  0.00    +0.049 A 
ATOM     32  C   UNL     1       2.405   0.035  -0.021  0.00  0.00    +0.161 A 
ATOM     33  C   UNL     1       1.211  -0.680  -0.013  0.00  0.00    +0.162 A 
ATOM     34  C   UNL     1       0.002  -0.004   0.002  0.00  0.00    +0.053 A 
BRANCH  33  35
ATOM     35  O   UNL     1       1.232  -2.040  -0.021  0.00  0.00    -0.491 OA
ATOM     36  C   UNL     1      -0.032  -2.708  -0.013  0.00  0.00    +0.277 C 
ENDBRANCH  33  35
BRANCH  32  37
ATOM     37  O   UNL     1       3.594  -0.625  -0.036  0.00  0.00    -0.491 OA
ATOM     38  C   UNL     1       4.779   0.174  -0.043  0.00  0.00    +0.277 C 
ENDBRANCH  32  37
ENDBRANCH  14  29
TORSDOF 7
