REMARK  Name = ZINC66257392
REMARK  8 active torsions:
REMARK  status: ('A' for Active; 'I' for Inactive)
REMARK    1  A    between atoms: C_1  and  N_2
REMARK    2  A    between atoms: N_2  and  C_3
REMARK    3  A    between atoms: C_6  and  C_11
REMARK    4  A    between atoms: C_11  and  S_12
REMARK    5  A    between atoms: S_12  and  C_13
REMARK    6  A    between atoms: C_16  and  C_18
REMARK    7  A    between atoms: C_18  and  C_19
REMARK    8  A    between atoms: C_19  and  C_20
REMARK                            x       y       z     vdW  Elec       q    Type
REMARK                         _______ _______ _______ _____ _____    ______ ____
ROOT
ATOM      1  S   UNL     1      -1.679  -4.802  -2.347  0.00  0.00    -0.058 S 
ENDROOT
BRANCH   1   2
ATOM      2  C   UNL     1      -1.494  -6.555  -2.353  0.00  0.00    +0.278 A 
ATOM      3  N   UNL     1      -0.362  -7.217  -2.358  0.00  0.00    -0.101 NA
ATOM      4  N   UNL     1      -0.608  -8.480  -2.362  0.00  0.00    -0.112 NA
ATOM      5  C   UNL     1      -1.895  -8.673  -2.361  0.00  0.00    +0.218 A 
ATOM      6  O   UNL     1      -2.488  -7.463  -2.349  0.00  0.00    -0.416 OA
BRANCH   5   7
ATOM      7  C   UNL     1      -2.595 -10.007  -2.365  0.00  0.00    +0.098 C 
BRANCH   7   8
ATOM      8  C   UNL     1      -2.829 -10.465  -0.924  0.00  0.00    +0.013 C 
BRANCH   8   9
ATOM      9  C   UNL     1      -3.540 -11.820  -0.928  0.00  0.00    -0.011 C 
ATOM     10  C   UNL     1      -4.936 -11.661  -1.535  0.00  0.00    +0.003 C 
ATOM     11  C   UNL     1      -5.647 -13.016  -1.539  0.00  0.00    +0.000 C 
ATOM     12  C   UNL     1      -5.770 -13.532  -0.104  0.00  0.00    +0.000 C 
ATOM     13  C   UNL     1      -4.374 -13.690   0.502  0.00  0.00    +0.000 C 
ATOM     14  C   UNL     1      -3.663 -12.335   0.507  0.00  0.00    +0.003 C 
ENDBRANCH   8   9
ENDBRANCH   7   8
ENDBRANCH   5   7
ENDBRANCH   1   2
BRANCH   1  15
ATOM     15  C   UNL     1       0.025  -4.181  -2.357  0.00  0.00    +0.155 C 
BRANCH  15  21
ATOM     16  C   UNL     1      -0.018   1.461   0.010  0.00  0.00    +0.132 C 
ATOM     17  N   UNL     1       0.002  -0.004   0.002  0.00  0.00    -0.306 N 
ATOM     18  C   UNL     1       0.024  -0.743   1.267  0.00  0.00    +0.132 C 
ATOM     19  C   UNL     1       0.000  -0.688  -1.197  0.00  0.00    +0.222 A 
ATOM     20  N   UNL     1       0.013  -2.019  -1.205  0.00  0.00    -0.198 NA
ATOM     21  C   UNL     1       0.011  -2.674  -2.353  0.00  0.00    +0.146 A 
ATOM     22  N   UNL     1      -0.004  -2.011  -3.496  0.00  0.00    -0.199 NA
ATOM     23  C   UNL     1      -0.016  -0.681  -3.496  0.00  0.00    +0.217 A 
ATOM     24  N   UNL     1      -0.020  -0.018  -2.344  0.00  0.00    -0.181 NA
ATOM     25  N   UNL     1      -0.031   0.010  -4.690  0.00  0.00    -0.327 N 
ATOM     26  H   UNL     1      -0.032  -0.474  -5.531  0.00  0.00    +0.145 HD
ATOM     27  H   UNL     1      -0.040   0.980  -4.689  0.00  0.00    +0.145 HD
ENDBRANCH  15  21
ENDBRANCH   1  15
TORSDOF 6
