REMARK  Name = ZINC48278888
REMARK  3 active torsions:
REMARK  status: ('A' for Active; 'I' for Inactive)
REMARK    1  A    between atoms: C_8  and  C_12
REMARK    2  A    between atoms: C_12  and  N_13
REMARK    3  A    between atoms: N_13  and  C_14
REMARK                            x       y       z     vdW  Elec       q    Type
REMARK                         _______ _______ _______ _____ _____    ______ ____
ROOT
ATOM      1  C   UNL     1       2.635  -4.231   0.086  0.00  0.00    +0.108 C 
ENDROOT
BRANCH   1   9
ATOM      2  C   UNL     1      -0.017   1.377   0.010  0.00  0.00    +0.000 A 
ATOM      3  C   UNL     1       1.172   2.084   0.002  0.00  0.00    +0.004 A 
ATOM      4  C   UNL     1       2.375   1.409  -0.011  0.00  0.00    +0.046 A 
ATOM      5  C   UNL     1       2.398   0.018  -0.018  0.00  0.00    +0.124 A 
ATOM      6  C   UNL     1       1.207  -0.687  -0.014  0.00  0.00    -0.005 A 
ATOM      7  C   UNL     1       0.002  -0.004   0.002  0.00  0.00    +0.007 A 
ATOM      8  C   UNL     1       1.187  -2.194  -0.033  0.00  0.00    +0.047 C 
ATOM      9  C   UNL     1       2.556  -2.734   0.389  0.00  0.00    +0.048 C 
ATOM     10  C   UNL     1       3.634  -1.986  -0.407  0.00  0.00    +0.234 C 
ATOM     11  O   UNL     1       3.602  -0.610  -0.025  0.00  0.00    -0.491 OA
ENDBRANCH   1   9
BRANCH   1  12
ATOM     12  N   UNL     1       3.899  -4.767   0.598  0.00  0.00    -0.341 N 
ATOM     13  H   UNL     1       4.527  -4.181   1.048  0.00  0.00    +0.146 HD
BRANCH  12  14
ATOM     14  C   UNL     1       4.197  -6.110   0.440  0.00  0.00    +0.071 A 
ATOM     15  C   UNL     1       3.290  -6.967  -0.219  0.00  0.00    +0.157 A 
ATOM     16  N   UNL     1       3.568  -8.232  -0.369  0.00  0.00    -0.177 NA
ATOM     17  N   UNL     1       4.765  -8.770   0.116  0.00  0.00    -0.242 N 
ATOM     18  H   UNL     1       4.952  -9.714  -0.006  0.00  0.00    +0.192 HD
ATOM     19  C   UNL     1       5.660  -7.988   0.752  0.00  0.00    +0.285 A 
ATOM     20  O   UNL     1       6.703  -8.464   1.172  0.00  0.00    -0.265 OA
ATOM     21  C   UNL     1       5.388  -6.622   0.922  0.00  0.00    +0.129 A 
ATOM     22 CL   UNL     1       6.527  -5.591   1.730  0.00  0.00    -0.076 Cl
ENDBRANCH  12  14
ENDBRANCH   1  12
TORSDOF 3
