REMARK  Name = ZINC44164069
REMARK  8 active torsions:
REMARK  status: ('A' for Active; 'I' for Inactive)
REMARK    1  A    between atoms: C_1  and  O_2
REMARK    2  A    between atoms: O_2  and  C_3
REMARK    3  A    between atoms: C_7  and  C_9
REMARK    4  A    between atoms: C_14  and  C_17
REMARK    5  A    between atoms: N_19  and  C_20
REMARK    6  A    between atoms: C_20  and  C_21
REMARK    7  A    between atoms: C_21  and  C_22
REMARK    8  A    between atoms: C_25  and  O_28
REMARK                            x       y       z     vdW  Elec       q    Type
REMARK                         _______ _______ _______ _____ _____    ______ ____
ROOT
ATOM      1  C   UNL     1       1.389  -4.130   2.211  0.00  0.00    -0.030 C 
ATOM      2  C   UNL     1       2.765  -4.598   1.723  0.00  0.00    +0.058 C 
ATOM      3  S   UNL     1       2.788  -6.418   1.742  0.00  0.00    -0.163 S 
ATOM      4  C   UNL     1       2.173  -6.806   3.410  0.00  0.00    +0.062 C 
ATOM      5  C   UNL     1       0.885  -6.008   3.646  0.00  0.00    +0.027 C 
ATOM      6  N   UNL     1       1.174  -4.573   3.590  0.00  0.00    +0.392 N 
ATOM      7  H   UNL     1       2.003  -4.380   4.132  0.00  0.00    -0.084 HD
ATOM      8  H   UNL     1       0.397  -4.064   3.984  0.00  0.00    -0.084 HD
ENDROOT
BRANCH   1  13
ATOM      9  C   UNL     1       0.626  -0.618   1.042  0.00  0.00    +0.120 A 
ATOM     10  C   UNL     1       1.202   0.139   2.051  0.00  0.00    +0.045 A 
ATOM     11  C   UNL     1       1.835  -0.488   3.107  0.00  0.00    +0.004 A 
ATOM     12  C   UNL     1       1.895  -1.869   3.158  0.00  0.00    +0.002 A 
ATOM     13  C   UNL     1       1.321  -2.625   2.153  0.00  0.00    -0.057 A 
ATOM     14  C   UNL     1       0.682  -2.003   1.097  0.00  0.00    +0.047 A 
BRANCH   9  16
ATOM     15  C   UNL     1      -0.017   1.425   0.010  0.00  0.00    +0.277 C 
ATOM     16  O   UNL     1       0.002  -0.004   0.002  0.00  0.00    -0.495 OA
ENDBRANCH   9  16
ENDBRANCH   1  13
BRANCH   5  17
ATOM     17  C   UNL     1       0.324  -6.352   5.002  0.00  0.00    +0.200 C 
ATOM     18  O   UNL     1       0.185  -5.485   5.838  0.00  0.00    -0.278 OA
ATOM     19  N   UNL     1      -0.023  -7.623   5.285  0.00  0.00    -0.316 N 
ATOM     20  H   UNL     1       0.088  -8.316   4.616  0.00  0.00    +0.149 HD
BRANCH  19  21
ATOM     21  C   UNL     1      -0.569  -7.957   6.603  0.00  0.00    +0.109 C 
BRANCH  21  22
ATOM     22  C   UNL     1      -0.878  -9.454   6.662  0.00  0.00    +0.054 C 
BRANCH  22  23
ATOM     23  C   UNL     1      -1.440  -9.798   8.017  0.00  0.00    -0.046 A 
ATOM     24  C   UNL     1      -0.589 -10.163   9.044  0.00  0.00    +0.007 A 
ATOM     25  C   UNL     1      -1.101 -10.479  10.288  0.00  0.00    +0.045 A 
ATOM     26  C   UNL     1      -2.470 -10.430  10.506  0.00  0.00    +0.117 A 
ATOM     27  C   UNL     1      -3.322 -10.063   9.474  0.00  0.00    +0.045 A 
ATOM     28  C   UNL     1      -2.804  -9.743   8.234  0.00  0.00    +0.007 A 
BRANCH  26  29
ATOM     29  O   UNL     1      -2.977 -10.741  11.728  0.00  0.00    -0.507 OA
ATOM     30  H   UNL     1      -3.054  -9.984  12.326  0.00  0.00    +0.292 HD
ENDBRANCH  26  29
ENDBRANCH  22  23
ENDBRANCH  21  22
ENDBRANCH  19  21
ENDBRANCH   5  17
TORSDOF 7
