REMARK  Name = ZINC48996409
REMARK  8 active torsions:
REMARK  status: ('A' for Active; 'I' for Inactive)
REMARK    1  A    between atoms: C_1  and  C_2
REMARK    2  A    between atoms: C_6  and  O_8
REMARK    3  A    between atoms: O_8  and  C_9
REMARK    4  A    between atoms: C_9  and  C_10
REMARK    5  A    between atoms: C_10  and  N_11
REMARK    6  A    between atoms: C_12  and  C_14
REMARK    7  A    between atoms: N_16  and  C_17
REMARK    8  A    between atoms: C_19  and  N_25
REMARK                            x       y       z     vdW  Elec       q    Type
REMARK                         _______ _______ _______ _____ _____    ______ ____
ROOT
ATOM      1  C   UNL     1      -2.663  -4.554   6.322  0.00  0.00    +0.303 C 
ATOM      2  O   UNL     1      -3.509  -3.897   5.752  0.00  0.00    -0.265 OA
ATOM      3  N   UNL     1      -2.872  -4.971   7.586  0.00  0.00    -0.275 N 
ATOM      4  H   UNL     1      -2.225  -5.550   8.019  0.00  0.00    +0.155 HD
ENDROOT
BRANCH   3   5
ATOM      5  C   UNL     1      -4.021  -4.568   8.275  0.00  0.00    +0.072 A 
ATOM      6  C   UNL     1      -5.218  -4.398   7.592  0.00  0.00    +0.062 A 
ATOM      7  C   UNL     1      -6.351  -4.000   8.274  0.00  0.00    +0.163 A 
ATOM      8  C   UNL     1      -6.295  -3.769   9.638  0.00  0.00    +0.156 A 
ATOM      9  C   UNL     1      -5.104  -3.937  10.323  0.00  0.00    +0.081 A 
ATOM     10  C   UNL     1      -3.967  -4.341   9.647  0.00  0.00    +0.147 A 
ATOM     11  F   UNL     1      -2.806  -4.511  10.316  0.00  0.00    -0.203 F 
ATOM     12  F   UNL     1      -7.406  -3.380  10.302  0.00  0.00    -0.203 F 
BRANCH   7  13
ATOM     13  N   UNL     1      -7.627  -3.819   7.545  0.00  0.00    +0.059 N 
ATOM     14  O   UNL     1      -7.676  -4.020   6.354  0.00  0.00    -0.126 OA
ATOM     15  O   UNL     1      -8.619  -3.471   8.141  0.00  0.00    -0.126 OA
ENDBRANCH   7  13
ENDBRANCH   3   5
BRANCH   1  17
ATOM     16  N   UNL     1      -1.182  -4.486   4.357  0.00  0.00    -0.304 N 
ATOM     17  C   UNL     1      -1.391  -4.902   5.621  0.00  0.00    +0.299 C 
ATOM     18  O   UNL     1      -0.545  -5.560   6.191  0.00  0.00    -0.265 OA
ATOM     19  H   UNL     1      -1.859  -3.960   3.901  0.00  0.00    +0.149 HD
BRANCH  16  20
ATOM     20  C   UNL     1       0.066  -4.827   3.670  0.00  0.00    +0.145 C 
BRANCH  20  21
ATOM     21  C   UNL     1       0.049  -4.237   2.258  0.00  0.00    +0.247 C 
BRANCH  21  22
ATOM     22  O   UNL     1       0.039  -2.810   2.338  0.00  0.00    -0.490 OA
BRANCH  22  28
ATOM     23  C   UNL     1      -0.015   1.461  -0.024  0.00  0.00    +0.044 C 
ATOM     24  C   UNL     1      -0.004  -0.046  -0.028  0.00  0.00    -0.047 A 
ATOM     25  C   UNL     1      -0.010  -0.735  -1.227  0.00  0.00    +0.003 A 
ATOM     26  C   UNL     1       0.001  -2.117  -1.234  0.00  0.00    +0.004 A 
ATOM     27  C   UNL     1       0.017  -2.814  -0.041  0.00  0.00    +0.045 A 
ATOM     28  C   UNL     1       0.023  -2.126   1.163  0.00  0.00    +0.121 A 
ATOM     29  C   UNL     1       0.018  -0.739   1.167  0.00  0.00    +0.049 A 
ENDBRANCH  22  28
ENDBRANCH  21  22
ENDBRANCH  20  21
ENDBRANCH  16  20
ENDBRANCH   1  17
TORSDOF 7
