REMARK  Name = ZINC19635793
REMARK  5 active torsions:
REMARK  status: ('A' for Active; 'I' for Inactive)
REMARK    1  A    between atoms: C_4  and  O_7
REMARK    2  A    between atoms: O_7  and  C_8
REMARK    3  A    between atoms: C_11  and  N_14
REMARK    4  A    between atoms: C_15  and  C_17
REMARK    5  A    between atoms: C_28  and  C_31
REMARK                            x       y       z     vdW  Elec       q    Type
REMARK                         _______ _______ _______ _____ _____    ______ ____
ROOT
ATOM      1  C   UNL     1       3.990  -8.408   0.307  0.00  0.00    +0.119 C 
ATOM      2  C   UNL     1       3.314  -8.961  -0.949  0.00  0.00    +0.113 C 
ATOM      3  C   UNL     1       4.294  -8.913  -2.094  0.00  0.00    +0.218 C 
ATOM      4  O   UNL     1       3.905  -8.656  -3.213  0.00  0.00    -0.275 OA
ATOM      5  N   UNL     1       5.596  -9.156  -1.876  0.00  0.00    -0.289 N 
ATOM      6  C   UNL     1       6.086  -9.363  -0.613  0.00  0.00    +0.018 C 
ATOM      7  C   UNL     1       5.351  -9.043   0.471  0.00  0.00    +0.024 C 
ATOM      8  C   UNL     1       5.822  -9.292   1.772  0.00  0.00    +0.162 C 
ATOM      9  O   UNL     1       5.122  -9.010   2.724  0.00  0.00    -0.292 OA
ATOM     10  C   UNL     1       7.179  -9.899   2.007  0.00  0.00    +0.091 C 
ATOM     11  C   UNL     1       7.552 -10.774   0.807  0.00  0.00    +0.068 C 
ATOM     12  C   UNL     1       7.479  -9.922  -0.460  0.00  0.00    +0.063 C 
ATOM     13  H   UNL     1       6.204  -9.187  -2.631  0.00  0.00    +0.155 HD
ENDROOT
BRANCH  11  14
ATOM     14  C   UNL     1       8.951 -11.305   0.984  0.00  0.00    +0.109 A 
ATOM     15  C   UNL     1       9.298 -12.604   1.041  0.00  0.00    +0.045 A 
ATOM     16  C   UNL     1      10.701 -12.645   1.213  0.00  0.00    +0.041 A 
ATOM     17  C   UNL     1      11.127 -11.370   1.251  0.00  0.00    +0.195 A 
ATOM     18  O   UNL     1      10.063 -10.563   1.106  0.00  0.00    -0.468 OA
ENDBRANCH  11  14
BRANCH   1  20
ATOM     19  N   UNL     1       3.057  -6.135   0.022  0.00  0.00    -0.285 N 
ATOM     20  C   UNL     1       4.145  -6.915   0.178  0.00  0.00    +0.225 C 
ATOM     21  O   UNL     1       5.250  -6.415   0.214  0.00  0.00    -0.275 OA
ATOM     22  H   UNL     1       2.180  -6.539  -0.071  0.00  0.00    +0.155 HD
BRANCH  19  26
ATOM     23  C   UNL     1       3.460  -1.986  -0.064  0.00  0.00    +0.129 A 
ATOM     24  C   UNL     1       4.447  -2.790  -0.616  0.00  0.00    +0.048 A 
ATOM     25  C   UNL     1       4.314  -4.164  -0.588  0.00  0.00    +0.027 A 
ATOM     26  C   UNL     1       3.192  -4.741  -0.007  0.00  0.00    +0.034 A 
ATOM     27  C   UNL     1       2.205  -3.936   0.546  0.00  0.00    +0.027 A 
ATOM     28  C   UNL     1       2.341  -2.562   0.521  0.00  0.00    +0.048 A 
BRANCH  23  29
ATOM     29  O   UNL     1       3.591  -0.633  -0.092  0.00  0.00    -0.456 OA
BRANCH  29  33
ATOM     30  C   UNL     1       2.903   1.306  -3.668  0.00  0.00    +0.000 A 
ATOM     31  C   UNL     1       3.157   2.039  -2.523  0.00  0.00    +0.004 A 
ATOM     32  C   UNL     1       3.388   1.392  -1.325  0.00  0.00    +0.046 A 
ATOM     33  C   UNL     1       3.364   0.006  -1.270  0.00  0.00    +0.128 A 
ATOM     34  C   UNL     1       3.108  -0.727  -2.420  0.00  0.00    +0.046 A 
ATOM     35  C   UNL     1       2.879  -0.076  -3.616  0.00  0.00    +0.004 A 
ENDBRANCH  29  33
ENDBRANCH  23  29
ENDBRANCH  19  26
ENDBRANCH   1  20
TORSDOF 5
