REMARK  Name = ZINC39630819
REMARK  11 active torsions:
REMARK  status: ('A' for Active; 'I' for Inactive)
REMARK    1  A    between atoms: C_1  and  C_2
REMARK    2  A    between atoms: C_7  and  C_10
REMARK    3  A    between atoms: C_14  and  C_23
REMARK    4  A    between atoms: N_25  and  C_26
REMARK    5  A    between atoms: C_26  and  C_27
REMARK    6  A    between atoms: C_27  and  C_28
REMARK    7  A    between atoms: C_27  and  C_29
REMARK    8  A    between atoms: C_27  and  C_30
REMARK    9  A    between atoms: C_30  and  N_31
REMARK   10  A    between atoms: N_31  and  C_32
REMARK   11  A    between atoms: N_31  and  C_33
REMARK                            x       y       z     vdW  Elec       q    Type
REMARK                         _______ _______ _______ _____ _____    ______ ____
ROOT
ATOM      1  C   UNL     1      -5.597  -3.449   4.412  0.00  0.00    +0.219 C 
ATOM      2  O   UNL     1      -5.769  -2.745   5.384  0.00  0.00    -0.275 OA
ATOM      3  N   UNL     1      -5.647  -4.791   4.535  0.00  0.00    -0.300 N 
ATOM      4  C   UNL     1      -5.356  -5.809   3.498  0.00  0.00    +0.121 C 
ATOM      5  C   UNL     1      -4.602  -6.928   4.252  0.00  0.00    +0.100 C 
ATOM      6  C   UNL     1      -5.035  -6.774   5.719  0.00  0.00    -0.004 C 
ATOM      7  C   UNL     1      -6.002  -5.580   5.738  0.00  0.00    +0.115 C 
ATOM      8  C   UNL     1      -3.825  -6.478   6.600  0.00  0.00    -0.010 C 
ATOM      9  C   UNL     1      -4.273  -6.386   8.061  0.00  0.00    -0.082 C 
ATOM     10  N   UNL     1      -4.899  -7.651   8.464  0.00  0.00    +0.379 N 
ATOM     11  C   UNL     1      -6.115  -7.882   7.674  0.00  0.00    -0.082 C 
ATOM     12  C   UNL     1      -5.745  -8.037   6.197  0.00  0.00    -0.010 C 
ATOM     13  H   UNL     1      -4.251  -8.409   8.310  0.00  0.00    -0.086 HD
ATOM     14  H   UNL     1      -5.138  -7.610   9.443  0.00  0.00    -0.086 HD
ENDROOT
BRANCH   1  21
ATOM     15  C   UNL     1      -7.336   0.307  -0.287  0.00  0.00    +0.109 C 
ATOM     16  C   UNL     1      -6.069   0.318   0.529  0.00  0.00    +0.212 C 
ATOM     17  O   UNL     1      -5.453   1.351   0.679  0.00  0.00    -0.276 OA
ATOM     18  N   UNL     1      -5.622  -0.822   1.093  0.00  0.00    -0.302 N 
ATOM     19  C   UNL     1      -6.354  -2.083   0.916  0.00  0.00    +0.108 C 
ATOM     20  C   UNL     1      -6.639  -2.686   2.296  0.00  0.00    +0.032 C 
ATOM     21  C   UNL     1      -5.325  -2.825   3.068  0.00  0.00    +0.078 C 
ATOM     22  C   UNL     1      -4.698  -1.443   3.264  0.00  0.00    +0.032 C 
ATOM     23  C   UNL     1      -4.388  -0.828   1.891  0.00  0.00    +0.108 C 
ENDBRANCH   1  21
BRANCH   5  24
ATOM     24  C   UNL     1      -3.112  -6.738   4.120  0.00  0.00    +0.218 C 
ATOM     25  O   UNL     1      -2.647  -5.620   4.053  0.00  0.00    -0.275 OA
ATOM     26  N   UNL     1      -2.298  -7.811   4.075  0.00  0.00    -0.315 N 
ATOM     27  H   UNL     1      -2.670  -8.705   4.127  0.00  0.00    +0.149 HD
BRANCH  26  28
ATOM     28  C   UNL     1      -0.850  -7.626   3.946  0.00  0.00    +0.108 C 
BRANCH  28  29
ATOM     29  C   UNL     1      -0.162  -8.993   3.919  0.00  0.00    -0.034 C 
ATOM     30  C   UNL     1      -0.468  -9.743   5.217  0.00  0.00    +0.010 C 
ATOM     31  C   UNL     1      -0.681  -9.801   2.728  0.00  0.00    +0.010 C 
BRANCH  29  32
ATOM     32  C   UNL     1       1.349  -8.800   3.784  0.00  0.00    -0.072 C 
BRANCH  32  33
ATOM     33  N   UNL     1       1.999 -10.110   3.641  0.00  0.00    +0.376 N 
ATOM     34  C   UNL     1       1.973 -10.517   2.230  0.00  0.00    -0.097 C 
ATOM     35  C   UNL     1       3.392 -10.018   4.098  0.00  0.00    -0.097 C 
ATOM     36  H   UNL     1       1.507 -10.792   4.197  0.00  0.00    -0.083 HD
ENDBRANCH  32  33
ENDBRANCH  29  32
ENDBRANCH  28  29
ENDBRANCH  26  28
ENDBRANCH   5  24
TORSDOF 6
