REMARK  Name = ZINC07778004
REMARK  5 active torsions:
REMARK  status: ('A' for Active; 'I' for Inactive)
REMARK    1  A    between atoms: C_1  and  C_2
REMARK    2  A    between atoms: C_7  and  C_8
REMARK    3  A    between atoms: C_12  and  C_13
REMARK    4  A    between atoms: C_12  and  O_29
REMARK    5  A    between atoms: C_14  and  C_19
REMARK                            x       y       z     vdW  Elec       q    Type
REMARK                         _______ _______ _______ _____ _____    ______ ____
ROOT
ATOM      1  C   UNL     1      -1.066   6.284  -0.697  0.00  0.00    +0.064 A 
ATOM      2  C   UNL     1       0.054   5.670  -0.214  0.00  0.00    +0.087 A 
ATOM      3  N   UNL     1       0.875   6.347   0.586  0.00  0.00    -0.225 NA
ATOM      4  C   UNL     1       0.629   7.603   0.911  0.00  0.00    +0.156 A 
ATOM      5  S   UNL     1      -0.903   7.905   0.041  0.00  0.00    -0.053 S 
ATOM      6  N   UNL     1       1.362   8.458   1.718  0.00  0.00    -0.337 N 
ATOM      7  H   UNL     1       1.052   9.364   1.871  0.00  0.00    +0.144 HD
ATOM      8  H   UNL     1       2.185   8.151   2.129  0.00  0.00    +0.144 HD
ENDROOT
BRANCH   1  20
ATOM      9  C   UNL     1      -5.353   9.749  -4.192  0.00  0.00    +0.044 C 
ATOM     10  C   UNL     1      -4.443   8.729  -3.558  0.00  0.00    -0.046 A 
ATOM     11  C   UNL     1      -3.105   8.691  -3.905  0.00  0.00    +0.004 A 
ATOM     12  C   UNL     1      -2.269   7.753  -3.322  0.00  0.00    +0.009 A 
ATOM     13  C   UNL     1      -2.773   6.863  -2.401  0.00  0.00    +0.019 A 
ATOM     14  C   UNL     1      -4.115   6.891  -2.044  0.00  0.00    +0.043 A 
ATOM     15  C   UNL     1      -4.950   7.838  -2.634  0.00  0.00    -0.026 A 
ATOM     16  C   UNL     1      -6.410   7.888  -2.264  0.00  0.00    +0.046 C 
ATOM     17  N   UNL     1      -4.384   5.899  -1.100  0.00  0.00    -0.282 N 
ATOM     18  C   UNL     1      -3.290   5.185  -0.787  0.00  0.00    +0.259 C 
ATOM     19  O   UNL     1      -3.232   4.265   0.001  0.00  0.00    -0.272 OA
ATOM     20  C   UNL     1      -2.144   5.745  -1.602  0.00  0.00    +0.202 C 
ATOM     21  H   UNL     1      -5.261   5.743  -0.715  0.00  0.00    +0.155 HD
BRANCH  20  22
ATOM     22  O   UNL     1      -1.610   4.746  -2.473  0.00  0.00    -0.371 OA
ATOM     23  H   UNL     1      -1.220   3.990  -2.013  0.00  0.00    +0.212 HD
ENDBRANCH  20  22
ENDBRANCH   1  20
BRANCH   2  24
ATOM     24  C   UNL     1       0.349   4.261  -0.573  0.00  0.00    +0.005 A 
ATOM     25  C   UNL     1       1.556   3.936  -1.190  0.00  0.00    +0.014 A 
ATOM     26  C   UNL     1       1.826   2.626  -1.529  0.00  0.00    +0.050 A 
ATOM     27  C   UNL     1       0.904   1.627  -1.249  0.00  0.00    +0.162 A 
ATOM     28  C   UNL     1      -0.300   1.946  -0.631  0.00  0.00    +0.163 A 
ATOM     29  C   UNL     1      -0.579   3.260  -0.294  0.00  0.00    +0.059 A 
ATOM     30  O   UNL     1      -1.216   0.979  -0.348  0.00  0.00    -0.485 OA
ATOM     31  C   UNL     1      -1.067  -0.269  -1.035  0.00  0.00    +0.270 C 
ATOM     32  C   UNL     1       0.410  -0.682  -0.965  0.00  0.00    +0.270 C 
ATOM     33  O   UNL     1       1.192   0.341  -1.590  0.00  0.00    -0.485 OA
ENDBRANCH   2  24
TORSDOF 3
