REMARK  Name = ZINC40304527
REMARK  5 active torsions:
REMARK  status: ('A' for Active; 'I' for Inactive)
REMARK    1  A    between atoms: C_1  and  C_2
REMARK    2  A    between atoms: C_2  and  C_3
REMARK    3  A    between atoms: C_7  and  C_22
REMARK    4  A    between atoms: C_11  and  C_13
REMARK    5  A    between atoms: C_15  and  N_21
REMARK                            x       y       z     vdW  Elec       q    Type
REMARK                         _______ _______ _______ _____ _____    ______ ____
ROOT
ATOM      1  C   UNL     1      -1.625  -0.675  -0.068  0.00  0.00    +0.102 C 
ATOM      2  C   UNL     1      -1.902  -2.149  -0.387  0.00  0.00    +0.182 C 
ATOM      3  O   UNL     1      -1.539  -2.951   0.739  0.00  0.00    -0.373 OA
ATOM      4  C   UNL     1      -2.293  -2.676   1.922  0.00  0.00    +0.133 C 
ATOM      5  C   UNL     1      -2.037  -1.229   2.359  0.00  0.00    +0.139 C 
ATOM      6  N   UNL     1      -2.281  -0.345   1.208  0.00  0.00    -0.290 N 
ATOM      7  C   UNL     1      -3.081   0.734   1.317  0.00  0.00    +0.247 C 
ATOM      8  O   UNL     1      -3.216   1.489   0.375  0.00  0.00    -0.270 OA
ATOM      9  C   UNL     1      -1.864  -3.632   3.036  0.00  0.00    +0.039 C 
ENDROOT
BRANCH   7  10
ATOM     10  C   UNL     1      -3.795   0.999   2.584  0.00  0.00    +0.040 A 
ATOM     11  C   UNL     1      -3.105   0.960   3.797  0.00  0.00    +0.037 A 
ATOM     12  C   UNL     1      -3.780   1.209   4.981  0.00  0.00    +0.045 A 
ATOM     13  C   UNL     1      -5.141   1.497   4.959  0.00  0.00    +0.080 A 
ATOM     14  C   UNL     1      -5.825   1.535   3.756  0.00  0.00    +0.062 A 
ATOM     15  C   UNL     1      -5.159   1.295   2.571  0.00  0.00    +0.034 A 
ATOM     16 CL   UNL     1      -7.523   1.895   3.737  0.00  0.00    -0.082 Cl
ATOM     17 CL   UNL     1      -5.984   1.808   6.444  0.00  0.00    -0.080 Cl
BRANCH  12  18
ATOM     18  N   UNL     1      -3.094   1.171   6.199  0.00  0.00    -0.357 N 
ATOM     19  H   UNL     1      -2.145   0.970   6.214  0.00  0.00    +0.142 HD
ATOM     20  H   UNL     1      -3.566   1.345   7.027  0.00  0.00    +0.142 HD
ENDBRANCH  12  18
ENDBRANCH   7  10
BRANCH   1  22
ATOM     21  C   UNL     1       0.160   1.041   0.262  0.00  0.00    +0.006 C 
ATOM     22  C   UNL     1      -0.117  -0.449   0.054  0.00  0.00    +0.021 C 
ENDBRANCH   1  22
TORSDOF 3
