REMARK  Name = ZINC04160855
REMARK  4 active torsions:
REMARK  status: ('A' for Active; 'I' for Inactive)
REMARK    1  A    between atoms: C_1  and  C_2
REMARK    2  A    between atoms: C_8  and  C_10
REMARK    3  A    between atoms: C_10  and  S_11
REMARK    4  A    between atoms: S_11  and  C_12
REMARK                            x       y       z     vdW  Elec       q    Type
REMARK                         _______ _______ _______ _____ _____    ______ ____
ROOT
ATOM      1  C   UNL     1       0.129  -9.040  -0.339  0.00  0.00    +0.274 C 
ATOM      2  N   UNL     1       0.132  -9.320   0.935  0.00  0.00    -0.135 NA
ATOM      3  N   UNL     1       0.154 -10.717   1.061  0.00  0.00    -0.203 N 
ATOM      4  C   UNL     1       0.163 -11.221  -0.182  0.00  0.00    +0.216 C 
ATOM      5  C   UNL     1       0.186 -12.640  -0.538  0.00  0.00    +0.034 C 
ATOM      6  C   UNL     1       0.195 -13.617   0.469  0.00  0.00    +0.017 C 
ATOM      7  C   UNL     1       0.216 -14.938   0.137  0.00  0.00    +0.051 C 
ATOM      8  C   UNL     1       0.229 -15.322  -1.212  0.00  0.00    +0.179 C 
ATOM      9  O   UNL     1       0.250 -16.615  -1.537  0.00  0.00    -0.288 OA
ATOM     10  C   UNL     1       0.221 -14.345  -2.220  0.00  0.00    +0.051 C 
ATOM     11  C   UNL     1       0.194 -13.025  -1.888  0.00  0.00    +0.017 C 
ATOM     12  O   UNL     1       0.143 -10.190  -1.038  0.00  0.00    -0.415 OA
ATOM     13  H   UNL     1       0.162 -11.223   1.889  0.00  0.00    +0.178 HD
ENDROOT
BRANCH   1  14
ATOM     14  S   UNL     1       0.103  -7.420  -1.031  0.00  0.00    -0.056 S 
BRANCH  14  15
ATOM     15  C   UNL     1       0.093  -6.325   0.415  0.00  0.00    +0.175 C 
BRANCH  15  23
ATOM     16  C   UNL     1      -0.018   1.503   0.010  0.00  0.00    +0.075 C 
ATOM     17  C   UNL     1       0.002  -0.004   0.002  0.00  0.00    +0.101 A 
ATOM     18  N   UNL     1       0.010  -0.844  -1.014  0.00  0.00    -0.145 NA
ATOM     19  N   UNL     1       0.028  -2.086  -0.784  0.00  0.00    -0.126 NA
ATOM     20  C   UNL     1       0.040  -2.568   0.443  0.00  0.00    +0.188 A 
ATOM     21  S   UNL     1       0.031  -1.158   1.367  0.00  0.00    -0.036 S 
ATOM     22  N   UNL     1       0.060  -3.893   0.865  0.00  0.00    -0.263 N 
ATOM     23  C   UNL     1       0.071  -4.889  -0.043  0.00  0.00    +0.229 C 
ATOM     24  O   UNL     1       0.063  -4.630  -1.227  0.00  0.00    -0.275 OA
ATOM     25  H   UNL     1       0.067  -4.100   1.813  0.00  0.00    +0.157 HD
ENDBRANCH  15  23
ENDBRANCH  14  15
ENDBRANCH   1  14
TORSDOF 3
