REMARK  Name = ZINC58393464
REMARK  8 active torsions:
REMARK  status: ('A' for Active; 'I' for Inactive)
REMARK    1  A    between atoms: C_1  and  C_2
REMARK    2  A    between atoms: C_7  and  C_8
REMARK    3  A    between atoms: C_7  and  C_9
REMARK    4  A    between atoms: N_12  and  N_13
REMARK    5  A    between atoms: C_14  and  C_16
REMARK    6  A    between atoms: C_16  and  O_17
REMARK    7  A    between atoms: O_17  and  C_18
REMARK    8  A    between atoms: C_23  and  N_24
REMARK                            x       y       z     vdW  Elec       q    Type
REMARK                         _______ _______ _______ _____ _____    ______ ____
ROOT
ATOM      1  N   UNL     1       0.514   1.231  -2.587  0.00  0.00    -0.204 N 
ATOM      2  C   UNL     1       0.608   1.768  -3.819  0.00  0.00    +0.270 C 
ATOM      3  O   UNL     1       0.946   1.077  -4.758  0.00  0.00    -0.270 OA
ATOM      4  H   UNL     1       0.244   1.783  -1.836  0.00  0.00    +0.177 HD
ENDROOT
BRANCH   1  15
ATOM      5  C   UNL     1       0.812   1.639   0.070  0.00  0.00    +0.018 C 
ATOM      6  C   UNL     1       0.558   0.131   0.111  0.00  0.00    +0.013 C 
ATOM      7  C   UNL     1      -0.856  -0.307   0.602  0.00  0.00    +0.013 C 
ATOM      8  C   UNL     1      -0.678  -1.781   1.034  0.00  0.00    +0.005 C 
ATOM      9  C   UNL     1       0.825  -2.091   0.754  0.00  0.00    +0.001 C 
ATOM     10  C   UNL     1       1.472  -0.698   1.080  0.00  0.00    -0.021 C 
ATOM     11  C   UNL     1       1.272  -0.299   2.543  0.00  0.00    +0.012 C 
ATOM     12  C   UNL     1       2.946  -0.639   0.671  0.00  0.00    +0.012 C 
ATOM     13  C   UNL     1       0.930  -2.111  -0.802  0.00  0.00    +0.057 C 
ATOM     14  C   UNL     1       0.779  -0.620  -1.209  0.00  0.00    +0.044 C 
ATOM     15  N   UNL     1       0.806  -0.125  -2.389  0.00  0.00    -0.189 NA
ENDBRANCH   1  15
BRANCH   2  16
ATOM     16  C   UNL     1       0.294   3.226  -4.032  0.00  0.00    +0.326 C 
BRANCH  16  17
ATOM     17  O   UNL     1       0.466   3.554  -5.412  0.00  0.00    -0.480 OA
BRANCH  17  18
ATOM     18  C   UNL     1       0.221   4.840  -5.776  0.00  0.00    +0.154 A 
ATOM     19  C   UNL     1      -0.171   5.769  -4.822  0.00  0.00    +0.086 A 
ATOM     20  C   UNL     1      -0.419   7.078  -5.195  0.00  0.00    +0.127 A 
ATOM     21  C   UNL     1      -0.277   7.460  -6.519  0.00  0.00    +0.041 A 
ATOM     22  C   UNL     1       0.113   6.535  -7.469  0.00  0.00    +0.039 A 
ATOM     23  C   UNL     1       0.368   5.228  -7.099  0.00  0.00    +0.168 A 
ATOM     24  F   UNL     1      -0.801   7.983  -4.268  0.00  0.00    -0.205 F 
BRANCH  23  25
ATOM     25  N   UNL     1       0.791   4.240  -8.117  0.00  0.00    +0.060 N 
ATOM     26  O   UNL     1       0.919   4.578  -9.271  0.00  0.00    -0.126 OA
ATOM     27  O   UNL     1       1.010   3.096  -7.795  0.00  0.00    -0.126 OA
ENDBRANCH  23  25
ENDBRANCH  17  18
ENDBRANCH  16  17
ENDBRANCH   2  16
TORSDOF 5
