REMARK  Name = ZINC39015714
REMARK  12 active torsions:
REMARK  status: ('A' for Active; 'I' for Inactive)
REMARK    1  A    between atoms: C_1  and  C_2
REMARK    2  A    between atoms: C_2  and  O_3
REMARK    3  A    between atoms: O_3  and  C_4
REMARK    4  A    between atoms: C_9  and  C_28
REMARK    5  A    between atoms: C_11  and  N_14
REMARK    6  A    between atoms: C_15  and  C_17
REMARK    7  A    between atoms: C_17  and  N_18
REMARK    8  A    between atoms: C_20  and  C_27
REMARK    9  A    between atoms: C_23  and  C_26
REMARK   10  A    between atoms: C_28  and  O_30
REMARK   11  A    between atoms: O_30  and  C_31
REMARK   12  A    between atoms: C_31  and  C_32
REMARK                            x       y       z     vdW  Elec       q    Type
REMARK                         _______ _______ _______ _____ _____    ______ ____
ROOT
ATOM      1  C   UNL     1      -0.594  -2.202   2.364  0.00  0.00    +0.121 A 
ATOM      2  C   UNL     1      -1.035  -2.989   1.291  0.00  0.00    +0.047 A 
ATOM      3  C   UNL     1      -0.472  -4.187   1.005  0.00  0.00    +0.029 A 
ATOM      4  C   UNL     1       0.596  -4.676   1.802  0.00  0.00    +0.045 A 
ATOM      5  N   UNL     1       1.298  -5.789   1.731  0.00  0.00    -0.367 N 
ATOM      6  C   UNL     1       2.292  -5.798   2.809  0.00  0.00    +0.234 C 
ATOM      7  C   UNL     1       2.096  -4.503   3.567  0.00  0.00    +0.053 C 
ATOM      8  C   UNL     1       1.059  -3.848   2.929  0.00  0.00    +0.021 A 
ATOM      9  C   UNL     1       0.427  -2.602   3.167  0.00  0.00    +0.057 A 
ATOM     10  H   UNL     1       1.176  -6.490   1.072  0.00  0.00    +0.161 HD
ENDROOT
BRANCH   7  11
ATOM     11  N   UNL     1       2.797  -4.073   4.655  0.00  0.00    -0.288 N 
ATOM     12  C   UNL     1       3.003  -2.755   4.846  0.00  0.00    +0.200 C 
ATOM     13  O   UNL     1       2.535  -1.950   4.069  0.00  0.00    -0.278 OA
ATOM     14  H   UNL     1       3.147  -4.715   5.292  0.00  0.00    +0.155 HD
BRANCH  12  15
ATOM     15  C   UNL     1       3.814  -2.281   6.024  0.00  0.00    +0.019 C 
BRANCH  15  16
ATOM     16  N   UNL     1       3.892  -0.814   6.008  0.00  0.00    +0.386 N 
ATOM     17  C   UNL     1       4.630  -0.378   4.816  0.00  0.00    -0.075 C 
ATOM     18  C   UNL     1       4.644   1.151   4.752  0.00  0.00    -0.031 C 
ATOM     19  C   UNL     1       5.325   1.703   6.007  0.00  0.00    +0.003 C 
ATOM     20  C   UNL     1       4.590   1.181   7.246  0.00  0.00    -0.031 C 
ATOM     21  C   UNL     1       4.579  -0.348   7.218  0.00  0.00    -0.075 C 
ATOM     22  C   UNL     1       5.309   1.665   8.507  0.00  0.00    +0.005 C 
ATOM     23  C   UNL     1       5.416   1.602   3.510  0.00  0.00    +0.005 C 
ATOM     24  H   UNL     1       2.959  -0.429   5.982  0.00  0.00    -0.081 HD
ENDBRANCH  15  16
ENDBRANCH  12  15
ENDBRANCH   7  11
BRANCH   6  25
ATOM     25  C   UNL     1       2.060  -6.975   3.720  0.00  0.00    +0.336 C 
ATOM     26  O   UNL     1       0.992  -7.540   3.717  0.00  0.00    -0.248 OA
BRANCH  25  27
ATOM     27  O   UNL     1       3.040  -7.396   4.535  0.00  0.00    -0.463 OA
BRANCH  27  28
ATOM     28  C   UNL     1       2.750  -8.518   5.372  0.00  0.00    +0.229 C 
ATOM     29  C   UNL     1       3.978  -8.850   6.223  0.00  0.00    +0.048 C 
ENDBRANCH  27  28
ENDBRANCH  25  27
ENDBRANCH   6  25
BRANCH   1  30
ATOM     30  O   UNL     1      -1.198  -1.007   2.604  0.00  0.00    -0.492 OA
BRANCH  30  32
ATOM     31  C   UNL     1      -2.817   0.730   2.153  0.00  0.00    +0.048 C 
ATOM     32  C   UNL     1      -2.266  -0.633   1.730  0.00  0.00    +0.225 C 
ENDBRANCH  30  32
ENDBRANCH   1  30
TORSDOF 8
