REMARK  Name = ZINC12815990
REMARK  9 active torsions:
REMARK  status: ('A' for Active; 'I' for Inactive)
REMARK    1  A    between atoms: C_1  and  C_2
REMARK    2  A    between atoms: C_5  and  O_14
REMARK    3  A    between atoms: C_8  and  C_13
REMARK    4  A    between atoms: O_14  and  C_15
REMARK    5  A    between atoms: C_15  and  C_16
REMARK    6  A    between atoms: N_18  and  N_19
REMARK    7  A    between atoms: C_20  and  C_22
REMARK    8  A    between atoms: C_23  and  C_33
REMARK    9  A    between atoms: C_25  and  C_27
REMARK                            x       y       z     vdW  Elec       q    Type
REMARK                         _______ _______ _______ _____ _____    ______ ____
ROOT
ATOM      1  C   UNL     1      -2.477   0.409   0.941  0.00  0.00    +0.267 C 
ATOM      2  O   UNL     1      -3.235   1.328   1.167  0.00  0.00    -0.271 OA
ATOM      3  N   UNL     1      -2.924  -0.862   0.998  0.00  0.00    -0.231 N 
ATOM      4  H   UNL     1      -2.318  -1.597   0.817  0.00  0.00    +0.173 HD
ENDROOT
BRANCH   3   5
ATOM      5  N   UNL     1      -4.263  -1.120   1.318  0.00  0.00    -0.230 N 
ATOM      6  C   UNL     1      -4.710  -2.390   1.374  0.00  0.00    +0.269 C 
ATOM      7  O   UNL     1      -3.950  -3.313   1.148  0.00  0.00    -0.268 OA
ATOM      8  H   UNL     1      -4.869  -0.384   1.498  0.00  0.00    +0.173 HD
BRANCH   6   9
ATOM      9  C   UNL     1      -6.111  -2.660   1.709  0.00  0.00    +0.098 A 
ATOM     10  C   UNL     1      -6.779  -3.873   1.823  0.00  0.00    +0.058 A 
ATOM     11  N   UNL     1      -8.045  -3.843   2.138  0.00  0.00    -0.243 NA
ATOM     12  C   UNL     1      -8.683  -2.700   2.344  0.00  0.00    +0.109 A 
ATOM     13  S   UNL     1      -7.434  -1.520   2.092  0.00  0.00    -0.062 S 
ATOM     14  C   UNL     1      -6.065  -5.179   1.590  0.00  0.00    +0.067 C 
BRANCH  12  15
ATOM     15  C   UNL     1     -10.100  -2.483   2.704  0.00  0.00    +0.007 A 
ATOM     16  C   UNL     1     -10.958  -3.573   2.864  0.00  0.00    +0.010 A 
ATOM     17  C   UNL     1     -12.278  -3.364   3.205  0.00  0.00    +0.001 A 
ATOM     18  C   UNL     1     -12.755  -2.077   3.378  0.00  0.00    +0.000 A 
ATOM     19  C   UNL     1     -11.912  -0.992   3.216  0.00  0.00    +0.001 A 
ATOM     20  C   UNL     1     -10.589  -1.187   2.880  0.00  0.00    +0.010 A 
ENDBRANCH  12  15
ENDBRANCH   6   9
ENDBRANCH   3   5
BRANCH   1  21
ATOM     21  C   UNL     1      -1.037   0.686   0.597  0.00  0.00    +0.326 C 
BRANCH  21  22
ATOM     22  O   UNL     1      -0.809   2.097   0.600  0.00  0.00    -0.482 OA
BRANCH  22  27
ATOM     23  C   UNL     1       4.415   3.832  -0.616  0.00  0.00    +0.044 C 
ATOM     24  C   UNL     1       3.015   3.378  -0.290  0.00  0.00    -0.046 A 
ATOM     25  C   UNL     1       2.717   2.025  -0.274  0.00  0.00    +0.007 A 
ATOM     26  C   UNL     1       1.441   1.596   0.029  0.00  0.00    +0.046 A 
ATOM     27  C   UNL     1       0.446   2.519   0.308  0.00  0.00    +0.132 A 
ATOM     28  C   UNL     1       0.742   3.897   0.293  0.00  0.00    +0.063 A 
ATOM     29  C   UNL     1       2.040   4.313  -0.010  0.00  0.00    -0.027 A 
ATOM     30  C   UNL     1       2.111   5.820   0.036  0.00  0.00    +0.024 C 
ATOM     31  C   UNL     1       0.702   6.306   0.404  0.00  0.00    +0.087 C 
ATOM     32  C   UNL     1      -0.126   5.052   0.555  0.00  0.00    +0.168 C 
ATOM     33  O   UNL     1      -1.303   5.007   0.844  0.00  0.00    -0.292 OA
ATOM     34  C   UNL     1       2.515   6.370  -1.333  0.00  0.00    +0.013 C 
ENDBRANCH  22  27
ENDBRANCH  21  22
ENDBRANCH   1  21
TORSDOF 6
