REMARK  Name = ZINC09703475
REMARK  10 active torsions:
REMARK  status: ('A' for Active; 'I' for Inactive)
REMARK    1  A    between atoms: C_1  and  C_2
REMARK    2  A    between atoms: C_2  and  N_58
REMARK    3  A    between atoms: C_3  and  C_4
REMARK    4  A    between atoms: C_3  and  N_58
REMARK    5  A    between atoms: C_11  and  O_18
REMARK    6  A    between atoms: C_12  and  O_16
REMARK    7  A    between atoms: O_16  and  C_17
REMARK    8  A    between atoms: O_18  and  C_19
REMARK    9  A    between atoms: C_20  and  C_21
REMARK   10  A    between atoms: C_20  and  N_58
REMARK                            x       y       z     vdW  Elec       q    Type
REMARK                         _______ _______ _______ _____ _____    ______ ____
ROOT
ATOM      1  N   UNL     1       0.093  -0.056  -0.193  0.00  0.00    +0.389 N 
ATOM      2  H   UNL     1       0.678  -0.356   0.595  0.00  0.00    -0.081 HD
ENDROOT
BRANCH   1   4
ATOM      3  C   UNL     1      -0.072   1.956   1.186  0.00  0.00    -0.017 C 
ATOM      4  C   UNL     1       0.072   1.422  -0.241  0.00  0.00    -0.081 C 
ENDBRANCH   1   4
BRANCH   1   5
ATOM      5  C   UNL     1      -1.278  -0.574   0.001  0.00  0.00    -0.003 C 
BRANCH   5   6
ATOM      6  C   UNL     1      -1.194  -2.024   0.404  0.00  0.00    +0.094 A 
ATOM      7  N   UNL     1      -2.351  -2.726   0.527  0.00  0.00    -0.312 N 
ATOM      8  H   UNL     1      -3.200  -2.288   0.356  0.00  0.00    +0.170 HD
ATOM      9  C   UNL     1      -2.330  -4.031   0.885  0.00  0.00    +0.259 A 
ATOM     10  O   UNL     1      -3.360  -4.672   0.999  0.00  0.00    -0.267 OA
ATOM     11  C   UNL     1      -1.019  -4.644   1.133  0.00  0.00    +0.068 A 
ATOM     12  C   UNL     1      -0.892  -5.982   1.506  0.00  0.00    +0.064 A 
ATOM     13  C   UNL     1       0.363  -6.511   1.726  0.00  0.00    +0.162 A 
ATOM     14  C   UNL     1       1.503  -5.714   1.577  0.00  0.00    +0.164 A 
ATOM     15  C   UNL     1       1.392  -4.388   1.207  0.00  0.00    +0.078 A 
ATOM     16  C   UNL     1       0.130  -3.837   0.980  0.00  0.00    +0.082 A 
ATOM     17  N   UNL     1      -0.021  -2.539   0.611  0.00  0.00    -0.236 NA
BRANCH  14  18
ATOM     18  O   UNL     1       2.732  -6.249   1.797  0.00  0.00    -0.491 OA
ATOM     19  C   UNL     1       3.856  -5.384   1.627  0.00  0.00    +0.277 C 
ENDBRANCH  14  18
BRANCH  13  20
ATOM     20  O   UNL     1       0.493  -7.815   2.090  0.00  0.00    -0.491 OA
ATOM     21  C   UNL     1      -0.710  -8.574   2.225  0.00  0.00    +0.277 C 
ENDBRANCH  13  20
ENDBRANCH   5   6
ENDBRANCH   1   5
BRANCH   1  22
ATOM     22  C   UNL     1       0.664  -0.593  -1.446  0.00  0.00    -0.003 C 
BRANCH  22  23
ATOM     23  C   UNL     1       2.125  -0.232  -1.509  0.00  0.00    +0.094 A 
ATOM     24  N   UNL     1       2.868  -0.643  -2.568  0.00  0.00    -0.312 N 
ATOM     25  H   UNL     1       2.448  -1.164  -3.270  0.00  0.00    +0.170 HD
ATOM     26  C   UNL     1       4.176  -0.339  -2.667  0.00  0.00    +0.260 A 
ATOM     27  O   UNL     1       4.830  -0.711  -3.626  0.00  0.00    -0.267 OA
ATOM     28  C   UNL     1       4.786   0.427  -1.620  0.00  0.00    +0.075 A 
ATOM     29  C   UNL     1       6.186   0.866  -1.516  0.00  0.00    -0.023 A 
ATOM     30  C   UNL     1       6.518   1.583  -0.428  0.00  0.00    -0.004 A 
ATOM     31  S   UNL     1       5.014   1.715   0.512  0.00  0.00    -0.073 S 
ATOM     32  C   UNL     1       3.942   0.803  -0.567  0.00  0.00    +0.116 A 
ATOM     33  N   UNL     1       2.655   0.468  -0.541  0.00  0.00    -0.229 NA
ATOM     34  C   UNL     1       7.970   1.979  -0.431  0.00  0.00    +0.043 C 
ATOM     35  C   UNL     1       8.423   1.780  -1.894  0.00  0.00    +0.010 C 
ATOM     36  C   UNL     1       7.436   0.703  -2.385  0.00  0.00    +0.037 C 
ENDBRANCH  22  23
ENDBRANCH   1  22
TORSDOF 7
