REMARK  Name = ZINC40547636
REMARK  8 active torsions:
REMARK  status: ('A' for Active; 'I' for Inactive)
REMARK    1  A    between atoms: C_1  and  C_2
REMARK    2  A    between atoms: C_2  and  C_3
REMARK    3  A    between atoms: C_3  and  O_4
REMARK    4  A    between atoms: O_4  and  C_5
REMARK    5  A    between atoms: C_8  and  C_11
REMARK    6  A    between atoms: C_14  and  C_30
REMARK    7  A    between atoms: N_21  and  C_22
REMARK    8  A    between atoms: C_35  and  O_36
REMARK                            x       y       z     vdW  Elec       q    Type
REMARK                         _______ _______ _______ _____ _____    ______ ____
ROOT
ATOM      1  C   UNL     1       2.967  -4.552   5.215  0.00  0.00    +0.142 C 
ATOM      2  C   UNL     1       2.175  -4.935   6.435  0.00  0.00    +0.035 A 
ATOM      3  C   UNL     1       1.344  -4.519   7.481  0.00  0.00    +0.102 A 
ATOM      4  N   UNL     1       1.049  -5.585   8.198  0.00  0.00    -0.173 NA
ATOM      5  N   UNL     1       1.610  -6.633   7.709  0.00  0.00    -0.272 N 
ATOM      6  H   UNL     1       1.530  -7.528   8.073  0.00  0.00    +0.189 HD
ATOM      7  C   UNL     1       2.333  -6.298   6.600  0.00  0.00    +0.126 A 
ATOM      8  C   UNL     1       3.199  -6.800   5.527  0.00  0.00    +0.266 C 
ATOM      9  O   UNL     1       3.532  -7.962   5.390  0.00  0.00    -0.268 OA
ATOM     10  N   UNL     1       3.574  -5.793   4.716  0.00  0.00    -0.280 N 
ENDROOT
BRANCH  10  11
ATOM     11  C   UNL     1       4.439  -5.912   3.539  0.00  0.00    +0.100 C 
ATOM     12  C   UNL     1       5.805  -6.474   3.965  0.00  0.00    +0.047 C 
ATOM     13  C   UNL     1       6.581  -6.883   2.680  0.00  0.00    +0.168 C 
ATOM     14  S   UNL     1       5.224  -7.647   1.696  0.00  0.00    -0.029 S 
ATOM     15  O   UNL     1       5.196  -9.044   1.953  0.00  0.00    -0.174 OA
ATOM     16  O   UNL     1       5.310  -7.185   0.354  0.00  0.00    -0.174 OA
ATOM     17  C   UNL     1       3.777  -6.860   2.510  0.00  0.00    +0.188 C 
ENDBRANCH  10  11
BRANCH   1  21
ATOM     18  C   UNL     1       0.383  -2.883   2.248  0.00  0.00    +0.121 A 
ATOM     19  C   UNL     1       0.298  -4.231   2.565  0.00  0.00    +0.046 A 
ATOM     20  C   UNL     1       1.135  -4.768   3.524  0.00  0.00    +0.009 A 
ATOM     21  C   UNL     1       2.056  -3.963   4.169  0.00  0.00    -0.022 A 
ATOM     22  C   UNL     1       2.142  -2.619   3.856  0.00  0.00    +0.009 A 
ATOM     23  C   UNL     1       1.312  -2.079   2.893  0.00  0.00    +0.046 A 
BRANCH  18  24
ATOM     24  O   UNL     1      -0.439  -2.353   1.305  0.00  0.00    -0.492 OA
BRANCH  24  25
ATOM     25  C   UNL     1      -1.370  -3.240   0.683  0.00  0.00    +0.229 C 
BRANCH  25  27
ATOM     26  C   UNL     1      -3.200  -3.418  -1.009  0.00  0.00    +0.007 C 
ATOM     27  C   UNL     1      -2.203  -2.468  -0.343  0.00  0.00    +0.038 C 
ENDBRANCH  25  27
ENDBRANCH  24  25
ENDBRANCH  18  24
ENDBRANCH   1  21
BRANCH   3  28
ATOM     28  C   UNL     1       0.882  -3.132   7.737  0.00  0.00    +0.044 A 
ATOM     29  C   UNL     1       1.369  -2.079   6.966  0.00  0.00    +0.014 A 
ATOM     30  C   UNL     1       0.936  -0.791   7.208  0.00  0.00    +0.001 A 
ATOM     31  C   UNL     1       0.019  -0.541   8.214  0.00  0.00    +0.004 A 
ATOM     32  C   UNL     1      -0.470  -1.579   8.984  0.00  0.00    +0.046 A 
ATOM     33  C   UNL     1      -0.048  -2.877   8.748  0.00  0.00    +0.126 A 
BRANCH  33  34
ATOM     34  O   UNL     1      -0.534  -3.899   9.501  0.00  0.00    -0.506 OA
ATOM     35  H   UNL     1      -0.015  -4.082  10.296  0.00  0.00    +0.292 HD
ENDBRANCH  33  34
ENDBRANCH   3  28
TORSDOF 7
