REMARK  Name = ZINC39242896
REMARK  5 active torsions:
REMARK  status: ('A' for Active; 'I' for Inactive)
REMARK    1  A    between atoms: C_1  and  C_2
REMARK    2  A    between atoms: C_2  and  C_3
REMARK    3  A    between atoms: C_3  and  C_5
REMARK    4  A    between atoms: C_3  and  S_17
REMARK    5  A    between atoms: S_17  and  C_18
REMARK                            x       y       z     vdW  Elec       q    Type
REMARK                         _______ _______ _______ _____ _____    ______ ____
ROOT
ATOM      1  C   UNL     1       0.852  -0.522   1.164  0.00  0.00    +0.140 C 
ENDROOT
BRANCH   1   2
ATOM      2  C   UNL     1       0.861  -2.016   0.964  0.00  0.00    +0.232 C 
ATOM      3  O   UNL     1       1.792  -2.545   0.395  0.00  0.00    -0.274 OA
ATOM      4  N   UNL     1      -0.165  -2.763   1.415  0.00  0.00    -0.264 N 
ATOM      5  C   UNL     1      -0.157  -4.141   1.230  0.00  0.00    +0.165 A 
ATOM      6  N   UNL     1       0.761  -4.881   0.648  0.00  0.00    -0.229 NA
ATOM      7  C   UNL     1       0.636  -6.201   0.541  0.00  0.00    +0.054 A 
ATOM      8  C   UNL     1      -0.503  -6.712   1.076  0.00  0.00    +0.014 A 
ATOM      9  S   UNL     1      -1.316  -5.269   1.704  0.00  0.00    -0.057 S 
ATOM     10  C   UNL     1      -0.932  -8.139   1.113  0.00  0.00    +0.044 C 
ATOM     11  C   UNL     1      -0.058  -8.928   0.125  0.00  0.00    +0.006 C 
ATOM     12  C   UNL     1       1.409  -8.550   0.351  0.00  0.00    +0.006 C 
ATOM     13  C   UNL     1       1.660  -7.115  -0.117  0.00  0.00    +0.056 C 
ATOM     14  H   UNL     1      -0.910  -2.340   1.870  0.00  0.00    +0.157 HD
ENDBRANCH   1   2
BRANCH   1  16
ATOM     15  C   UNL     1      -0.161   1.627   0.392  0.00  0.00    +0.005 C 
ATOM     16  C   UNL     1      -0.039   0.129   0.105  0.00  0.00    +0.020 C 
ENDBRANCH   1  16
BRANCH   1  17
ATOM     17  S   UNL     1       2.541   0.119   1.011  0.00  0.00    -0.072 S 
BRANCH  17  18
ATOM     18  C   UNL     1       3.377  -0.541   2.415  0.00  0.00    +0.208 C 
ATOM     19  N   UNL     1       2.673  -1.214   3.293  0.00  0.00    -0.227 NA
ATOM     20  C   UNL     1       3.387  -1.826   4.411  0.00  0.00    +0.252 C 
ATOM     21  C   UNL     1       4.616  -0.963   4.658  0.00  0.00    +0.117 C 
ATOM     22  C   UNL     1       4.628  -0.718   5.997  0.00  0.00    +0.025 A 
ATOM     23  C   UNL     1       5.569  -0.073   6.838  0.00  0.00    +0.012 A 
ATOM     24  C   UNL     1       5.265   0.020   8.161  0.00  0.00    +0.001 A 
ATOM     25  C   UNL     1       4.091  -0.479   8.735  0.00  0.00    +0.002 A 
ATOM     26  C   UNL     1       3.125  -1.121   8.027  0.00  0.00    +0.026 A 
ATOM     27  C   UNL     1       3.370  -1.275   6.583  0.00  0.00    +0.046 A 
ATOM     28  N   UNL     1       2.652  -1.850   5.668  0.00  0.00    -0.358 N 
ATOM     29  N   UNL     1       5.349  -0.495   3.643  0.00  0.00    -0.147 NA
ATOM     30  N   UNL     1       4.712  -0.328   2.522  0.00  0.00    -0.122 NA
ATOM     31  H   UNL     1       1.770  -2.233   5.799  0.00  0.00    +0.162 HD
ENDBRANCH  17  18
ENDBRANCH   1  17
TORSDOF 4
