REMARK  Name = ZINC00520985
REMARK  5 active torsions:
REMARK  status: ('A' for Active; 'I' for Inactive)
REMARK    1  A    between atoms: C_1  and  O_2
REMARK    2  A    between atoms: O_2  and  C_3
REMARK    3  A    between atoms: C_3  and  C_5
REMARK    4  A    between atoms: C_6  and  N_19
REMARK    5  A    between atoms: C_10  and  C_14
REMARK                            x       y       z     vdW  Elec       q    Type
REMARK                         _______ _______ _______ _____ _____    ______ ____
ROOT
ATOM      1  C   UNL     1      -1.247  -2.046   0.003  0.00  0.00    +0.119 A 
ATOM      2  C   UNL     1      -2.362  -2.859   0.004  0.00  0.00    +0.055 A 
ATOM      3  C   UNL     1      -2.166  -4.299  -0.005  0.00  0.00    +0.029 A 
ATOM      4  C   UNL     1      -3.148  -5.324  -0.005  0.00  0.00    +0.014 A 
ATOM      5  C   UNL     1      -2.752  -6.626  -0.013  0.00  0.00    +0.032 A 
ATOM      6  C   UNL     1      -1.389  -6.952  -0.020  0.00  0.00    +0.107 A 
ATOM      7  N   UNL     1      -0.472  -5.989  -0.020  0.00  0.00    -0.236 NA
ATOM      8  C   UNL     1      -0.816  -4.721  -0.013  0.00  0.00    +0.112 A 
ATOM      9  S   UNL     1       0.107  -3.204  -0.017  0.00  0.00    -0.060 S 
ENDROOT
BRANCH   6  10
ATOM     10  C   UNL     1      -0.972  -8.366  -0.028  0.00  0.00    +0.153 A 
ATOM     11  C   UNL     1       0.312  -8.821  -0.030  0.00  0.00    +0.051 A 
ATOM     12  C   UNL     1       0.244 -10.226  -0.037  0.00  0.00    +0.042 A 
ATOM     13  C   UNL     1      -1.063 -10.559  -0.039  0.00  0.00    +0.196 A 
ATOM     14  O   UNL     1      -1.794  -9.434  -0.029  0.00  0.00    -0.461 OA
ENDBRANCH   6  10
BRANCH   2  15
ATOM     15  N   UNL     1      -3.639  -2.315   0.013  0.00  0.00    -0.356 N 
ATOM     16  H   UNL     1      -3.755  -1.352   0.018  0.00  0.00    +0.142 HD
ATOM     17  H   UNL     1      -4.414  -2.898   0.013  0.00  0.00    +0.142 HD
ENDBRANCH   2  15
BRANCH   1  18
ATOM     18  C   UNL     1      -1.192  -0.633   0.010  0.00  0.00    +0.348 C 
ATOM     19  O   UNL     1      -2.222   0.016   0.023  0.00  0.00    -0.244 OA
BRANCH  18  21
ATOM     20  C   UNL     1      -0.017   1.425   0.010  0.00  0.00    +0.280 C 
ATOM     21  O   UNL     1       0.002  -0.004   0.002  0.00  0.00    -0.464 OA
ENDBRANCH  18  21
ENDBRANCH   1  18
TORSDOF 4
