REMARK  Name = ZINC36366035
REMARK  3 active torsions:
REMARK  status: ('A' for Active; 'I' for Inactive)
REMARK    1  A    between atoms: C_4  and  O_19
REMARK    2  A    between atoms: C_5  and  C_7
REMARK    3  A    between atoms: O_19  and  C_20
REMARK                            x       y       z     vdW  Elec       q    Type
REMARK                         _______ _______ _______ _____ _____    ______ ____
ROOT
ATOM      1  C   UNL     1       1.250  -2.149   0.437  0.00  0.00    +0.071 C 
ATOM      2  C   UNL     1       0.415  -2.872  -0.630  0.00  0.00    +0.109 C 
ATOM      3  C   UNL     1      -1.051  -2.753  -0.326  0.00  0.00    +0.219 C 
ATOM      4  O   UNL     1      -1.823  -2.611  -1.251  0.00  0.00    -0.275 OA
ATOM      5  N   UNL     1      -1.550  -2.798   0.922  0.00  0.00    -0.270 N 
ATOM      6  C   UNL     1      -0.650  -2.751   2.018  0.00  0.00    +0.138 A 
ATOM      7  C   UNL     1       0.659  -2.448   1.770  0.00  0.00    +0.041 A 
ATOM      8  S   UNL     1       1.383  -2.511   3.381  0.00  0.00    -0.055 S 
ATOM      9  C   UNL     1      -0.020  -2.887   4.239  0.00  0.00    +0.158 A 
ATOM     10  N   UNL     1      -0.943  -2.956   3.297  0.00  0.00    -0.210 NA
ATOM     11  N   UNL     1      -0.168  -3.079   5.603  0.00  0.00    -0.337 N 
ATOM     12  H   UNL     1      -2.507  -2.861   1.071  0.00  0.00    +0.156 HD
ATOM     13  H   UNL     1       0.600  -2.999   6.190  0.00  0.00    +0.144 HD
ATOM     14  H   UNL     1      -1.039  -3.293   5.971  0.00  0.00    +0.144 HD
ENDROOT
BRANCH   1  19
ATOM     15  C   UNL     1      -0.019   1.374  -0.045  0.00  0.00    +0.001 A 
ATOM     16  C   UNL     1       1.156   2.066  -0.271  0.00  0.00    +0.004 A 
ATOM     17  C   UNL     1       2.364   1.397  -0.269  0.00  0.00    +0.046 A 
ATOM     18  C   UNL     1       2.398   0.029  -0.039  0.00  0.00    +0.125 A 
ATOM     19  C   UNL     1       1.217  -0.663   0.188  0.00  0.00    +0.003 A 
ATOM     20  C   UNL     1       0.011   0.011   0.184  0.00  0.00    +0.008 A 
BRANCH  18  21
ATOM     21  O   UNL     1       3.586  -0.632  -0.037  0.00  0.00    -0.489 OA
BRANCH  21  22
ATOM     22  C   UNL     1       4.769   0.160  -0.156  0.00  0.00    +0.173 C 
ATOM     23  C   UNL     1       5.100   0.396  -1.644  0.00  0.00    +0.044 C 
ATOM     24  C   UNL     1       6.646   0.340  -1.703  0.00  0.00    +0.004 C 
ATOM     25  C   UNL     1       6.987  -0.786  -0.695  0.00  0.00    +0.004 C 
ATOM     26  C   UNL     1       5.969  -0.591   0.448  0.00  0.00    +0.044 C 
ENDBRANCH  21  22
ENDBRANCH  18  21
ENDBRANCH   1  19
TORSDOF 3
