REMARK  Name = ZINC06863212
REMARK  3 active torsions:
REMARK  status: ('A' for Active; 'I' for Inactive)
REMARK    1  A    between atoms: C_1  and  C_2
REMARK    2  A    between atoms: N_11  and  C_12
REMARK    3  A    between atoms: N_19  and  C_22
REMARK                            x       y       z     vdW  Elec       q    Type
REMARK                         _______ _______ _______ _____ _____    ______ ____
ROOT
ATOM      1  C   UNL     1       0.158  -7.009   0.569  0.00  0.00    +0.092 C 
ATOM      2  C   UNL     1       0.254  -8.356   0.858  0.00  0.00    +0.113 C 
ATOM      3  C   UNL     1       0.350  -9.368  -0.211  0.00  0.00    +0.258 C 
ATOM      4  O   UNL     1       0.346  -9.040  -1.383  0.00  0.00    -0.270 OA
ATOM      5  N   UNL     1       0.442 -10.665   0.146  0.00  0.00    -0.235 N 
ATOM      6  C   UNL     1       0.447 -11.040   1.433  0.00  0.00    +0.320 C 
ATOM      7  O   UNL     1       0.533 -12.225   1.687  0.00  0.00    -0.251 OA
ATOM      8  N   UNL     1       0.364 -10.176   2.455  0.00  0.00    -0.190 N 
ATOM      9  C   UNL     1       0.272  -8.846   2.248  0.00  0.00    +0.265 C 
ATOM     10  O   UNL     1       0.203  -8.072   3.184  0.00  0.00    -0.269 OA
ATOM     11  H   UNL     1       0.505 -11.343  -0.545  0.00  0.00    +0.159 HD
ENDROOT
BRANCH   1  22
ATOM     12  C   UNL     1       0.273   1.506  -0.009  0.00  0.00    +0.044 C 
ATOM     13  C   UNL     1       0.248  -0.001  -0.014  0.00  0.00    -0.049 A 
ATOM     14  C   UNL     1       0.191  -0.697  -1.213  0.00  0.00    +0.005 A 
ATOM     15  C   UNL     1       0.168  -2.067  -1.245  0.00  0.00    +0.029 A 
ATOM     16  C   UNL     1       0.201  -2.818  -0.047  0.00  0.00    +0.080 A 
ATOM     17  C   UNL     1       0.260  -2.075   1.154  0.00  0.00    +0.041 A 
ATOM     18  C   UNL     1       0.288  -0.703   1.176  0.00  0.00    +0.020 A 
ATOM     19  S   UNL     1       0.287  -3.353   2.388  0.00  0.00    -0.052 S 
ATOM     20  C   UNL     1       0.221  -4.746   1.270  0.00  0.00    +0.163 A 
ATOM     21  N   UNL     1       0.185  -4.161   0.095  0.00  0.00    -0.225 NA
ATOM     22  N   UNL     1       0.211  -6.098   1.567  0.00  0.00    -0.299 N 
ATOM     23  H   UNL     1       0.242  -6.392   2.490  0.00  0.00    +0.154 HD
ENDBRANCH   1  22
BRANCH   8  24
ATOM     24  C   UNL     1       0.378 -10.665   3.768  0.00  0.00    +0.046 A 
ATOM     25  C   UNL     1      -0.752 -10.547   4.566  0.00  0.00    +0.024 A 
ATOM     26  C   UNL     1      -0.735 -11.030   5.860  0.00  0.00    +0.002 A 
ATOM     27  C   UNL     1       0.405 -11.632   6.360  0.00  0.00    +0.000 A 
ATOM     28  C   UNL     1       1.532 -11.751   5.567  0.00  0.00    +0.002 A 
ATOM     29  C   UNL     1       1.519 -11.275   4.271  0.00  0.00    +0.024 A 
ENDBRANCH   8  24
TORSDOF 2
