REMARK  Name = ZINC54534268
REMARK  5 active torsions:
REMARK  status: ('A' for Active; 'I' for Inactive)
REMARK    1  A    between atoms: C_1  and  C_2
REMARK    2  A    between atoms: C_3  and  C_21
REMARK    3  A    between atoms: C_7  and  C_8
REMARK    4  A    between atoms: N_11  and  C_12
REMARK    5  A    between atoms: N_11  and  C_13
REMARK                            x       y       z     vdW  Elec       q    Type
REMARK                         _______ _______ _______ _____ _____    ______ ____
ROOT
ATOM      1  C   UNL     1      -2.489  -0.605  -1.234  0.00  0.00    +0.046 C 
ATOM      2  C   UNL     1      -1.189  -1.023  -0.599  0.00  0.00    -0.013 A 
ATOM      3  C   UNL     1       0.024  -0.760  -1.213  0.00  0.00    +0.035 A 
ATOM      4  N   UNL     1       1.152  -1.133  -0.642  0.00  0.00    -0.280 N 
ATOM      5  N   UNL     1       1.189  -1.745   0.485  0.00  0.00    -0.158 NA
ATOM      6  C   UNL     1       0.088  -2.048   1.161  0.00  0.00    +0.156 A 
ATOM      7  C   UNL     1      -1.168  -1.686   0.636  0.00  0.00    +0.109 A 
ATOM      8  N   UNL     1       0.174  -2.708   2.372  0.00  0.00    -0.312 N 
ATOM      9  C   UNL     1       0.158  -1.947   3.624  0.00  0.00    +0.131 C 
ATOM     10  C   UNL     1       0.054  -0.044  -2.539  0.00  0.00    +0.065 C 
ATOM     11  H   UNL     1       1.989  -0.938  -1.092  0.00  0.00    +0.189 HD
ENDROOT
BRANCH   8  12
ATOM     12  C   UNL     1       0.279  -4.169   2.404  0.00  0.00    +0.097 C 
ATOM     13  C   UNL     1       1.584  -4.571   3.112  0.00  0.00    +0.046 C 
ATOM     14  C   UNL     1       1.523  -6.096   3.411  0.00  0.00    +0.168 C 
ATOM     15  S   UNL     1      -0.232  -6.265   3.945  0.00  0.00    -0.029 S 
ATOM     16  O   UNL     1      -0.301  -6.129   5.357  0.00  0.00    -0.174 OA
ATOM     17  O   UNL     1      -0.796  -7.412   3.325  0.00  0.00    -0.174 OA
ATOM     18  C   UNL     1      -0.934  -4.755   3.165  0.00  0.00    +0.188 C 
ENDBRANCH   8  12
BRANCH   7  19
ATOM     19  C   UNL     1      -2.415  -1.998   1.357  0.00  0.00    +0.390 C 
ATOM     20  O   UNL     1      -2.949  -3.088   1.212  0.00  0.00    -0.240 OA
ATOM     21  O   UNL     1      -2.916  -1.165   2.101  0.00  0.00    -0.240 OA
ENDBRANCH   7  19
TORSDOF 2
