REMARK  Name = ZINC62353452
REMARK  5 active torsions:
REMARK  status: ('A' for Active; 'I' for Inactive)
REMARK    1  A    between atoms: C_1  and  C_2
REMARK    2  A    between atoms: C_5  and  N_17
REMARK    3  A    between atoms: C_6  and  N_9
REMARK    4  A    between atoms: C_7  and  C_8
REMARK    5  A    between atoms: C_10  and  C_12
REMARK                            x       y       z     vdW  Elec       q    Type
REMARK                         _______ _______ _______ _____ _____    ______ ____
ROOT
ATOM      1  C   UNL     1       1.910   0.827  -0.333  0.00  0.00    +0.044 C 
ATOM      2  C   UNL     1       0.946  -0.318  -0.157  0.00  0.00    -0.046 A 
ATOM      3  C   UNL     1      -0.069  -0.512  -1.075  0.00  0.00    +0.005 A 
ATOM      4  C   UNL     1      -0.957  -1.561  -0.919  0.00  0.00    +0.025 A 
ATOM      5  C   UNL     1      -0.830  -2.422   0.161  0.00  0.00    +0.046 A 
ATOM      6  C   UNL     1       0.195  -2.227   1.086  0.00  0.00    +0.058 A 
ATOM      7  C   UNL     1       1.084  -1.175   0.919  0.00  0.00    -0.025 A 
ATOM      8  C   UNL     1       2.196  -0.964   1.914  0.00  0.00    +0.046 C 
ENDROOT
BRANCH   6   9
ATOM      9  N   UNL     1       0.329  -3.093   2.179  0.00  0.00    -0.278 N 
ATOM     10  C   UNL     1       0.107  -2.640   3.429  0.00  0.00    +0.267 C 
ATOM     11  O   UNL     1      -0.139  -1.464   3.615  0.00  0.00    -0.268 OA
ATOM     12  H   UNL     1       0.582  -4.019   2.036  0.00  0.00    +0.155 HD
BRANCH  10  13
ATOM     13  C   UNL     1       0.162  -3.570   4.569  0.00  0.00    +0.133 A 
ATOM     14  C   UNL     1      -0.062  -3.155   5.855  0.00  0.00    +0.079 A 
ATOM     15  S   UNL     1       0.119  -4.577   6.731  0.00  0.00    -0.083 S 
ATOM     16  C   UNL     1       0.465  -5.630   5.471  0.00  0.00    +0.156 A 
ATOM     17  N   UNL     1       0.429  -4.871   4.410  0.00  0.00    -0.243 NA
ENDBRANCH  10  13
ENDBRANCH   6   9
BRANCH   5  18
ATOM     18  N   UNL     1      -1.727  -3.484   0.321  0.00  0.00    -0.357 N 
ATOM     19  H   UNL     1      -2.380  -3.675  -0.371  0.00  0.00    +0.142 HD
ATOM     20  H   UNL     1      -1.696  -4.028   1.123  0.00  0.00    +0.142 HD
ENDBRANCH   5  18
TORSDOF 3
