REMARK  Name = ZINC65133859
REMARK  7 active torsions:
REMARK  status: ('A' for Active; 'I' for Inactive)
REMARK    1  A    between atoms: C_1  and  C_2
REMARK    2  A    between atoms: C_2  and  C_3
REMARK    3  A    between atoms: C_2  and  C_4
REMARK    4  A    between atoms: C_4  and  C_5
REMARK    5  A    between atoms: C_5  and  N_6
REMARK    6  A    between atoms: N_9  and  N_10
REMARK    7  A    between atoms: C_11  and  C_13
REMARK                            x       y       z     vdW  Elec       q    Type
REMARK                         _______ _______ _______ _____ _____    ______ ____
ROOT
ATOM      1  N   UNL     1      -5.319  -3.017  -0.251  0.00  0.00    -0.233 N 
ATOM      2  C   UNL     1      -6.536  -3.592  -0.188  0.00  0.00    +0.232 C 
ATOM      3  O   UNL     1      -6.642  -4.798  -0.252  0.00  0.00    -0.274 OA
ATOM      4  H   UNL     1      -5.234  -2.052  -0.200  0.00  0.00    +0.173 HD
ENDROOT
BRANCH   2   5
ATOM      5  C   UNL     1      -7.767  -2.735  -0.037  0.00  0.00    +0.079 C 
ATOM      6  C   UNL     1      -7.669  -1.926   1.259  0.00  0.00    +0.032 C 
ATOM      7  C   UNL     1      -8.905  -1.031   1.391  0.00  0.00    +0.110 C 
ATOM      8  N   UNL     1     -10.109  -1.868   1.291  0.00  0.00    -0.285 N 
ATOM      9  C   UNL     1     -10.259  -2.752   0.128  0.00  0.00    +0.110 C 
ATOM     10  C   UNL     1      -9.008  -3.628   0.009  0.00  0.00    +0.032 C 
ATOM     11  C   UNL     1     -11.056  -1.825   2.248  0.00  0.00    +0.305 C 
ATOM     12  O   UNL     1     -10.834  -1.255   3.299  0.00  0.00    -0.252 OA
ATOM     13  N   UNL     1     -12.250  -2.415   2.041  0.00  0.00    -0.285 N 
ATOM     14  C   UNL     1     -12.589  -3.289   0.909  0.00  0.00    +0.109 C 
ATOM     15  C   UNL     1     -14.066  -3.705   1.077  0.00  0.00    +0.020 C 
ATOM     16  C   UNL     1     -14.640  -2.588   1.988  0.00  0.00    +0.020 C 
ATOM     17  C   UNL     1     -13.431  -2.294   2.916  0.00  0.00    +0.109 C 
ENDBRANCH   2   5
BRANCH   1  21
ATOM     18  N   UNL     1      -2.840  -1.899  -0.384  0.00  0.00    -0.298 N 
ATOM     19  C   UNL     1      -2.957  -3.240  -0.455  0.00  0.00    +0.316 C 
ATOM     20  O   UNL     1      -1.964  -3.931  -0.577  0.00  0.00    -0.251 OA
ATOM     21  N   UNL     1      -4.175  -3.814  -0.391  0.00  0.00    -0.218 N 
ATOM     22  H   UNL     1      -3.632  -1.347  -0.287  0.00  0.00    +0.150 HD
ATOM     23  H   UNL     1      -4.259  -4.779  -0.443  0.00  0.00    +0.174 HD
BRANCH  18  24
ATOM     24  C   UNL     1      -1.516  -1.275  -0.453  0.00  0.00    +0.106 C 
BRANCH  24  25
ATOM     25  C   UNL     1      -1.663   0.245  -0.350  0.00  0.00    +0.022 C 
BRANCH  25  27
ATOM     26  C   UNL     1      -0.435   2.419  -0.444  0.00  0.00    +0.007 C 
ATOM     27  C   UNL     1      -0.281   0.896  -0.422  0.00  0.00    -0.016 C 
ATOM     28  C   UNL     1       0.541   0.485   0.801  0.00  0.00    +0.007 C 
ENDBRANCH  25  27
ENDBRANCH  24  25
ENDBRANCH  18  24
ENDBRANCH   1  21
TORSDOF 5
