REMARK  Name = ZINC21158254
REMARK  9 active torsions:
REMARK  status: ('A' for Active; 'I' for Inactive)
REMARK    1  A    between atoms: C_1  and  C_2
REMARK    2  A    between atoms: C_2  and  O_3
REMARK    3  A    between atoms: O_3  and  C_4
REMARK    4  A    between atoms: C_9  and  N_12
REMARK    5  A    between atoms: C_15  and  O_16
REMARK    6  A    between atoms: C_17  and  O_18
REMARK    7  A    between atoms: N_19  and  C_20
REMARK    8  A    between atoms: C_20  and  C_21
REMARK    9  A    between atoms: C_21  and  N_22
REMARK                            x       y       z     vdW  Elec       q    Type
REMARK                         _______ _______ _______ _____ _____    ______ ____
ROOT
ATOM      1  N   UNL     1       1.161  -3.643  -6.387  0.00  0.00    -0.275 NA
ATOM      2  C   UNL     1       1.974  -4.116  -7.287  0.00  0.00    +0.132 C 
ATOM      3  C   UNL     1       1.834  -4.577  -8.698  0.00  0.00    +0.132 C 
ATOM      4  C   UNL     1       3.284  -4.845  -8.641  0.00  0.00    +0.188 C 
ATOM      5  C   UNL     1       3.419  -4.414  -7.337  0.00  0.00    +0.188 C 
ATOM      6  N   UNL     1       0.876  -4.690  -9.573  0.00  0.00    -0.280 NA
ENDROOT
BRANCH   1  12
ATOM      7  C   UNL     1       0.776  -1.798  -1.335  0.00  0.00    +0.403 C 
ATOM      8  O   UNL     1       0.312  -2.549  -0.500  0.00  0.00    -0.226 OA
ATOM      9  N   UNL     1       1.395  -2.298  -2.422  0.00  0.00    -0.267 N 
ATOM     10  C   UNL     1       1.966  -1.403  -3.437  0.00  0.00    +0.113 C 
ATOM     11  C   UNL     1       1.404  -1.790  -4.809  0.00  0.00    +0.046 C 
ATOM     12  C   UNL     1       1.667  -3.276  -5.062  0.00  0.00    +0.109 C 
ATOM     13  C   UNL     1       0.956  -4.111  -3.995  0.00  0.00    +0.046 C 
ATOM     14  C   UNL     1       1.517  -3.750  -2.611  0.00  0.00    +0.113 C 
BRANCH   7  15
ATOM     15  O   UNL     1       0.671  -0.465  -1.174  0.00  0.00    -0.451 OA
BRANCH  15  17
ATOM     16  C   UNL     1      -0.019   1.526   0.010  0.00  0.00    +0.048 C 
ATOM     17  C   UNL     1       0.002  -0.004   0.002  0.00  0.00    +0.230 C 
ENDBRANCH  15  17
ENDBRANCH   7  15
ENDBRANCH   1  12
BRANCH   4  18
ATOM     18  O   UNL     1       4.166  -5.332  -9.546  0.00  0.00    -0.502 OA
ATOM     19  H   UNL     1       5.073  -5.398  -9.216  0.00  0.00    +0.292 HD
ENDBRANCH   4  18
BRANCH   5  20
ATOM     20  O   UNL     1       4.450  -4.308  -6.464  0.00  0.00    -0.502 OA
ATOM     21  H   UNL     1       5.300  -4.598  -6.822  0.00  0.00    +0.292 HD
ENDBRANCH   5  20
BRANCH   6  22
ATOM     22  C   UNL     1       1.165  -5.210 -10.912  0.00  0.00    +0.124 C 
BRANCH  22  23
ATOM     23  C   UNL     1       0.438  -6.542 -11.109  0.00  0.00    -0.055 C 
BRANCH  23  24
ATOM     24  N   UNL     1       0.728  -7.064 -12.452  0.00  0.00    +0.381 N 
ATOM     25  C   UNL     1       2.125  -7.420 -12.548  0.00  0.00    -0.079 C 
ATOM     26  C   UNL     1       2.688  -7.098 -13.943  0.00  0.00    -0.019 C 
ATOM     27  C   UNL     1       1.709  -7.459 -15.077  0.00  0.00    -0.002 C 
ATOM     28  C   UNL     1       1.020  -8.783 -14.871  0.00  0.00    -0.002 C 
ATOM     29  C   UNL     1      -0.307  -8.553 -14.108  0.00  0.00    -0.019 C 
ATOM     30  C   UNL     1      -0.062  -8.284 -12.695  0.00  0.00    -0.079 C 
ATOM     31  H   UNL     1       0.503  -6.367 -13.146  0.00  0.00    -0.082 HD
ENDBRANCH  23  24
ENDBRANCH  22  23
ENDBRANCH   6  22
TORSDOF 8
