REMARK  Name = ZINC67050039
REMARK  6 active torsions:
REMARK  status: ('A' for Active; 'I' for Inactive)
REMARK    1  A    between atoms: C_1  and  C_2
REMARK    2  A    between atoms: N_10  and  C_13
REMARK    3  A    between atoms: C_13  and  C_14
REMARK    4  A    between atoms: N_16  and  C_17
REMARK    5  A    between atoms: C_17  and  C_18
REMARK    6  A    between atoms: N_22  and  C_23
REMARK                            x       y       z     vdW  Elec       q    Type
REMARK                         _______ _______ _______ _____ _____    ______ ____
ROOT
ATOM      1  C   UNL     1       0.087  -5.607   2.373  0.00  0.00    +0.212 C 
ENDROOT
BRANCH   1  11
ATOM      2  C   UNL     1      -0.018   1.503   0.010  0.00  0.00    +0.044 C 
ATOM      3  C   UNL     1       0.002  -0.004   0.002  0.00  0.00    -0.050 A 
ATOM      4  C   UNL     1       0.006  -0.684  -1.202  0.00  0.00    +0.004 A 
ATOM      5  C   UNL     1       0.024  -2.070  -1.226  0.00  0.00    +0.014 A 
ATOM      6  C   UNL     1       0.039  -2.777  -0.035  0.00  0.00    +0.049 A 
ATOM      7  C   UNL     1       0.036  -2.084   1.192  0.00  0.00    +0.050 A 
ATOM      8  C   UNL     1       0.023  -0.699   1.201  0.00  0.00    +0.017 A 
ATOM      9  C   UNL     1       0.054  -3.123   2.244  0.00  0.00    +0.254 C 
ATOM     10  O   UNL     1       0.057  -2.920   3.441  0.00  0.00    -0.270 OA
ATOM     11  N   UNL     1       0.067  -4.331   1.652  0.00  0.00    -0.225 N 
ATOM     12  C   UNL     1       0.059  -4.214   0.312  0.00  0.00    +0.254 C 
ATOM     13  O   UNL     1       0.067  -5.135  -0.480  0.00  0.00    -0.270 OA
ENDBRANCH   1  11
BRANCH   1  14
ATOM     14  C   UNL     1      -1.327  -6.063   2.627  0.00  0.00    +0.231 C 
ATOM     15  O   UNL     1      -2.259  -5.389   2.244  0.00  0.00    -0.274 OA
ATOM     16  N   UNL     1      -1.554  -7.220   3.280  0.00  0.00    -0.307 N 
ATOM     17  H   UNL     1      -0.808  -7.759   3.586  0.00  0.00    +0.149 HD
BRANCH  16  18
ATOM     18  C   UNL     1      -2.929  -7.663   3.527  0.00  0.00    +0.180 C 
BRANCH  18  19
ATOM     19  C   UNL     1      -2.908  -8.975   4.268  0.00  0.00    +0.149 A 
ATOM     20  N   UNL     1      -1.845  -9.614   4.638  0.00  0.00    -0.157 NA
ATOM     21  N   UNL     1      -2.246 -10.785   5.296  0.00  0.00    -0.254 N 
ATOM     22  C   UNL     1      -3.596 -10.803   5.295  0.00  0.00    +0.175 A 
ATOM     23  N   UNL     1      -4.013  -9.685   4.667  0.00  0.00    -0.309 N 
ATOM     24  C   UNL     1      -5.408  -9.296   4.445  0.00  0.00    +0.152 C 
ATOM     25  S   UNL     1      -4.594 -12.018   5.972  0.00  0.00    -0.011 S 
ATOM     26  H   UNL     1      -1.663 -11.458   5.680  0.00  0.00    +0.191 HD
ENDBRANCH  18  19
ENDBRANCH  16  18
ENDBRANCH   1  14
TORSDOF 4
