REMARK  Name = ZINC02478985
REMARK  7 active torsions:
REMARK  status: ('A' for Active; 'I' for Inactive)
REMARK    1  A    between atoms: C_1  and  C_2
REMARK    2  A    between atoms: C_2  and  C_17
REMARK    3  A    between atoms: C_4  and  C_15
REMARK    4  A    between atoms: C_4  and  C_16
REMARK    5  A    between atoms: N_8  and  C_9
REMARK    6  A    between atoms: C_20  and  O_24
REMARK    7  A    between atoms: C_22  and  O_23
REMARK                            x       y       z     vdW  Elec       q    Type
REMARK                         _______ _______ _______ _____ _____    ______ ____
ROOT
ATOM      1  C   UNL     1      -0.877   0.793  -0.100  0.00  0.00    +0.037 C 
ATOM      2  C   UNL     1      -0.196  -0.565   0.098  0.00  0.00    +0.069 C 
ATOM      3  C   UNL     1       0.350  -1.093  -1.222  0.00  0.00    +0.056 C 
ATOM      4  C   UNL     1       1.774  -0.636  -1.516  0.00  0.00    +0.030 C 
ATOM      5  N   UNL     1       2.624  -0.821  -0.340  0.00  0.00    -0.321 N 
ATOM      6  C   UNL     1       2.130  -0.681   0.896  0.00  0.00    +0.138 C 
ATOM      7  S   UNL     1       3.196  -0.812   2.230  0.00  0.00    -0.018 S 
ATOM      8  N   UNL     1       0.831  -0.457   1.128  0.00  0.00    -0.272 N 
ATOM      9  C   UNL     1       2.340  -1.497  -2.659  0.00  0.00    +0.031 C 
ATOM     10  C   UNL     1       1.808   0.828  -1.956  0.00  0.00    +0.031 C 
ATOM     11  H   UNL     1       3.559  -1.048  -0.460  0.00  0.00    +0.148 HD
ENDROOT
BRANCH   8  12
ATOM     12  C   UNL     1       0.443  -0.100   2.424  0.00  0.00    +0.036 A 
ATOM     13  C   UNL     1       0.260  -1.081   3.390  0.00  0.00    +0.023 A 
ATOM     14  C   UNL     1      -0.123  -0.725   4.669  0.00  0.00    +0.002 A 
ATOM     15  C   UNL     1      -0.325   0.605   4.987  0.00  0.00    +0.000 A 
ATOM     16  C   UNL     1      -0.143   1.584   4.027  0.00  0.00    +0.002 A 
ATOM     17  C   UNL     1       0.246   1.236   2.749  0.00  0.00    +0.023 A 
ENDBRANCH   8  12
BRANCH   2  18
ATOM     18  C   UNL     1      -1.242  -1.530   0.592  0.00  0.00    +0.018 A 
ATOM     19  C   UNL     1      -2.538  -1.097   0.800  0.00  0.00    +0.013 A 
ATOM     20  C   UNL     1      -3.500  -1.980   1.253  0.00  0.00    +0.046 A 
ATOM     21  C   UNL     1      -3.166  -3.304   1.500  0.00  0.00    +0.120 A 
ATOM     22  C   UNL     1      -1.867  -3.741   1.293  0.00  0.00    +0.091 A 
ATOM     23  C   UNL     1      -0.905  -2.854   0.833  0.00  0.00    +0.126 A 
BRANCH  23  24
ATOM     24  O   UNL     1       0.368  -3.281   0.623  0.00  0.00    -0.506 OA
ATOM     25  H   UNL     1       0.942  -3.201   1.396  0.00  0.00    +0.292 HD
ENDBRANCH  23  24
BRANCH  21  26
ATOM     26  O   UNL     1      -4.113  -4.172   1.946  0.00  0.00    -0.507 OA
ATOM     27  H   UNL     1      -4.590  -4.630   1.240  0.00  0.00    +0.292 HD
ENDBRANCH  21  26
ENDBRANCH   2  18
TORSDOF 4
