REMARK  Name = ZINC45918902
REMARK  6 active torsions:
REMARK  status: ('A' for Active; 'I' for Inactive)
REMARK    1  A    between atoms: C_1  and  O_2
REMARK    2  A    between atoms: O_2  and  C_3
REMARK    3  A    between atoms: C_7  and  C_9
REMARK    4  A    between atoms: C_16  and  O_22
REMARK    5  A    between atoms: C_17  and  C_20
REMARK    6  A    between atoms: C_20  and  O_21
REMARK                            x       y       z     vdW  Elec       q    Type
REMARK                         _______ _______ _______ _____ _____    ______ ____
ROOT
ATOM      1  C   UNL     1       1.335  -4.070  -2.305  0.00  0.00    +0.058 C 
ATOM      2  C   UNL     1       1.847  -4.665  -3.410  0.00  0.00    +0.176 C 
ATOM      3  C   UNL     1       1.872  -6.111  -3.689  0.00  0.00    +0.231 C 
ATOM      4  O   UNL     1       1.444  -7.012  -2.990  0.00  0.00    -0.283 OA
ATOM      5  C   UNL     1       2.530  -6.222  -5.003  0.00  0.00    +0.068 A 
ATOM      6  C   UNL     1       2.856  -7.308  -5.818  0.00  0.00    +0.019 A 
ATOM      7  C   UNL     1       3.480  -7.097  -7.014  0.00  0.00    +0.047 A 
ATOM      8  C   UNL     1       3.792  -5.803  -7.423  0.00  0.00    +0.126 A 
ATOM      9  C   UNL     1       3.474  -4.716  -6.624  0.00  0.00    +0.062 A 
ATOM     10  C   UNL     1       2.839  -4.913  -5.404  0.00  0.00    +0.148 A 
ATOM     11  O   UNL     1       2.425  -4.038  -4.462  0.00  0.00    -0.451 OA
ENDROOT
BRANCH   1  16
ATOM     12  C   UNL     1       1.792  -0.439  -3.134  0.00  0.00    +0.121 A 
ATOM     13  C   UNL     1       1.151   0.162  -2.057  0.00  0.00    +0.045 A 
ATOM     14  C   UNL     1       0.574  -0.612  -1.068  0.00  0.00    +0.004 A 
ATOM     15  C   UNL     1       0.630  -1.988  -1.141  0.00  0.00    +0.008 A 
ATOM     16  C   UNL     1       1.272  -2.604  -2.221  0.00  0.00    -0.018 A 
ATOM     17  C   UNL     1       1.850  -1.818  -3.224  0.00  0.00    +0.053 A 
BRANCH  12  19
ATOM     18  C   UNL     1       2.259   1.746  -3.947  0.00  0.00    +0.277 C 
ATOM     19  O   UNL     1       2.356   0.329  -4.103  0.00  0.00    -0.495 OA
ENDBRANCH  12  19
ENDBRANCH   1  16
BRANCH   8  20
ATOM     20  O   UNL     1       4.413  -5.604  -8.613  0.00  0.00    -0.506 OA
ATOM     21  H   UNL     1       3.808  -5.483  -9.357  0.00  0.00    +0.292 HD
ENDBRANCH   8  20
BRANCH   9  22
ATOM     22  C   UNL     1       3.818  -3.321  -7.078  0.00  0.00    +0.198 C 
BRANCH  22  23
ATOM     23  O   UNL     1       2.728  -2.783  -7.831  0.00  0.00    -0.390 OA
ATOM     24  H   UNL     1       2.881  -1.885  -8.156  0.00  0.00    +0.210 HD
ENDBRANCH  22  23
ENDBRANCH   9  22
TORSDOF 5
