REMARK  Name = ZINC39710537
REMARK  13 active torsions:
REMARK  status: ('A' for Active; 'I' for Inactive)
REMARK    1  A    between atoms: C_1  and  C_2
REMARK    2  A    between atoms: C_2  and  C_3
REMARK    3  A    between atoms: C_10  and  C_15
REMARK    4  A    between atoms: C_15  and  C_17
REMARK    5  A    between atoms: C_15  and  N_27
REMARK    6  A    between atoms: N_22  and  C_23
REMARK    7  A    between atoms: C_23  and  C_24
REMARK    8  A    between atoms: C_23  and  C_25
REMARK    9  A    between atoms: C_23  and  C_26
REMARK   10  A    between atoms: N_27  and  C_28
REMARK   11  A    between atoms: N_27  and  C_34
REMARK   12  A    between atoms: C_28  and  C_29
REMARK   13  A    between atoms: C_34  and  C_35
REMARK                            x       y       z     vdW  Elec       q    Type
REMARK                         _______ _______ _______ _____ _____    ______ ____
ROOT
ATOM      1  C   UNL     1       0.846  -0.569   6.973  0.00  0.00    -0.009 C 
ENDROOT
BRANCH   1   9
ATOM      2  C   UNL     1      -1.486  -5.287   4.452  0.00  0.00    -0.047 A 
ATOM      3  C   UNL     1      -1.912  -4.546   3.349  0.00  0.00    +0.005 A 
ATOM      4  C   UNL     1      -1.490  -3.277   3.111  0.00  0.00    +0.024 A 
ATOM      5  C   UNL     1      -0.588  -2.648   3.989  0.00  0.00    +0.040 A 
ATOM      6  N   UNL     1      -0.181  -1.402   3.746  0.00  0.00    -0.285 N 
ATOM      7  C   UNL     1       0.665  -0.753   4.528  0.00  0.00    +0.223 C 
ATOM      8  O   UNL     1       1.000   0.384   4.254  0.00  0.00    -0.275 OA
ATOM      9  C   UNL     1       1.214  -1.430   5.763  0.00  0.00    +0.088 C 
ATOM     10  C   UNL     1       0.755  -2.847   6.044  0.00  0.00    -0.006 C 
ATOM     11  C   UNL     1      -0.121  -3.407   5.162  0.00  0.00    -0.007 A 
ATOM     12  C   UNL     1      -0.619  -4.768   5.360  0.00  0.00    +0.013 A 
ATOM     13  H   UNL     1      -0.522  -0.950   2.958  0.00  0.00    +0.155 HD
BRANCH   2  15
ATOM     14  C   UNL     1      -3.287  -6.651   5.473  0.00  0.00    +0.009 C 
ATOM     15  C   UNL     1      -2.003  -6.690   4.643  0.00  0.00    +0.032 C 
ENDBRANCH   2  15
ENDBRANCH   1   9
BRANCH   1  16
ATOM     16  C   UNL     1      -0.677  -0.492   7.099  0.00  0.00    +0.205 C 
ATOM     17  N   UNL     1      -1.266  -1.837   7.030  0.00  0.00    -0.152 NA
ATOM     18  N   UNL     1      -2.018  -1.893   6.055  0.00  0.00    -0.070 NA
ATOM     19  N   UNL     1      -2.072  -0.695   5.342  0.00  0.00    -0.179 N 
ATOM     20  N   UNL     1      -1.254   0.228   5.945  0.00  0.00    -0.183 NA
ATOM     21  H   UNL     1      -2.605  -0.538   4.547  0.00  0.00    +0.191 HD
BRANCH  20  22
ATOM     22  C   UNL     1      -2.018   1.403   6.387  0.00  0.00    +0.035 C 
ATOM     23  C   UNL     1      -1.094   2.356   7.148  0.00  0.00    +0.029 C 
ATOM     24  C   UNL     1      -2.599   2.121   5.167  0.00  0.00    +0.029 C 
ATOM     25  C   UNL     1      -3.157   0.955   7.305  0.00  0.00    +0.029 C 
ENDBRANCH  20  22
ENDBRANCH   1  16
BRANCH   1  26
ATOM     26  N   UNL     1       1.409  -1.169   8.191  0.00  0.00    +0.391 N 
ATOM     27  H   UNL     1       0.993  -2.076   8.342  0.00  0.00    -0.080 HD
BRANCH  26  28
ATOM     28  C   UNL     1       1.123  -0.301   9.341  0.00  0.00    -0.002 C 
BRANCH  28  29
ATOM     29  C   UNL     1       1.589  -0.975  10.606  0.00  0.00    +0.089 A 
ATOM     30  C   UNL     1       2.759  -0.751  11.231  0.00  0.00    +0.042 A 
ATOM     31  C   UNL     1       2.782  -1.591  12.368  0.00  0.00    +0.041 A 
ATOM     32  C   UNL     1       1.625  -2.277  12.370  0.00  0.00    +0.195 A 
ATOM     33  O   UNL     1       0.904  -1.895  11.304  0.00  0.00    -0.470 OA
ENDBRANCH  28  29
ENDBRANCH  26  28
BRANCH  26  34
ATOM     34  C   UNL     1       2.862  -1.316   8.037  0.00  0.00    -0.046 C 
BRANCH  34  35
ATOM     35  C   UNL     1       3.469   0.024   7.615  0.00  0.00    +0.102 C 
ATOM     36  C   UNL     1       4.967  -0.158   7.293  0.00  0.00    +0.032 C 
ATOM     37  C   UNL     1       5.590   1.138   7.880  0.00  0.00    +0.030 C 
ATOM     38  C   UNL     1       4.680   1.369   9.113  0.00  0.00    +0.160 C 
ATOM     39  O   UNL     1       3.366   0.964   8.691  0.00  0.00    -0.378 OA
ENDBRANCH  34  35
ENDBRANCH  26  34
ENDBRANCH   1  26
TORSDOF 9
