REMARK  Name = ZINC22109254
REMARK  8 active torsions:
REMARK  status: ('A' for Active; 'I' for Inactive)
REMARK    1  A    between atoms: C_1  and  C_2
REMARK    2  A    between atoms: C_9  and  C_16
REMARK    3  A    between atoms: C_11  and  O_12
REMARK    4  A    between atoms: C_16  and  S_17
REMARK    5  A    between atoms: S_17  and  C_18
REMARK    6  A    between atoms: C_21  and  C_30
REMARK    7  A    between atoms: N_22  and  C_23
REMARK    8  A    between atoms: C_23  and  C_24
REMARK                            x       y       z     vdW  Elec       q    Type
REMARK                         _______ _______ _______ _____ _____    ______ ____
ROOT
ATOM      1  S   UNL     1       1.157  -6.606   1.542  0.00  0.00    -0.081 S 
ENDROOT
BRANCH   1   2
ATOM      2  C   UNL     1       0.851  -7.883   2.717  0.00  0.00    +0.192 A 
ATOM      3  N   UNL     1      -0.324  -8.266   3.164  0.00  0.00    -0.122 NA
ATOM      4  N   UNL     1      -0.184  -9.223   4.010  0.00  0.00    -0.128 NA
ATOM      5  C   UNL     1       1.089  -9.505   4.162  0.00  0.00    +0.165 A 
ATOM      6  N   UNL     1       1.791  -8.655   3.338  0.00  0.00    -0.300 N 
BRANCH   5   7
ATOM      7  C   UNL     1       1.661 -10.539   5.050  0.00  0.00    +0.019 A 
ATOM      8  C   UNL     1       0.848 -11.555   5.555  0.00  0.00    +0.014 A 
ATOM      9  C   UNL     1       1.387 -12.520   6.380  0.00  0.00    +0.039 A 
ATOM     10  C   UNL     1       2.731 -12.477   6.715  0.00  0.00    +0.123 A 
ATOM     11  C   UNL     1       3.542 -11.467   6.219  0.00  0.00    +0.039 A 
ATOM     12  C   UNL     1       3.014 -10.500   5.390  0.00  0.00    +0.014 A 
ATOM     13  F   UNL     1       3.254 -13.421   7.527  0.00  0.00    -0.205 F 
ENDBRANCH   5   7
BRANCH   6  14
ATOM     14  C   UNL     1       3.244  -8.591   3.164  0.00  0.00    +0.157 C 
BRANCH  14  15
ATOM     15  C   UNL     1       3.816  -7.482   4.051  0.00  0.00    +0.138 C 
ATOM     16  C   UNL     1       5.349  -7.416   3.883  0.00  0.00    +0.035 C 
ATOM     17  C   UNL     1       5.828  -7.141   5.335  0.00  0.00    +0.031 C 
ATOM     18  C   UNL     1       4.775  -7.936   6.147  0.00  0.00    +0.160 C 
ATOM     19  O   UNL     1       3.543  -7.772   5.427  0.00  0.00    -0.375 OA
ENDBRANCH  14  15
ENDBRANCH   6  14
ENDBRANCH   1   2
BRANCH   1  20
ATOM     20  C   UNL     1      -0.541  -6.079   1.202  0.00  0.00    +0.113 C 
BRANCH  20  29
ATOM     21  C   UNL     1      -0.885   2.801   1.576  0.00  0.00    +0.109 C 
ATOM     22  C   UNL     1      -0.880   1.375   1.088  0.00  0.00    +0.214 C 
ATOM     23  O   UNL     1      -1.472   1.081   0.071  0.00  0.00    -0.276 OA
ATOM     24  N   UNL     1      -0.219   0.428   1.782  0.00  0.00    -0.286 N 
ATOM     25  C   UNL     1      -0.295  -0.908   1.386  0.00  0.00    +0.037 A 
ATOM     26  C   UNL     1      -0.300  -1.917   2.349  0.00  0.00    +0.024 A 
ATOM     27  C   UNL     1      -0.380  -3.227   1.977  0.00  0.00    +0.013 A 
ATOM     28  C   UNL     1      -0.446  -3.562   0.620  0.00  0.00    +0.022 A 
ATOM     29  C   UNL     1      -0.527  -4.960   0.192  0.00  0.00    -0.020 A 
ATOM     30  C   UNL     1      -0.590  -5.221  -1.139  0.00  0.00    +0.092 A 
ATOM     31  C   UNL     1      -0.575  -4.157  -2.064  0.00  0.00    +0.285 A 
ATOM     32  O   UNL     1      -0.501  -2.878  -1.666  0.00  0.00    -0.425 OA
ATOM     33  C   UNL     1      -0.436  -2.550  -0.358  0.00  0.00    +0.141 A 
ATOM     34  C   UNL     1      -0.361  -1.222   0.037  0.00  0.00    +0.070 A 
ATOM     35  H   UNL     1       0.380   0.707   2.661  0.00  0.00    +0.155 HD
BRANCH  31  36
ATOM     36  O   UNL     1      -0.632  -4.406  -3.256  0.00  0.00    -0.480 OA
ATOM     37  H   UNL     1      -0.621  -3.586  -3.989  0.00  0.00    +0.295 HD
ENDBRANCH  31  36
ENDBRANCH  20  29
ENDBRANCH   1  20
TORSDOF 7
