REMARK  Name = ZINC09013880
REMARK  10 active torsions:
REMARK  status: ('A' for Active; 'I' for Inactive)
REMARK    1  A    between atoms: C_1  and  C_2
REMARK    2  A    between atoms: C_2  and  O_3
REMARK    3  A    between atoms: O_3  and  C_4
REMARK    4  A    between atoms: C_7  and  N_10
REMARK    5  A    between atoms: C_13  and  C_19
REMARK    6  A    between atoms: C_14  and  O_18
REMARK    7  A    between atoms: C_16  and  S_17
REMARK    8  A    between atoms: C_26  and  O_27
REMARK    9  A    between atoms: O_27  and  C_28
REMARK   10  A    between atoms: C_34  and  N_59
REMARK                            x       y       z     vdW  Elec       q    Type
REMARK                         _______ _______ _______ _____ _____    ______ ____
ROOT
ATOM      1  N   UNL     1       1.972   7.513   0.024  0.00  0.00    -0.256 N 
ATOM      2  C   UNL     1       0.894   8.319  -0.063  0.00  0.00    +0.265 A 
ATOM      3  O   UNL     1      -0.229   7.848  -0.147  0.00  0.00    -0.267 OA
ATOM      4  C   UNL     1       1.085   9.706  -0.055  0.00  0.00    +0.070 A 
ATOM      5  C   UNL     1       2.376  10.200   0.042  0.00  0.00    +0.222 A 
ATOM      6  N   UNL     1       3.407   9.355   0.126  0.00  0.00    -0.188 NA
ATOM      7  C   UNL     1       3.221   8.050   0.124  0.00  0.00    +0.177 A 
ENDROOT
BRANCH   4   8
ATOM      8  C   UNL     1      -0.090  10.643  -0.151  0.00  0.00    +0.007 C 
ATOM      9  C   UNL     1      -0.736  10.494  -1.504  0.00  0.00    -0.008 A 
ATOM     10  C   UNL     1      -2.106  10.459  -1.656  0.00  0.00    -0.040 A 
ATOM     11  C   UNL     1      -2.660  10.326  -2.921  0.00  0.00    +0.053 A 
ATOM     12  C   UNL     1      -1.847  10.225  -4.037  0.00  0.00    +0.170 A 
ATOM     13  C   UNL     1      -0.464  10.256  -3.888  0.00  0.00    +0.208 A 
ATOM     14  C   UNL     1       0.087  10.390  -2.621  0.00  0.00    +0.167 A 
ATOM     15  O   UNL     1       0.112  10.139  -5.121  0.00  0.00    -0.449 OA
ATOM     16  C   UNL     1      -0.933  10.448  -6.063  0.00  0.00    +0.467 C 
ATOM     17  O   UNL     1      -2.140  10.090  -5.364  0.00  0.00    -0.452 OA
ATOM     18  C   UNL     1      -3.036  10.562  -0.474  0.00  0.00    +0.017 C 
ATOM     19  C   UNL     1      -2.282  11.112   0.737  0.00  0.00    -0.073 C 
ATOM     20  C   UNL     1      -0.460  10.565   2.238  0.00  0.00    -0.095 C 
ATOM     21  N   UNL     1      -1.055  10.306   0.909  0.00  0.00    +0.386 N 
ATOM     22  H   UNL     1      -1.295   9.310   0.839  0.00  0.00    -0.081 HD
BRANCH  14  23
ATOM     23  O   UNL     1       1.438  10.421  -2.471  0.00  0.00    -0.491 OA
ATOM     24  C   UNL     1       2.068  11.703  -2.527  0.00  0.00    +0.277 C 
ENDBRANCH  14  23
ENDBRANCH   4   8
BRANCH   1  28
ATOM     25  C   UNL     1       1.481   3.370   0.006  0.00  0.00    +0.121 A 
ATOM     26  C   UNL     1       1.461   4.066   1.207  0.00  0.00    +0.047 A 
ATOM     27  C   UNL     1       1.629   5.436   1.214  0.00  0.00    +0.030 A 
ATOM     28  C   UNL     1       1.807   6.120   0.018  0.00  0.00    +0.052 A 
ATOM     29  C   UNL     1       1.822   5.424  -1.183  0.00  0.00    +0.030 A 
ATOM     30  C   UNL     1       1.659   4.053  -1.188  0.00  0.00    +0.047 A 
BRANCH  25  31
ATOM     31  O   UNL     1       1.321   2.020   0.001  0.00  0.00    -0.492 OA
BRANCH  31  33
ATOM     32  C   UNL     1       0.981  -0.124   1.061  0.00  0.00    +0.048 C 
ATOM     33  C   UNL     1       1.144   1.383   1.267  0.00  0.00    +0.225 C 
ENDBRANCH  31  33
ENDBRANCH  25  31
ENDBRANCH   1  28
BRANCH   7  34
ATOM     34  S   UNL     1       4.616   6.980   0.244  0.00  0.00    -0.105 S 
ATOM     35  H   UNL     1       5.651   7.934   0.324  0.00  0.00    +0.110 HD
ENDBRANCH   7  34
BRANCH   5  36
ATOM     36  O   UNL     1       2.591  11.536   0.052  0.00  0.00    -0.492 OA
ATOM     37  H   UNL     1       3.523  11.784   0.122  0.00  0.00    +0.294 HD
ENDBRANCH   5  36
TORSDOF 7
