REMARK  Name = ZINC11228821
REMARK  9 active torsions:
REMARK  status: ('A' for Active; 'I' for Inactive)
REMARK    1  A    between atoms: C_1  and  C_2
REMARK    2  A    between atoms: C_3  and  C_32
REMARK    3  A    between atoms: C_7  and  N_31
REMARK    4  A    between atoms: C_9  and  C_11
REMARK    5  A    between atoms: C_11  and  S_12
REMARK    6  A    between atoms: S_12  and  C_13
REMARK    7  A    between atoms: C_16  and  C_25
REMARK    8  A    between atoms: N_17  and  C_18
REMARK    9  A    between atoms: C_25  and  N_59
REMARK                            x       y       z     vdW  Elec       q    Type
REMARK                         _______ _______ _______ _____ _____    ______ ____
ROOT
ATOM      1  C   UNL     1      -3.045  -4.605   1.717  0.00  0.00    +0.196 A 
ATOM      2  N   UNL     1      -3.329  -4.926   0.475  0.00  0.00    -0.122 NA
ATOM      3  N   UNL     1      -4.186  -5.883   0.456  0.00  0.00    -0.135 NA
ATOM      4  C   UNL     1      -4.507  -6.223   1.672  0.00  0.00    +0.122 A 
ATOM      5  N   UNL     1      -3.791  -5.422   2.521  0.00  0.00    -0.276 N 
ENDROOT
BRANCH   5   6
ATOM      6  C   UNL     1      -3.818  -5.435   3.924  0.00  0.00    +0.050 A 
ATOM      7  C   UNL     1      -3.370  -6.551   4.617  0.00  0.00    +0.029 A 
ATOM      8  C   UNL     1      -3.393  -6.560   5.998  0.00  0.00    +0.040 A 
ATOM      9  C   UNL     1      -3.872  -5.461   6.691  0.00  0.00    +0.124 A 
ATOM     10  C   UNL     1      -4.325  -4.349   6.001  0.00  0.00    +0.040 A 
ATOM     11  C   UNL     1      -4.299  -4.334   4.620  0.00  0.00    +0.029 A 
ATOM     12  F   UNL     1      -3.899  -5.473   8.042  0.00  0.00    -0.205 F 
ENDBRANCH   5   6
BRANCH   1  13
ATOM     13  S   UNL     1      -1.920  -3.356   2.246  0.00  0.00    -0.078 S 
BRANCH  13  14
ATOM     14  C   UNL     1      -1.351  -2.745   0.640  0.00  0.00    +0.153 C 
BRANCH  14  23
ATOM     15  C   UNL     1       3.773   1.431   1.567  0.00  0.00    +0.045 C 
ATOM     16  C   UNL     1       2.276   1.544   1.428  0.00  0.00    -0.028 A 
ATOM     17  C   UNL     1       1.678   2.742   1.487  0.00  0.00    -0.008 A 
ATOM     18  S   UNL     1      -0.050   2.356   1.276  0.00  0.00    -0.074 S 
ATOM     19  C   UNL     1       0.079   0.595   1.114  0.00  0.00    +0.114 A 
ATOM     20  C   UNL     1       1.466   0.355   1.229  0.00  0.00    +0.050 A 
ATOM     21  C   UNL     1       1.858  -1.008   1.133  0.00  0.00    +0.128 A 
ATOM     22  N   UNL     1       0.932  -1.935   0.949  0.00  0.00    -0.216 NA
ATOM     23  C   UNL     1      -0.351  -1.637   0.850  0.00  0.00    +0.143 A 
ATOM     24  N   UNL     1      -0.777  -0.391   0.930  0.00  0.00    -0.224 NA
ATOM     25  C   UNL     1       2.314   4.094   1.685  0.00  0.00    +0.052 C 
BRANCH  21  26
ATOM     26  N   UNL     1       3.192  -1.361   1.231  0.00  0.00    -0.343 N 
ATOM     27  H   UNL     1       3.880  -0.740   0.946  0.00  0.00    +0.144 HD
ATOM     28  H   UNL     1       3.439  -2.230   1.585  0.00  0.00    +0.144 HD
ENDBRANCH  21  26
ENDBRANCH  14  23
ENDBRANCH  13  14
ENDBRANCH   1  13
BRANCH   4  29
ATOM     29  C   UNL     1      -5.484  -7.299   2.070  0.00  0.00    -0.001 C 
BRANCH  29  35
ATOM     30  C   UNL     1      -6.891  -5.756   3.295  0.00  0.00    -0.078 C 
ATOM     31  C   UNL     1      -8.258  -5.067   3.297  0.00  0.00    -0.019 C 
ATOM     32  C   UNL     1      -9.356  -6.123   3.453  0.00  0.00    -0.004 C 
ATOM     33  C   UNL     1      -9.239  -7.141   2.315  0.00  0.00    -0.019 C 
ATOM     34  C   UNL     1      -7.843  -7.770   2.341  0.00  0.00    -0.078 C 
ATOM     35  N   UNL     1      -6.834  -6.704   2.163  0.00  0.00    +0.384 N 
ATOM     36  H   UNL     1      -7.035  -6.197   1.293  0.00  0.00    -0.081 HD
ENDBRANCH  29  35
ENDBRANCH   4  29
TORSDOF 7
