REMARK  Name = ZINC64364138
REMARK  5 active torsions:
REMARK  status: ('A' for Active; 'I' for Inactive)
REMARK    1  A    between atoms: C_7  and  C_10
REMARK    2  A    between atoms: C_10  and  C_11
REMARK    3  A    between atoms: N_13  and  N_14
REMARK    4  A    between atoms: C_15  and  C_17
REMARK    5  A    between atoms: C_23  and  C_25
REMARK                            x       y       z     vdW  Elec       q    Type
REMARK                         _______ _______ _______ _____ _____    ______ ____
ROOT
ATOM      1  N   UNL     1      -0.567  -5.122  -3.001  0.00  0.00    -0.233 N 
ATOM      2  C   UNL     1      -1.380  -6.168  -3.245  0.00  0.00    +0.250 C 
ATOM      3  O   UNL     1      -1.926  -6.740  -2.325  0.00  0.00    -0.272 OA
ATOM      4  H   UNL     1      -0.131  -4.665  -3.737  0.00  0.00    +0.173 HD
ENDROOT
BRANCH   2   5
ATOM      5  C   UNL     1      -1.611  -6.629  -4.661  0.00  0.00    +0.163 C 
ATOM      6  C   UNL     1      -2.268  -5.499  -5.481  0.00  0.00    +0.033 C 
ATOM      7  C   UNL     1      -3.276  -6.262  -6.380  0.00  0.00    +0.021 C 
ATOM      8  C   UNL     1      -3.743  -7.395  -5.432  0.00  0.00    +0.108 C 
ATOM      9  N   UNL     1      -2.534  -7.773  -4.671  0.00  0.00    -0.290 N 
ATOM     10  C   UNL     1      -2.313  -8.966  -4.083  0.00  0.00    +0.219 C 
ATOM     11  O   UNL     1      -1.278  -9.163  -3.482  0.00  0.00    -0.275 OA
BRANCH  10  12
ATOM     12  C   UNL     1      -3.352 -10.054  -4.173  0.00  0.00    +0.075 C 
ATOM     13  C   UNL     1      -4.657  -9.567  -3.541  0.00  0.00    +0.013 C 
ATOM     14  C   UNL     1      -5.711 -10.672  -3.632  0.00  0.00    +0.001 C 
ATOM     15  C   UNL     1      -5.216 -11.913  -2.887  0.00  0.00    +0.000 C 
ATOM     16  C   UNL     1      -3.910 -12.400  -3.519  0.00  0.00    +0.001 C 
ATOM     17  C   UNL     1      -2.856 -11.295  -3.428  0.00  0.00    +0.013 C 
ENDBRANCH  10  12
ENDBRANCH   2   5
BRANCH   1  20
ATOM     18  C   UNL     1       0.460  -3.646  -1.440  0.00  0.00    +0.233 C 
ATOM     19  O   UNL     1       1.006  -3.075  -2.360  0.00  0.00    -0.274 OA
ATOM     20  N   UNL     1      -0.353  -4.693  -1.684  0.00  0.00    -0.234 N 
ATOM     21  H   UNL     1      -0.790  -5.150  -0.948  0.00  0.00    +0.173 HD
BRANCH  18  22
ATOM     22  C   UNL     1       0.691  -3.186  -0.024  0.00  0.00    +0.130 C 
BRANCH  22  29
ATOM     23  C   UNL     1      -0.016   1.348   0.009  0.00  0.00    +0.001 A 
ATOM     24  C   UNL     1       1.166   2.101   0.002  0.00  0.00    +0.002 A 
ATOM     25  C   UNL     1       2.391   1.535  -0.013  0.00  0.00    +0.026 A 
ATOM     26  C   UNL     1       2.529   0.120  -0.022  0.00  0.00    +0.043 A 
ATOM     27  N   UNL     1       3.587  -0.654  -0.037  0.00  0.00    -0.380 N 
ATOM     28  C   UNL     1       3.143  -2.053  -0.041  0.00  0.00    +0.145 C 
ATOM     29  C   UNL     1       1.631  -2.008  -0.025  0.00  0.00    -0.033 C 
ATOM     30  C   UNL     1       1.295  -0.698  -0.014  0.00  0.00    -0.001 A 
ATOM     31  C   UNL     1       0.002  -0.004   0.002  0.00  0.00    +0.010 A 
ATOM     32  H   UNL     1       4.509  -0.353  -0.045  0.00  0.00    +0.160 HD
ENDBRANCH  22  29
ENDBRANCH  18  22
ENDBRANCH   1  20
TORSDOF 5
