REMARK  Name = ZINC39854353
REMARK  5 active torsions:
REMARK  status: ('A' for Active; 'I' for Inactive)
REMARK    1  A    between atoms: C_1  and  C_2
REMARK    2  A    between atoms: C_2  and  C_23
REMARK    3  A    between atoms: C_7  and  C_11
REMARK    4  A    between atoms: N_13  and  C_14
REMARK    5  A    between atoms: C_18  and  N_20
REMARK                            x       y       z     vdW  Elec       q    Type
REMARK                         _______ _______ _______ _____ _____    ______ ____
ROOT
ATOM      1  C   UNL     1       2.216  -0.264   1.362  0.00  0.00    +0.231 C 
ATOM      2  O   UNL     1       2.752   0.412   0.509  0.00  0.00    -0.274 OA
ATOM      3  N   UNL     1       2.933  -0.727   2.405  0.00  0.00    -0.285 N 
ATOM      4  H   UNL     1       2.491  -1.210   3.121  0.00  0.00    +0.155 HD
ENDROOT
BRANCH   1  10
ATOM      5  C   UNL     1      -0.012   1.530   0.006  0.00  0.00    +0.012 C 
ATOM      6  C   UNL     1       0.001  -0.000   0.005  0.00  0.00    -0.011 C 
ATOM      7  C   UNL     1      -1.404  -0.603   0.364  0.00  0.00    +0.003 C 
ATOM      8  C   UNL     1      -1.040  -2.113   0.507  0.00  0.00    +0.006 C 
ATOM      9  C   UNL     1       0.389  -2.112   1.096  0.00  0.00    +0.024 C 
ATOM     10  C   UNL     1       0.747  -0.585   1.255  0.00  0.00    +0.110 C 
ATOM     11  C   UNL     1      -0.149  -0.074   2.392  0.00  0.00    +0.149 C 
ATOM     12  O   UNL     1       0.195   0.265   3.499  0.00  0.00    -0.296 OA
ATOM     13  C   UNL     1      -1.562  -0.084   1.827  0.00  0.00    +0.079 C 
ATOM     14  C   UNL     1       0.551  -0.561  -1.308  0.00  0.00    +0.012 C 
ENDBRANCH   1  10
BRANCH   3  15
ATOM     15  C   UNL     1       4.314  -0.511   2.455  0.00  0.00    +0.036 A 
ATOM     16  C   UNL     1       4.853   0.670   1.962  0.00  0.00    +0.023 A 
ATOM     17  C   UNL     1       6.217   0.880   2.013  0.00  0.00    +0.004 A 
ATOM     18  C   UNL     1       7.047  -0.085   2.553  0.00  0.00    +0.033 A 
ATOM     19  C   UNL     1       6.514  -1.263   3.045  0.00  0.00    +0.128 A 
ATOM     20  C   UNL     1       5.150  -1.476   3.002  0.00  0.00    +0.056 A 
BRANCH  19  21
ATOM     21  N   UNL     1       7.406  -2.293   3.622  0.00  0.00    +0.056 N 
ATOM     22  O   UNL     1       8.599  -2.105   3.663  0.00  0.00    -0.126 OA
ATOM     23  O   UNL     1       6.941  -3.323   4.051  0.00  0.00    -0.126 OA
ENDBRANCH  19  21
ENDBRANCH   3  15
TORSDOF 3
