REMARK  Name = ZINC38654417
REMARK  7 active torsions:
REMARK  status: ('A' for Active; 'I' for Inactive)
REMARK    1  A    between atoms: C_1  and  N_2
REMARK    2  A    between atoms: C_3  and  C_24
REMARK    3  A    between atoms: C_7  and  S_8
REMARK    4  A    between atoms: S_8  and  C_9
REMARK    5  A    between atoms: C_9  and  C_10
REMARK    6  A    between atoms: N_12  and  N_13
REMARK    7  A    between atoms: C_14  and  C_15
REMARK                            x       y       z     vdW  Elec       q    Type
REMARK                         _______ _______ _______ _____ _____    ______ ____
ROOT
ATOM      1  C   UNL     1       3.825  -1.296  -0.416  0.00  0.00    +0.174 C 
ENDROOT
BRANCH   1   2
ATOM      2  C   UNL     1       5.235  -0.797  -0.599  0.00  0.00    +0.242 C 
ATOM      3  O   UNL     1       5.449   0.393  -0.688  0.00  0.00    -0.273 OA
ATOM      4  N   UNL     1       6.257  -1.673  -0.664  0.00  0.00    -0.206 N 
ATOM      5  H   UNL     1       6.085  -2.625  -0.593  0.00  0.00    +0.177 HD
BRANCH   4   6
ATOM      6  N   UNL     1       7.567  -1.208  -0.834  0.00  0.00    -0.188 NA
ATOM      7  C   UNL     1       8.560  -2.060  -0.897  0.00  0.00    +0.136 C 
BRANCH   7   8
ATOM      8  C   UNL     1       9.872  -1.595  -1.067  0.00  0.00    +0.000 C 
ATOM      9  C   UNL     1      11.032  -2.361  -1.159  0.00  0.00    +0.004 A 
ATOM     10  C   UNL     1      11.261  -3.754  -1.115  0.00  0.00    +0.010 A 
ATOM     11  C   UNL     1      12.526  -4.232  -1.232  0.00  0.00    +0.001 A 
ATOM     12  C   UNL     1      13.620  -3.377  -1.397  0.00  0.00    +0.002 A 
ATOM     13  C   UNL     1      13.475  -2.031  -1.449  0.00  0.00    +0.026 A 
ATOM     14  C   UNL     1      12.181  -1.456  -1.333  0.00  0.00    +0.043 A 
ATOM     15  N   UNL     1      11.781  -0.202  -1.351  0.00  0.00    -0.380 N 
ATOM     16  C   UNL     1      10.324  -0.157  -1.197  0.00  0.00    +0.150 C 
ATOM     17  H   UNL     1      12.359   0.570  -1.454  0.00  0.00    +0.160 HD
ENDBRANCH   7   8
ENDBRANCH   4   6
ENDBRANCH   1   2
BRANCH   1  18
ATOM     18  S   UNL     1       2.685   0.115  -0.368  0.00  0.00    -0.080 S 
BRANCH  18  24
ATOM     19  C   UNL     1      -0.236   1.546  -0.123  0.00  0.00    +0.133 C 
ATOM     20  N   UNL     1      -0.085   0.090  -0.061  0.00  0.00    -0.288 N 
ATOM     21  C   UNL     1      -1.161  -0.901   0.105  0.00  0.00    +0.208 C 
ATOM     22  N   UNL     1      -0.456  -2.194   0.101  0.00  0.00    -0.242 N 
ATOM     23  N   UNL     1       0.903  -1.896  -0.057  0.00  0.00    -0.162 NA
ATOM     24  C   UNL     1       1.100  -0.625  -0.152  0.00  0.00    +0.175 C 
ATOM     25  H   UNL     1      -0.853  -3.075   0.190  0.00  0.00    +0.170 HD
BRANCH  21  26
ATOM     26  C   UNL     1      -1.877  -0.690   1.415  0.00  0.00    -0.007 A 
ATOM     27  C   UNL     1      -3.228  -0.397   1.424  0.00  0.00    +0.007 A 
ATOM     28  C   UNL     1      -3.886  -0.203   2.625  0.00  0.00    +0.002 A 
ATOM     29  C   UNL     1      -3.192  -0.302   3.816  0.00  0.00    +0.020 A 
ATOM     30  C   UNL     1      -1.840  -0.595   3.807  0.00  0.00    +0.041 A 
ATOM     31  C   UNL     1      -1.184  -0.794   2.606  0.00  0.00    +0.027 A 
ATOM     32 CL   UNL     1      -0.968  -0.718   5.303  0.00  0.00    -0.084 Cl
ENDBRANCH  21  26
ENDBRANCH  18  24
ENDBRANCH   1  18
TORSDOF 6
