REMARK  Name = ZINC23172620
REMARK  6 active torsions:
REMARK  status: ('A' for Active; 'I' for Inactive)
REMARK    1  A    between atoms: C_4  and  N_20
REMARK    2  A    between atoms: C_5  and  N_7
REMARK    3  A    between atoms: C_8  and  C_10
REMARK    4  A    between atoms: C_15  and  N_16
REMARK    5  A    between atoms: N_20  and  S_21
REMARK    6  A    between atoms: S_21  and  C_24
REMARK                            x       y       z     vdW  Elec       q    Type
REMARK                         _______ _______ _______ _____ _____    ______ ____
ROOT
ATOM      1  C   UNL     1      -0.218   1.354  -0.025  0.00  0.00    +0.002 A 
ATOM      2  C   UNL     1       0.945   2.102  -0.058  0.00  0.00    +0.002 A 
ATOM      3  C   UNL     1       2.175   1.473  -0.083  0.00  0.00    +0.028 A 
ATOM      4  C   UNL     1       2.247   0.088  -0.075  0.00  0.00    +0.095 A 
ATOM      5  C   UNL     1       1.074  -0.666  -0.042  0.00  0.00    +0.058 A 
ATOM      6  C   UNL     1      -0.156  -0.027  -0.018  0.00  0.00    +0.025 A 
ENDROOT
BRANCH   5   7
ATOM      7  N   UNL     1       1.139  -2.066  -0.035  0.00  0.00    -0.280 N 
ATOM      8  C   UNL     1       0.224  -2.779   0.652  0.00  0.00    +0.251 C 
ATOM      9  O   UNL     1      -0.700  -2.213   1.202  0.00  0.00    -0.270 OA
ATOM     10  H   UNL     1       1.842  -2.521  -0.524  0.00  0.00    +0.155 HD
BRANCH   8  11
ATOM     11  C   UNL     1       0.346  -4.249   0.736  0.00  0.00    +0.067 A 
ATOM     12  C   UNL     1       0.430  -5.013  -0.430  0.00  0.00    +0.017 A 
ATOM     13  C   UNL     1       0.544  -6.385  -0.344  0.00  0.00    +0.021 A 
ATOM     14  C   UNL     1       0.574  -7.005   0.894  0.00  0.00    +0.043 A 
ATOM     15  C   UNL     1       0.490  -6.252   2.054  0.00  0.00    +0.053 A 
ATOM     16  C   UNL     1       0.382  -4.879   1.981  0.00  0.00    +0.140 A 
ATOM     17 CL   UNL     1       0.716  -8.732   0.993  0.00  0.00    -0.083 Cl
BRANCH  16  18
ATOM     18  N   UNL     1       0.298  -4.075   3.222  0.00  0.00    +0.057 N 
ATOM     19  O   UNL     1       0.209  -4.626   4.294  0.00  0.00    -0.126 OA
ATOM     20  O   UNL     1       0.319  -2.868   3.162  0.00  0.00    -0.126 OA
ENDBRANCH  16  18
ENDBRANCH   8  11
ENDBRANCH   5   7
BRANCH   4  21
ATOM     21  N   UNL     1       3.491  -0.551  -0.101  0.00  0.00    -0.096 NA
BRANCH  21  22
ATOM     22  S   UNL     1       4.882   0.347  -0.141  0.00  0.00    +0.098 S 
ATOM     23  O   UNL     1       4.894   1.022  -1.392  0.00  0.00    -0.148 OA
ATOM     24  O   UNL     1       4.955   1.039   1.098  0.00  0.00    -0.148 OA
BRANCH  22  25
ATOM     25  C   UNL     1       6.232  -0.784  -0.166  0.00  0.00    +0.148 A 
ATOM     26  C   UNL     1       6.864  -1.335  -1.231  0.00  0.00    +0.037 A 
ATOM     27  C   UNL     1       7.913  -2.208  -1.010  0.00  0.00    +0.010 A 
ATOM     28  C   UNL     1       8.278  -2.488   0.265  0.00  0.00    +0.047 A 
ATOM     29  S   UNL     1       7.128  -1.497   1.204  0.00  0.00    -0.077 S 
ENDBRANCH  22  25
ENDBRANCH  21  22
ENDBRANCH   4  21
TORSDOF 6
