REMARK  Name = ZINC03284383
REMARK  9 active torsions:
REMARK  status: ('A' for Active; 'I' for Inactive)
REMARK    1  A    between atoms: C_1  and  C_2
REMARK    2  A    between atoms: C_15  and  C_17
REMARK    3  A    between atoms: C_17  and  O_18
REMARK    4  A    between atoms: O_18  and  C_19
REMARK    5  A    between atoms: C_19  and  C_21
REMARK    6  A    between atoms: C_22  and  C_23
REMARK    7  A    between atoms: C_26  and  O_31
REMARK    8  A    between atoms: C_27  and  O_29
REMARK    9  A    between atoms: O_29  and  C_30
REMARK                            x       y       z     vdW  Elec       q    Type
REMARK                         _______ _______ _______ _____ _____    ______ ____
ROOT
ATOM      1  C   UNL     1       1.397   3.572   0.259  0.00  0.00    +0.008 C 
ATOM      2  C   UNL     1       1.415   2.064  -0.000  0.00  0.00    -0.009 C 
ATOM      3  C   UNL     1      -0.019   1.524   0.010  0.00  0.00    +0.008 C 
ATOM      4  C   UNL     1       0.002  -0.004   0.002  0.00  0.00    +0.037 C 
ATOM      5  C   UNL     1       0.873  -0.481  -1.158  0.00  0.00    -0.023 A 
ATOM      6  C   UNL     1       1.763   0.357  -1.738  0.00  0.00    -0.004 A 
ATOM      7  S   UNL     1       2.538  -0.601  -3.016  0.00  0.00    -0.073 S 
ATOM      8  C   UNL     1       1.671  -2.118  -2.769  0.00  0.00    +0.116 A 
ATOM      9  C   UNL     1       0.801  -1.828  -1.695  0.00  0.00    +0.075 A 
ATOM     10  C   UNL     1      -0.058  -2.888  -1.248  0.00  0.00    +0.260 A 
ATOM     11  O   UNL     1      -0.845  -2.741  -0.329  0.00  0.00    -0.267 OA
ATOM     12  N   UNL     1       0.063  -4.061  -1.913  0.00  0.00    -0.308 N 
ATOM     13  H   UNL     1      -0.499  -4.805  -1.644  0.00  0.00    +0.170 HD
ATOM     14  C   UNL     1       0.930  -4.245  -2.937  0.00  0.00    +0.149 A 
ATOM     15  N   UNL     1       1.732  -3.300  -3.375  0.00  0.00    -0.223 NA
ATOM     16  C   UNL     1       2.034   1.785  -1.377  0.00  0.00    +0.046 C 
ENDROOT
BRANCH  14  17
ATOM     17  C   UNL     1       0.978  -5.595  -3.605  0.00  0.00    +0.306 C 
BRANCH  17  18
ATOM     18  O   UNL     1       1.952  -5.575  -4.651  0.00  0.00    -0.454 OA
BRANCH  18  19
ATOM     19  C   UNL     1       2.120  -6.714  -5.353  0.00  0.00    +0.332 C 
ATOM     20  O   UNL     1       1.458  -7.699  -5.084  0.00  0.00    -0.246 OA
BRANCH  19  21
ATOM     21  C   UNL     1       3.070  -6.765  -6.405  0.00  0.00    +0.092 C 
ATOM     22  C   UNL     1       3.239  -7.906  -7.109  0.00  0.00    +0.015 C 
BRANCH  22  23
ATOM     23  C   UNL     1       4.222  -7.958  -8.199  0.00  0.00    -0.021 A 
ATOM     24  C   UNL     1       4.986  -6.827  -8.511  0.00  0.00    +0.012 A 
ATOM     25  C   UNL     1       5.907  -6.879  -9.533  0.00  0.00    +0.050 A 
ATOM     26  C   UNL     1       6.082  -8.051 -10.256  0.00  0.00    +0.158 A 
ATOM     27  C   UNL     1       5.325  -9.183  -9.952  0.00  0.00    +0.162 A 
ATOM     28  C   UNL     1       4.403  -9.141  -8.925  0.00  0.00    +0.057 A 
BRANCH  27  29
ATOM     29  O   UNL     1       5.499 -10.328 -10.664  0.00  0.00    -0.491 OA
ATOM     30  C   UNL     1       4.691 -11.448 -10.298  0.00  0.00    +0.277 C 
ENDBRANCH  27  29
BRANCH  26  31
ATOM     31  O   UNL     1       6.992  -8.097 -11.263  0.00  0.00    -0.503 OA
ATOM     32  H   UNL     1       7.876  -8.371 -10.982  0.00  0.00    +0.292 HD
ENDBRANCH  26  31
ENDBRANCH  22  23
ENDBRANCH  19  21
ENDBRANCH  18  19
ENDBRANCH  17  18
ENDBRANCH  14  17
TORSDOF 7
