REMARK  Name = ZINC20616609
REMARK  5 active torsions:
REMARK  status: ('A' for Active; 'I' for Inactive)
REMARK    1  A    between atoms: C_1  and  C_2
REMARK    2  A    between atoms: C_5  and  C_30
REMARK    3  A    between atoms: C_6  and  N_8
REMARK    4  A    between atoms: C_10  and  C_22
REMARK    5  A    between atoms: C_14  and  N_19
REMARK                            x       y       z     vdW  Elec       q    Type
REMARK                         _______ _______ _______ _____ _____    ______ ____
ROOT
ATOM      1  N   UNL     1      -0.032  -0.013  -2.394  0.00  0.00    -0.325 N 
ATOM      2  C   UNL     1       0.060  -0.664  -3.533  0.00  0.00    +0.212 A 
ATOM      3  C   UNL     1       0.145   0.059  -4.818  0.00  0.00    +0.098 A 
ATOM      4  C   UNL     1       0.787  -0.588  -5.866  0.00  0.00    +0.030 A 
ATOM      5  C   UNL     1       1.322  -1.926  -5.604  0.00  0.00    +0.020 A 
ATOM      6  C   UNL     1       2.204  -2.534  -6.505  0.00  0.00    +0.044 A 
ATOM      7  C   UNL     1       2.692  -3.782  -6.237  0.00  0.00    +0.127 A 
ATOM      8  C   UNL     1       2.320  -4.452  -5.080  0.00  0.00    +0.036 A 
ATOM      9  C   UNL     1       1.451  -3.870  -4.180  0.00  0.00    +0.049 A 
ATOM     10  C   UNL     1       0.941  -2.605  -4.432  0.00  0.00    +0.138 A 
ATOM     11  O   UNL     1       0.086  -2.021  -3.563  0.00  0.00    -0.439 OA
ATOM     12  H   UNL     1      -0.143   1.082  -2.393  0.00  0.00    +0.169 HD
ENDROOT
BRANCH   3  13
ATOM     13  C   UNL     1      -0.426   1.406  -4.980  0.00  0.00    +0.255 C 
ATOM     14  O   UNL     1      -0.983   1.948  -4.044  0.00  0.00    -0.270 OA
ATOM     15  N   UNL     1      -0.332   2.039  -6.167  0.00  0.00    -0.261 N 
ATOM     16  C   UNL     1      -0.871   3.310  -6.320  0.00  0.00    +0.165 A 
ATOM     17  N   UNL     1      -1.511   4.051  -5.436  0.00  0.00    -0.233 NA
ATOM     18  C   UNL     1      -1.959   5.252  -5.748  0.00  0.00    +0.120 A 
ATOM     19  C   UNL     1      -1.759   5.709  -7.008  0.00  0.00    +0.068 A 
ATOM     20  S   UNL     1      -0.883   4.327  -7.727  0.00  0.00    -0.061 S 
ATOM     21  H   UNL     1       0.171   1.549  -7.013  0.00  0.00    +0.157 HD
ENDBRANCH   3  13
BRANCH   1  27
ATOM     22  C   UNL     1      -2.398  -2.275   1.246  0.00  0.00    +0.044 C 
ATOM     23  C   UNL     1      -1.123  -1.813   0.590  0.00  0.00    -0.048 A 
ATOM     24  C   UNL     1       0.097  -2.075   1.190  0.00  0.00    +0.004 A 
ATOM     25  C   UNL     1       1.273  -1.655   0.596  0.00  0.00    +0.005 A 
ATOM     26  C   UNL     1       1.238  -0.969  -0.601  0.00  0.00    -0.027 A 
ATOM     27  C   UNL     1       0.011  -0.696  -1.210  0.00  0.00    +0.045 A 
ATOM     28  C   UNL     1      -1.173  -1.129  -0.607  0.00  0.00    +0.029 A 
ATOM     29  C   UNL     1       2.520  -0.511  -1.246  0.00  0.00    +0.046 C 
ENDBRANCH   1  27
BRANCH   7  30
ATOM     30  N   UNL     1       3.625  -4.426  -7.190  0.00  0.00    +0.056 N 
ATOM     31  O   UNL     1       3.954  -3.843  -8.207  0.00  0.00    -0.126 OA
ATOM     32  O   UNL     1       4.063  -5.538  -6.957  0.00  0.00    -0.126 OA
ENDBRANCH   7  30
TORSDOF 3
