REMARK  Name = ZINC36693394
REMARK  9 active torsions:
REMARK  status: ('A' for Active; 'I' for Inactive)
REMARK    1  A    between atoms: C_1  and  C_2
REMARK    2  A    between atoms: C_2  and  N_3
REMARK    3  A    between atoms: N_10  and  C_11
REMARK    4  A    between atoms: N_12  and  N_13
REMARK    5  A    between atoms: C_14  and  C_15
REMARK    6  A    between atoms: C_18  and  C_21
REMARK    7  A    between atoms: C_21  and  C_22
REMARK    8  A    between atoms: C_21  and  C_23
REMARK    9  A    between atoms: N_24  and  C_27
REMARK                            x       y       z     vdW  Elec       q    Type
REMARK                         _______ _______ _______ _____ _____    ______ ____
ROOT
ATOM      1  N   UNL     1       0.711  -0.489   1.189  0.00  0.00    -0.259 N 
ATOM      2  C   UNL     1       2.044  -0.687   1.132  0.00  0.00    +0.282 A 
ATOM      3  O   UNL     1       2.656  -0.464   0.102  0.00  0.00    -0.265 OA
ATOM      4  C   UNL     1       2.720  -1.153   2.274  0.00  0.00    +0.153 A 
ATOM      5  C   UNL     1       1.998  -1.399   3.437  0.00  0.00    +0.170 A 
ATOM      6  N   UNL     1       2.858  -1.827   4.362  0.00  0.00    -0.195 NA
ATOM      7  C   UNL     1       4.076  -1.867   3.860  0.00  0.00    +0.218 A 
ATOM      8  N   UNL     1       4.043  -1.457   2.563  0.00  0.00    -0.308 N 
ATOM      9  C   UNL     1       5.183  -1.355   1.649  0.00  0.00    +0.152 C 
ATOM     10  N   UNL     1       5.205  -2.261   4.541  0.00  0.00    -0.206 N 
ATOM     11  N   UNL     1       0.630  -1.177   3.434  0.00  0.00    -0.280 N 
ATOM     12  C   UNL     1       0.023  -0.726   2.320  0.00  0.00    +0.333 A 
ATOM     13  O   UNL     1      -1.177  -0.531   2.336  0.00  0.00    -0.246 OA
ATOM     14  C   UNL     1      -0.155  -1.427   4.644  0.00  0.00    +0.155 C 
ATOM     15  H   UNL     1       6.066  -2.260   4.094  0.00  0.00    +0.177 HD
ENDROOT
BRANCH   1  17
ATOM     16  C   UNL     1      -0.019   1.526   0.010  0.00  0.00    +0.027 C 
ATOM     17  C   UNL     1       0.002  -0.004   0.002  0.00  0.00    +0.126 C 
ENDBRANCH   1  17
BRANCH  10  18
ATOM     18  N   UNL     1       5.111  -2.663   5.879  0.00  0.00    -0.188 NA
ATOM     19  C   UNL     1       6.176  -3.035   6.522  0.00  0.00    +0.138 C 
BRANCH  19  20
ATOM     20  C   UNL     1       6.077  -3.458   7.931  0.00  0.00    -0.005 A 
ATOM     21  C   UNL     1       4.838  -3.466   8.576  0.00  0.00    +0.010 A 
ATOM     22  C   UNL     1       4.753  -3.863   9.894  0.00  0.00    +0.004 A 
ATOM     23  C   UNL     1       5.892  -4.253  10.577  0.00  0.00    -0.045 A 
ATOM     24  C   UNL     1       7.122  -4.247   9.945  0.00  0.00    +0.004 A 
ATOM     25  C   UNL     1       7.222  -3.859   8.625  0.00  0.00    +0.010 A 
BRANCH  23  26
ATOM     26  C   UNL     1       5.791  -4.684  12.018  0.00  0.00    +0.013 C 
ATOM     27  C   UNL     1       6.284  -6.126  12.154  0.00  0.00    +0.012 C 
ATOM     28  C   UNL     1       6.653  -3.766  12.887  0.00  0.00    +0.012 C 
ENDBRANCH  23  26
ENDBRANCH  19  20
ENDBRANCH  10  18
TORSDOF 4
