REMARK  Name = ZINC13467615
REMARK  12 active torsions:
REMARK  status: ('A' for Active; 'I' for Inactive)
REMARK    1  A    between atoms: C_1  and  C_2
REMARK    2  A    between atoms: C_2  and  N_3
REMARK    3  A    between atoms: N_3  and  C_4
REMARK    4  A    between atoms: N_3  and  S_6
REMARK    5  A    between atoms: C_4  and  C_5
REMARK    6  A    between atoms: S_6  and  C_9
REMARK    7  A    between atoms: C_12  and  O_28
REMARK    8  A    between atoms: C_13  and  N_15
REMARK    9  A    between atoms: C_16  and  C_18
REMARK   10  A    between atoms: C_24  and  C_26
REMARK   11  A    between atoms: O_28  and  C_29
REMARK   12  A    between atoms: C_33  and  C_35
REMARK                            x       y       z     vdW  Elec       q    Type
REMARK                         _______ _______ _______ _____ _____    ______ ____
ROOT
ATOM      1  C   UNL     1       1.164   7.110   1.129  0.00  0.00    +0.107 A 
ATOM      2  C   UNL     1       2.317   7.873   1.136  0.00  0.00    +0.032 A 
ATOM      3  C   UNL     1       3.542   7.283   0.887  0.00  0.00    +0.050 A 
ATOM      4  C   UNL     1       3.618   5.923   0.631  0.00  0.00    +0.150 A 
ATOM      5  C   UNL     1       2.456   5.154   0.624  0.00  0.00    +0.078 A 
ATOM      6  C   UNL     1       1.230   5.754   0.869  0.00  0.00    +0.055 A 
ENDROOT
BRANCH   5   7
ATOM      7  N   UNL     1       2.526   3.779   0.365  0.00  0.00    -0.282 N 
ATOM      8  C   UNL     1       1.525   3.167  -0.299  0.00  0.00    +0.221 C 
ATOM      9  O   UNL     1       0.618   3.821  -0.767  0.00  0.00    -0.275 OA
ATOM     10  H   UNL     1       3.294   3.267   0.663  0.00  0.00    +0.155 HD
BRANCH   8  11
ATOM     11  C   UNL     1       1.534   1.668  -0.460  0.00  0.00    +0.093 C 
ATOM     12  C   UNL     1       0.100   1.136  -0.397  0.00  0.00    +0.040 C 
ATOM     13  C   UNL     1      -0.655   1.540  -1.629  0.00  0.00    -0.030 C 
ATOM     14  C   UNL     1      -0.095   1.951  -2.722  0.00  0.00    -0.030 C 
ATOM     15  C   UNL     1       1.388   2.089  -2.905  0.00  0.00    +0.042 C 
ATOM     16  C   UNL     1       2.129   1.299  -1.824  0.00  0.00    +0.118 C 
BRANCH  16  17
ATOM     17  C   UNL     1       3.594   1.650  -1.849  0.00  0.00    +0.360 C 
ATOM     18  O   UNL     1       4.115   2.138  -0.874  0.00  0.00    -0.246 OA
ATOM     19  O   UNL     1       4.321   1.421  -2.954  0.00  0.00    -0.246 OA
ENDBRANCH  16  17
ENDBRANCH   8  11
ENDBRANCH   5   7
BRANCH   1  20
ATOM     20  S   UNL     1      -0.394   7.869   1.447  0.00  0.00    +0.061 S 
ATOM     21  O   UNL     1      -1.256   6.845   1.923  0.00  0.00    -0.153 OA
ATOM     22  O   UNL     1      -0.126   9.048   2.194  0.00  0.00    -0.153 OA
BRANCH  20  23
ATOM     23  N   UNL     1      -1.005   8.362  -0.012  0.00  0.00    -0.177 NA
BRANCH  23  25
ATOM     24  C   UNL     1      -3.322   7.746  -0.494  0.00  0.00    +0.022 C 
ATOM     25  C   UNL     1      -1.850   7.457  -0.795  0.00  0.00    +0.106 C 
ENDBRANCH  23  25
BRANCH  23  26
ATOM     26  C   UNL     1      -0.700   9.702  -0.518  0.00  0.00    +0.106 C 
ATOM     27  C   UNL     1       0.504   9.629  -1.460  0.00  0.00    +0.022 C 
ENDBRANCH  23  26
ENDBRANCH  20  23
ENDBRANCH   1  20
BRANCH   4  28
ATOM     28  O   UNL     1       4.822   5.341   0.387  0.00  0.00    -0.454 OA
BRANCH  28  29
ATOM     29  C   UNL     1       5.171   5.115  -0.907  0.00  0.00    +0.129 A 
ATOM     30  C   UNL     1       4.354   5.563  -1.935  0.00  0.00    +0.046 A 
ATOM     31  C   UNL     1       4.714   5.337  -3.250  0.00  0.00    +0.004 A 
ATOM     32  C   UNL     1       5.881   4.655  -3.541  0.00  0.00    +0.003 A 
ATOM     33  C   UNL     1       6.693   4.202  -2.518  0.00  0.00    -0.047 A 
ATOM     34  C   UNL     1       6.341   4.430  -1.201  0.00  0.00    +0.049 A 
ATOM     35  C   UNL     1       7.964   3.458  -2.838  0.00  0.00    +0.044 C 
ENDBRANCH  28  29
ENDBRANCH   4  28
TORSDOF 9
