REMARK  Name = ZINC09530173
REMARK  9 active torsions:
REMARK  status: ('A' for Active; 'I' for Inactive)
REMARK    1  A    between atoms: C_1  and  C_2
REMARK    2  A    between atoms: C_9  and  S_14
REMARK    3  A    between atoms: S_14  and  C_15
REMARK    4  A    between atoms: C_15  and  C_16
REMARK    5  A    between atoms: N_18  and  C_19
REMARK    6  A    between atoms: C_21  and  O_27
REMARK    7  A    between atoms: C_23  and  O_25
REMARK    8  A    between atoms: O_25  and  C_26
REMARK    9  A    between atoms: O_27  and  C_28
REMARK                            x       y       z     vdW  Elec       q    Type
REMARK                         _______ _______ _______ _____ _____    ______ ____
ROOT
ATOM      1  S   UNL     1      -2.689   0.750   0.017  0.00  0.00    -0.079 S 
ENDROOT
BRANCH   1  10
ATOM      2  C   UNL     1      -9.991   1.132  -1.459  0.00  0.00    +0.044 C 
ATOM      3  C   UNL     1      -8.754   1.911  -1.093  0.00  0.00    -0.049 A 
ATOM      4  C   UNL     1      -8.773   3.293  -1.141  0.00  0.00    +0.005 A 
ATOM      5  C   UNL     1      -7.638   4.013  -0.806  0.00  0.00    +0.031 A 
ATOM      6  C   UNL     1      -6.494   3.348  -0.425  0.00  0.00    +0.134 A 
ATOM      7  C   UNL     1      -6.467   1.959  -0.372  0.00  0.00    +0.060 A 
ATOM      8  C   UNL     1      -7.609   1.242  -0.710  0.00  0.00    +0.028 A 
ATOM      9  N   UNL     1      -5.308   1.296   0.017  0.00  0.00    -0.291 N 
ATOM     10  C   UNL     1      -4.064   1.852   0.018  0.00  0.00    +0.180 C 
ATOM     11  N   UNL     1      -3.807   3.120   0.015  0.00  0.00    -0.106 NA
ATOM     12  S   UNL     1      -5.032   4.237   0.005  0.00  0.00    +0.103 S 
ATOM     13  O   UNL     1      -5.199   4.677   1.346  0.00  0.00    -0.146 OA
ATOM     14  O   UNL     1      -4.765   5.130  -1.069  0.00  0.00    -0.146 OA
ATOM     15  H   UNL     1      -5.392   0.376   0.310  0.00  0.00    +0.154 HD
ENDBRANCH   1  10
BRANCH   1  16
ATOM     16  C   UNL     1      -1.330   1.945   0.012  0.00  0.00    +0.173 C 
BRANCH  16  17
ATOM     17  C   UNL     1      -0.014   1.209   0.011  0.00  0.00    +0.227 C 
ATOM     18  O   UNL     1       0.002  -0.004   0.013  0.00  0.00    -0.275 OA
ATOM     19  N   UNL     1       1.143   1.898   0.001  0.00  0.00    -0.285 N 
ATOM     20  H   UNL     1       1.131   2.866  -0.068  0.00  0.00    +0.155 HD
BRANCH  19  21
ATOM     21  C   UNL     1       2.363   1.219   0.092  0.00  0.00    +0.040 A 
ATOM     22  C   UNL     1       3.427   1.790   0.776  0.00  0.00    +0.069 A 
ATOM     23  C   UNL     1       4.634   1.113   0.871  0.00  0.00    +0.125 A 
ATOM     24  C   UNL     1       4.781  -0.129   0.271  0.00  0.00    +0.091 A 
ATOM     25  C   UNL     1       3.720  -0.697  -0.418  0.00  0.00    +0.125 A 
ATOM     26  C   UNL     1       2.511  -0.024  -0.508  0.00  0.00    +0.069 A 
BRANCH  25  27
ATOM     27  O   UNL     1       3.866  -1.914  -1.005  0.00  0.00    -0.495 OA
ATOM     28  C   UNL     1       5.138  -2.551  -0.872  0.00  0.00    +0.277 C 
ENDBRANCH  25  27
BRANCH  23  29
ATOM     29  O   UNL     1       5.674   1.669   1.546  0.00  0.00    -0.495 OA
ATOM     30  C   UNL     1       6.889   0.919   1.598  0.00  0.00    +0.277 C 
ENDBRANCH  23  29
ENDBRANCH  19  21
ENDBRANCH  16  17
ENDBRANCH   1  16
TORSDOF 6
