REMARK  Name = ZINC65407144
REMARK  9 active torsions:
REMARK  status: ('A' for Active; 'I' for Inactive)
REMARK    1  A    between atoms: C_1  and  C_2
REMARK    2  A    between atoms: C_2  and  C_3
REMARK    3  A    between atoms: C_2  and  C_4
REMARK    4  A    between atoms: C_2  and  O_27
REMARK    5  A    between atoms: C_5  and  C_6
REMARK    6  A    between atoms: C_9  and  C_12
REMARK    7  A    between atoms: C_21  and  O_25
REMARK    8  A    between atoms: C_22  and  O_24
REMARK    9  A    between atoms: O_25  and  C_26
REMARK                            x       y       z     vdW  Elec       q    Type
REMARK                         _______ _______ _______ _____ _____    ______ ____
ROOT
ATOM      1  C   UNL     1      -7.835  -2.896   0.060  0.00  0.00    +0.060 C 
ATOM      2  C   UNL     1      -8.074  -3.746  -1.188  0.00  0.00    +0.109 C 
ATOM      3  C   UNL     1      -7.321  -5.044  -1.075  0.00  0.00    +0.218 C 
ATOM      4  O   UNL     1      -6.837  -5.545  -2.068  0.00  0.00    -0.275 OA
ATOM      5  N   UNL     1      -7.178  -5.655   0.116  0.00  0.00    -0.285 N 
ATOM      6  C   UNL     1      -7.715  -5.084   1.276  0.00  0.00    +0.041 A 
ATOM      7  C   UNL     1      -8.051  -3.737   1.292  0.00  0.00    -0.015 A 
ATOM      8  C   UNL     1      -8.581  -3.169   2.434  0.00  0.00    +0.055 A 
ATOM      9  C   UNL     1      -8.778  -3.943   3.567  0.00  0.00    +0.162 A 
ATOM     10  C   UNL     1      -8.442  -5.293   3.553  0.00  0.00    +0.160 A 
ATOM     11  C   UNL     1      -7.911  -5.862   2.408  0.00  0.00    +0.072 A 
ATOM     12  H   UNL     1      -6.699  -6.497   0.171  0.00  0.00    +0.155 HD
ENDROOT
BRANCH   1  16
ATOM     13  C   UNL     1      -3.824  -1.416   0.031  0.00  0.00    +0.025 A 
ATOM     14  C   UNL     1      -4.899  -0.526   0.040  0.00  0.00    +0.017 A 
ATOM     15  C   UNL     1      -6.191  -1.010   0.050  0.00  0.00    +0.005 A 
ATOM     16  C   UNL     1      -6.422  -2.374   0.050  0.00  0.00    -0.039 A 
ATOM     17  C   UNL     1      -5.360  -3.261   0.041  0.00  0.00    +0.005 A 
ATOM     18  C   UNL     1      -4.064  -2.790   0.026  0.00  0.00    +0.017 A 
BRANCH  13  20
ATOM     19  C   UNL     1      -1.379  -0.514   0.013  0.00  0.00    -0.063 C 
ATOM     20  C   UNL     1      -2.480  -0.920   0.021  0.00  0.00    -0.063 C 
BRANCH  19  22
ATOM     21  C   UNL     1      -0.019   1.526   0.010  0.00  0.00    +0.055 C 
ATOM     22  C   UNL     1       0.002  -0.004   0.002  0.00  0.00    +0.121 C 
ATOM     23  C   UNL     1       0.742  -0.511   1.242  0.00  0.00    +0.055 C 
BRANCH  22  24
ATOM     24  O   UNL     1       0.671  -0.465  -1.174  0.00  0.00    -0.377 OA
ATOM     25  H   UNL     1       1.588  -0.167  -1.247  0.00  0.00    +0.211 HD
ENDBRANCH  22  24
ENDBRANCH  19  22
ENDBRANCH  13  20
ENDBRANCH   1  16
BRANCH  10  26
ATOM     26  O   UNL     1      -8.635  -6.054   4.664  0.00  0.00    -0.503 OA
ATOM     27  H   UNL     1      -9.505  -6.474   4.707  0.00  0.00    +0.292 HD
ENDBRANCH  10  26
BRANCH   9  28
ATOM     28  O   UNL     1      -9.300  -3.383   4.691  0.00  0.00    -0.491 OA
ATOM     29  C   UNL     1      -9.622  -1.992   4.634  0.00  0.00    +0.277 C 
ENDBRANCH   9  28
TORSDOF 6
