REMARK  Name = ZINC33788257
REMARK  7 active torsions:
REMARK  status: ('A' for Active; 'I' for Inactive)
REMARK    1  A    between atoms: C_1  and  C_2
REMARK    2  A    between atoms: C_2  and  N_3
REMARK    3  A    between atoms: C_6  and  C_20
REMARK    4  A    between atoms: N_8  and  N_11
REMARK    5  A    between atoms: C_12  and  C_14
REMARK    6  A    between atoms: C_20  and  C_21
REMARK    7  A    between atoms: N_23  and  C_24
REMARK                            x       y       z     vdW  Elec       q    Type
REMARK                         _______ _______ _______ _____ _____    ______ ____
ROOT
ATOM      1  N   UNL     1       0.662  -0.465  -1.221  0.00  0.00    -0.251 N 
ATOM      2  C   UNL     1       0.055  -0.716  -2.398  0.00  0.00    +0.244 C 
ATOM      3  O   UNL     1      -1.124  -0.595  -2.654  0.00  0.00    -0.273 OA
ATOM      4  C   UNL     1       1.153  -1.180  -3.334  0.00  0.00    +0.191 C 
ATOM      5  N   UNL     1       2.365  -1.133  -2.498  0.00  0.00    -0.219 N 
ATOM      6  C   UNL     1       1.978  -0.699  -1.285  0.00  0.00    +0.159 C 
ATOM      7  S   UNL     1       3.049  -0.476   0.032  0.00  0.00    -0.017 S 
ENDROOT
BRANCH   5   8
ATOM      8  N   UNL     1       3.667  -1.469  -2.891  0.00  0.00    -0.228 N 
ATOM      9  C   UNL     1       4.572  -0.499  -3.123  0.00  0.00    +0.260 C 
ATOM     10  O   UNL     1       4.260   0.668  -2.991  0.00  0.00    -0.269 OA
ATOM     11  H   UNL     1       3.916  -2.401  -2.996  0.00  0.00    +0.173 HD
BRANCH   9  12
ATOM     12  C   UNL     1       5.947  -0.854  -3.538  0.00  0.00    +0.038 A 
ATOM     13  C   UNL     1       6.307  -2.193  -3.695  0.00  0.00    +0.013 A 
ATOM     14  C   UNL     1       7.591  -2.518  -4.082  0.00  0.00    +0.001 A 
ATOM     15  C   UNL     1       8.520  -1.519  -4.314  0.00  0.00    +0.000 A 
ATOM     16  C   UNL     1       8.169  -0.190  -4.159  0.00  0.00    +0.001 A 
ATOM     17  C   UNL     1       6.887   0.149  -3.779  0.00  0.00    +0.013 A 
ENDBRANCH   9  12
ENDBRANCH   5   8
BRANCH   1  19
ATOM     18  C   UNL     1      -0.050   1.541  -0.017  0.00  0.00    +0.025 C 
ATOM     19  C   UNL     1      -0.032   0.011  -0.022  0.00  0.00    +0.112 C 
ENDBRANCH   1  19
BRANCH   4  20
ATOM     20  C   UNL     1       0.882  -2.608  -3.815  0.00  0.00    +0.129 C 
BRANCH  20  21
ATOM     21  C   UNL     1       1.940  -3.011  -4.810  0.00  0.00    +0.220 C 
ATOM     22  O   UNL     1       2.823  -2.234  -5.106  0.00  0.00    -0.275 OA
ATOM     23  N   UNL     1       1.904  -4.236  -5.371  0.00  0.00    -0.284 N 
ATOM     24  H   UNL     1       1.247  -4.886  -5.077  0.00  0.00    +0.155 HD
BRANCH  23  25
ATOM     25  C   UNL     1       2.816  -4.571  -6.380  0.00  0.00    +0.052 A 
ATOM     26  C   UNL     1       3.389  -3.574  -7.158  0.00  0.00    +0.025 A 
ATOM     27  C   UNL     1       4.289  -3.908  -8.152  0.00  0.00    +0.002 A 
ATOM     28  C   UNL     1       4.619  -5.232  -8.372  0.00  0.00    +0.002 A 
ATOM     29  C   UNL     1       4.050  -6.228  -7.599  0.00  0.00    +0.022 A 
ATOM     30  C   UNL     1       3.153  -5.901  -6.600  0.00  0.00    +0.062 A 
ATOM     31 CL   UNL     1       2.445  -7.150  -5.625  0.00  0.00    -0.082 Cl
ENDBRANCH  23  25
ENDBRANCH  20  21
ENDBRANCH   4  20
TORSDOF 6
