REMARK  Name = ZINC20817739
REMARK  7 active torsions:
REMARK  status: ('A' for Active; 'I' for Inactive)
REMARK    1  A    between atoms: C_3  and  C_6
REMARK    2  A    between atoms: C_9  and  C_26
REMARK    3  A    between atoms: C_12  and  C_14
REMARK    4  A    between atoms: C_14  and  S_15
REMARK    5  A    between atoms: S_15  and  C_16
REMARK    6  A    between atoms: C_19  and  C_22
REMARK    7  A    between atoms: N_20  and  N_21
REMARK                            x       y       z     vdW  Elec       q    Type
REMARK                         _______ _______ _______ _____ _____    ______ ____
ROOT
ATOM      1  C   UNL     1      -0.634  10.161   0.054  0.00  0.00    +0.173 C 
ATOM      2  C   UNL     1       0.671  10.982   0.051  0.00  0.00    +0.090 C 
ATOM      3  C   UNL     1       1.760   9.934   0.036  0.00  0.00    +0.069 C 
ATOM      4  N   UNL     1       1.229   8.761   0.036  0.00  0.00    -0.181 NA
ATOM      5  N   UNL     1      -0.164   8.766   0.048  0.00  0.00    -0.181 N 
ATOM      6  C   UNL     1      -0.952   7.673   0.050  0.00  0.00    +0.246 C 
ATOM      7  O   UNL     1      -2.159   7.796   0.061  0.00  0.00    -0.273 OA
ENDROOT
BRANCH   3   8
ATOM      8  C   UNL     1       3.209  10.213   0.025  0.00  0.00    -0.002 A 
ATOM      9  C   UNL     1       3.669  11.531   0.021  0.00  0.00    +0.011 A 
ATOM     10  C   UNL     1       5.025  11.785   0.017  0.00  0.00    +0.020 A 
ATOM     11  C   UNL     1       5.929  10.736   0.004  0.00  0.00    +0.041 A 
ATOM     12  C   UNL     1       5.479   9.426   0.001  0.00  0.00    +0.020 A 
ATOM     13  C   UNL     1       4.126   9.159   0.011  0.00  0.00    +0.011 A 
ATOM     14 CL   UNL     1       7.633  11.064  -0.009  0.00  0.00    -0.084 Cl
ENDBRANCH   3   8
BRANCH   1  17
ATOM     15  C   UNL     1      -2.991  11.213  -2.577  0.00  0.00    +0.041 A 
ATOM     16  C   UNL     1      -2.556  11.213  -1.232  0.00  0.00    +0.046 A 
ATOM     17  C   UNL     1      -1.448  10.451  -1.181  0.00  0.00    +0.128 A 
ATOM     18  O   UNL     1      -1.188   9.997  -2.418  0.00  0.00    -0.466 OA
ATOM     19  C   UNL     1      -2.124  10.451  -3.267  0.00  0.00    +0.195 A 
ENDBRANCH   1  17
BRANCH   6  20
ATOM     20  C   UNL     1      -0.335   6.299   0.037  0.00  0.00    +0.175 C 
BRANCH  20  21
ATOM     21  S   UNL     1      -1.644   5.049   0.043  0.00  0.00    -0.075 S 
BRANCH  21  22
ATOM     22  C   UNL     1      -0.667   3.582   0.026  0.00  0.00    +0.209 A 
ATOM     23  N   UNL     1       0.644   3.518   0.014  0.00  0.00    -0.121 NA
ATOM     24  N   UNL     1       1.021   2.289   0.005  0.00  0.00    -0.123 NA
ATOM     25  C   UNL     1      -0.018   1.503   0.010  0.00  0.00    +0.255 A 
ATOM     26  N   UNL     1      -1.131   2.298   0.019  0.00  0.00    -0.220 N 
BRANCH  25  27
ATOM     27  C   UNL     1       0.002  -0.004   0.002  0.00  0.00    +0.454 C 
ATOM     28  F   UNL     1       1.285  -0.455   0.329  0.00  0.00    -0.163 F 
ATOM     29  F   UNL     1      -0.916  -0.488   0.941  0.00  0.00    -0.163 F 
ATOM     30  F   UNL     1      -0.345  -0.468  -1.271  0.00  0.00    -0.163 F 
ENDBRANCH  25  27
BRANCH  26  31
ATOM     31  N   UNL     1      -2.435   1.892   0.023  0.00  0.00    -0.295 N 
ATOM     32  H   UNL     1      -2.677   0.819   0.016  0.00  0.00    +0.163 HD
ATOM     33  H   UNL     1      -3.243   2.638   0.033  0.00  0.00    +0.163 HD
ENDBRANCH  26  31
ENDBRANCH  21  22
ENDBRANCH  20  21
ENDBRANCH   6  20
TORSDOF 7
