REMARK  Name = ZINC13701694
REMARK  7 active torsions:
REMARK  status: ('A' for Active; 'I' for Inactive)
REMARK    1  A    between atoms: C_1  and  C_2
REMARK    2  A    between atoms: C_5  and  C_8
REMARK    3  A    between atoms: C_14  and  S_17
REMARK    4  A    between atoms: S_17  and  C_18
REMARK    5  A    between atoms: C_18  and  C_19
REMARK    6  A    between atoms: N_21  and  C_22
REMARK    7  A    between atoms: C_25  and  N_28
REMARK                            x       y       z     vdW  Elec       q    Type
REMARK                         _______ _______ _______ _____ _____    ______ ____
ROOT
ATOM      1  C   UNL     1       3.437  -1.022  -5.394  0.00  0.00    +0.249 C 
ATOM      2  O   UNL     1       3.701  -1.369  -4.259  0.00  0.00    -0.270 OA
ATOM      3  N   UNL     1       2.389  -0.207  -5.623  0.00  0.00    -0.265 N 
ATOM      4  C   UNL     1       1.670   0.324  -4.551  0.00  0.00    +0.148 A 
ATOM      5  C   UNL     1       0.657   1.256  -4.781  0.00  0.00    +0.048 A 
ATOM      6  C   UNL     1      -0.027   1.755  -3.687  0.00  0.00    +0.040 A 
ATOM      7  C   UNL     1       0.339   1.295  -2.421  0.00  0.00    +0.120 A 
ATOM      8  N   UNL     1       1.319   0.413  -2.298  0.00  0.00    -0.141 NA
ATOM      9  N   UNL     1       1.949  -0.053  -3.314  0.00  0.00    -0.133 NA
ATOM     10  H   UNL     1       2.133   0.010  -6.533  0.00  0.00    +0.157 HD
ENDROOT
BRANCH   1  15
ATOM     11  C   UNL     1       6.663  -2.866  -9.788  0.00  0.00    +0.044 C 
ATOM     12  C   UNL     1       5.818  -2.383  -8.637  0.00  0.00    -0.050 A 
ATOM     13  C   UNL     1       6.122  -2.779  -7.346  0.00  0.00    +0.004 A 
ATOM     14  C   UNL     1       5.353  -2.340  -6.289  0.00  0.00    +0.013 A 
ATOM     15  C   UNL     1       4.266  -1.496  -6.522  0.00  0.00    +0.037 A 
ATOM     16  C   UNL     1       3.962  -1.105  -7.828  0.00  0.00    +0.013 A 
ATOM     17  C   UNL     1       4.743  -1.546  -8.876  0.00  0.00    +0.004 A 
ENDBRANCH   1  15
BRANCH   7  18
ATOM     18  S   UNL     1      -0.495   1.894  -0.989  0.00  0.00    -0.095 S 
BRANCH  18  19
ATOM     19  C   UNL     1       0.314   1.027   0.385  0.00  0.00    +0.172 C 
BRANCH  19  20
ATOM     20  C   UNL     1      -0.313   1.454   1.687  0.00  0.00    +0.227 C 
ATOM     21  O   UNL     1      -1.216   2.262   1.688  0.00  0.00    -0.275 OA
ATOM     22  N   UNL     1       0.131   0.936   2.850  0.00  0.00    -0.285 N 
ATOM     23  H   UNL     1       0.901   0.347   2.856  0.00  0.00    +0.155 HD
BRANCH  22  24
ATOM     24  C   UNL     1      -0.520   1.249   4.048  0.00  0.00    +0.034 A 
ATOM     25  C   UNL     1       0.203   1.340   5.230  0.00  0.00    +0.025 A 
ATOM     26  C   UNL     1      -0.441   1.655   6.410  0.00  0.00    +0.034 A 
ATOM     27  C   UNL     1      -1.808   1.868   6.418  0.00  0.00    +0.126 A 
ATOM     28  C   UNL     1      -2.532   1.772   5.244  0.00  0.00    +0.034 A 
ATOM     29  C   UNL     1      -1.892   1.463   4.059  0.00  0.00    +0.025 A 
BRANCH  27  30
ATOM     30  N   UNL     1      -2.496   2.199   7.686  0.00  0.00    +0.056 N 
ATOM     31  O   UNL     1      -3.700   2.386   7.694  0.00  0.00    -0.126 OA
ATOM     32  O   UNL     1      -1.859   2.283   8.720  0.00  0.00    -0.126 OA
ENDBRANCH  27  30
ENDBRANCH  22  24
ENDBRANCH  19  20
ENDBRANCH  18  19
ENDBRANCH   7  18
TORSDOF 6
