REMARK  Name = ZINC13151173
REMARK  15 active torsions:
REMARK  status: ('A' for Active; 'I' for Inactive)
REMARK    1  A    between atoms: C_1  and  C_2
REMARK    2  A    between atoms: C_2  and  O_3
REMARK    3  A    between atoms: O_3  and  C_4
REMARK    4  A    between atoms: C_4  and  C_6
REMARK    5  A    between atoms: C_6  and  N_7
REMARK    6  A    between atoms: C_8  and  C_12
REMARK    7  A    between atoms: C_12  and  C_14
REMARK    8  A    between atoms: C_12  and  N_17
REMARK    9  A    between atoms: C_14  and  C_15
REMARK   10  A    between atoms: C_14  and  C_16
REMARK   11  A    between atoms: N_17  and  C_18
REMARK   12  A    between atoms: N_17  and  C_24
REMARK   13  A    between atoms: C_18  and  C_19
REMARK   14  A    between atoms: C_24  and  C_25
REMARK   15  A    between atoms: C_29  and  C_37
REMARK                            x       y       z     vdW  Elec       q    Type
REMARK                         _______ _______ _______ _____ _____    ______ ____
ROOT
ATOM      1  N   UNL     1      -3.572  -4.912  -3.029  0.00  0.00    +0.392 N 
ATOM      2  H   UNL     1      -3.269  -5.856  -2.838  0.00  0.00    -0.080 HD
ENDROOT
BRANCH   1   3
ATOM      3  C   UNL     1      -2.634  -3.963  -2.415  0.00  0.00    +0.006 C 
BRANCH   3   5
ATOM      4  N   UNL     1      -2.933  -1.451  -2.090  0.00  0.00    -0.220 N 
ATOM      5  C   UNL     1      -3.377  -2.719  -2.002  0.00  0.00    +0.139 A 
ATOM      6  N   UNL     1      -4.582  -2.661  -1.488  0.00  0.00    -0.115 NA
ATOM      7  N   UNL     1      -4.863  -1.422  -1.272  0.00  0.00    -0.023 NA
ATOM      8  N   UNL     1      -3.867  -0.689  -1.629  0.00  0.00    -0.043 NA
BRANCH   4   9
ATOM      9  C   UNL     1      -1.632  -1.019  -2.606  0.00  0.00    +0.267 C 
BRANCH   9  10
ATOM     10  C   UNL     1      -0.632  -0.980  -1.479  0.00  0.00    +0.329 C 
ATOM     11  O   UNL     1      -0.972  -1.283  -0.359  0.00  0.00    -0.249 OA
BRANCH  10  12
ATOM     12  O   UNL     1       0.635  -0.610  -1.718  0.00  0.00    -0.464 OA
BRANCH  12  14
ATOM     13  C   UNL     1       2.917  -0.151  -1.068  0.00  0.00    +0.048 C 
ATOM     14  C   UNL     1       1.529  -0.596  -0.604  0.00  0.00    +0.229 C 
ENDBRANCH  12  14
ENDBRANCH  10  12
ENDBRANCH   9  10
ENDBRANCH   4   9
ENDBRANCH   3   5
BRANCH   3  15
ATOM     15  C   UNL     1      -1.992  -4.606  -1.184  0.00  0.00    -0.024 C 
ATOM     16  C   UNL     1      -3.087  -5.110  -0.242  0.00  0.00    +0.006 C 
ATOM     17  C   UNL     1      -1.114  -5.780  -1.621  0.00  0.00    +0.006 C 
ENDBRANCH   3  15
ENDBRANCH   1   3
BRANCH   1  18
ATOM     18  C   UNL     1      -4.915  -4.706  -2.470  0.00  0.00    -0.034 C 
BRANCH  18  19
ATOM     19  C   UNL     1      -5.810  -5.848  -2.878  0.00  0.00    -0.027 A 
ATOM     20  C   UNL     1      -6.117  -6.977  -2.195  0.00  0.00    +0.009 A 
ATOM     21  C   UNL     1      -6.972  -7.898  -2.772  0.00  0.00    +0.008 A 
ATOM     22  C   UNL     1      -7.477  -7.643  -4.004  0.00  0.00    +0.045 A 
ATOM     23  S   UNL     1      -6.747  -6.059  -4.383  0.00  0.00    -0.103 S 
ENDBRANCH  18  19
ENDBRANCH   1  18
BRANCH   1  24
ATOM     24  C   UNL     1      -3.608  -4.694  -4.482  0.00  0.00    -0.036 C 
BRANCH  24  25
ATOM     25  C   UNL     1      -3.897  -3.243  -4.765  0.00  0.00    +0.001 A 
ATOM     26  C   UNL     1      -2.873  -2.376  -4.959  0.00  0.00    +0.017 A 
ATOM     27  C   UNL     1      -3.187  -0.972  -5.232  0.00  0.00    -0.001 A 
ATOM     28  C   UNL     1      -2.174  -0.031  -5.441  0.00  0.00    +0.013 A 
ATOM     29  C   UNL     1      -2.500   1.271  -5.694  0.00  0.00    -0.050 A 
ATOM     30  C   UNL     1      -3.829   1.669  -5.746  0.00  0.00    +0.005 A 
ATOM     31  C   UNL     1      -4.844   0.759  -5.543  0.00  0.00    +0.026 A 
ATOM     32  C   UNL     1      -4.536  -0.573  -5.284  0.00  0.00    +0.049 A 
ATOM     33  N   UNL     1      -5.531  -1.504  -5.078  0.00  0.00    -0.322 N 
ATOM     34  H   UNL     1      -6.460  -1.227  -5.114  0.00  0.00    +0.169 HD
ATOM     35  C   UNL     1      -5.233  -2.792  -4.833  0.00  0.00    +0.251 A 
ATOM     36  O   UNL     1      -6.138  -3.589  -4.661  0.00  0.00    -0.268 OA
ATOM     37  C   UNL     1      -1.408   2.285  -5.920  0.00  0.00    +0.044 C 
ENDBRANCH  24  25
ENDBRANCH   1  24
TORSDOF 11
