REMARK  Name = ZINC47865753
REMARK  7 active torsions:
REMARK  status: ('A' for Active; 'I' for Inactive)
REMARK    1  A    between atoms: C_1  and  C_2
REMARK    2  A    between atoms: C_2  and  C_4
REMARK    3  A    between atoms: C_2  and  N_10
REMARK    4  A    between atoms: N_13  and  C_14
REMARK    5  A    between atoms: C_16  and  N_24
REMARK    6  A    between atoms: C_19  and  O_20
REMARK    7  A    between atoms: O_20  and  C_21
REMARK                            x       y       z     vdW  Elec       q    Type
REMARK                         _______ _______ _______ _____ _____    ______ ____
ROOT
ATOM      1  N   UNL     1       0.713  -0.472   1.194  0.00  0.00    -0.294 N 
ATOM      2  C   UNL     1       2.055  -0.593   1.176  0.00  0.00    +0.304 C 
ATOM      3  O   UNL     1       2.679  -0.293   0.176  0.00  0.00    -0.252 OA
ATOM      4  N   UNL     1       2.706  -1.046   2.266  0.00  0.00    -0.266 N 
ATOM      5  H   UNL     1       0.215  -0.711   1.992  0.00  0.00    +0.151 HD
ATOM      6  H   UNL     1       2.216  -1.224   3.084  0.00  0.00    +0.156 HD
ENDROOT
BRANCH   4   7
ATOM      7  C   UNL     1       4.090  -1.261   2.216  0.00  0.00    +0.079 A 
ATOM      8  C   UNL     1       4.896  -0.429   1.454  0.00  0.00    +0.059 A 
ATOM      9  C   UNL     1       6.261  -0.642   1.407  0.00  0.00    +0.128 A 
ATOM     10  C   UNL     1       6.826  -1.684   2.119  0.00  0.00    +0.036 A 
ATOM     11  C   UNL     1       6.029  -2.517   2.882  0.00  0.00    +0.050 A 
ATOM     12  C   UNL     1       4.660  -2.307   2.938  0.00  0.00    +0.148 A 
BRANCH   9  13
ATOM     13  N   UNL     1       7.120   0.247   0.593  0.00  0.00    +0.056 N 
ATOM     14  O   UNL     1       6.627   1.158  -0.031  0.00  0.00    -0.126 OA
ATOM     15  O   UNL     1       8.313   0.062   0.551  0.00  0.00    -0.126 OA
ENDBRANCH   9  13
BRANCH  12  16
ATOM     16  O   UNL     1       3.876  -3.122   3.692  0.00  0.00    -0.432 OA
BRANCH  16  17
ATOM     17  C   UNL     1       4.530  -4.174   4.405  0.00  0.00    +0.541 C 
ATOM     18  F   UNL     1       5.184  -5.015   3.499  0.00  0.00    -0.166 F 
ATOM     19  F   UNL     1       5.463  -3.626   5.291  0.00  0.00    -0.166 F 
ENDBRANCH  16  17
ENDBRANCH  12  16
ENDBRANCH   4   7
BRANCH   1  21
ATOM     20  C   UNL     1      -0.003   1.551   0.020  0.00  0.00    +0.030 C 
ATOM     21  C   UNL     1       0.005   0.021   0.010  0.00  0.00    +0.100 C 
BRANCH  21  22
ATOM     22  C   UNL     1      -1.434  -0.497   0.023  0.00  0.00    +0.138 C 
ATOM     23  C   UNL     1      -2.151  -0.084  -1.280  0.00  0.00    +0.035 C 
ATOM     24  C   UNL     1      -3.574   0.279  -0.772  0.00  0.00    +0.031 C 
ATOM     25  C   UNL     1      -3.246   0.875   0.620  0.00  0.00    +0.160 C 
ATOM     26  O   UNL     1      -2.151   0.086   1.117  0.00  0.00    -0.375 OA
ENDBRANCH  21  22
ENDBRANCH   1  21
TORSDOF 6
