REMARK  Name = ZINC39543263
REMARK  6 active torsions:
REMARK  status: ('A' for Active; 'I' for Inactive)
REMARK    1  A    between atoms: C_1  and  C_2
REMARK    2  A    between atoms: C_7  and  C_9
REMARK    3  A    between atoms: C_7  and  C_10
REMARK    4  A    between atoms: N_13  and  C_17
REMARK    5  A    between atoms: C_17  and  C_18
REMARK    6  A    between atoms: C_24  and  C_26
REMARK                            x       y       z     vdW  Elec       q    Type
REMARK                         _______ _______ _______ _____ _____    ______ ____
ROOT
ATOM      1  C   UNL     1      -1.571  -4.131  -3.313  0.00  0.00    +0.213 C 
ENDROOT
BRANCH   1  13
ATOM      2  C   UNL     1      -0.019   1.528   0.010  0.00  0.00    +0.007 C 
ATOM      3  C   UNL     1       0.002  -0.004   0.002  0.00  0.00    -0.011 C 
ATOM      4  C   UNL     1       0.726  -0.492  -1.255  0.00  0.00    +0.038 C 
ATOM      5  C   UNL     1       0.711  -2.014  -1.298  0.00  0.00    +0.113 C 
ATOM      6  C   UNL     1       1.264  -2.646  -0.036  0.00  0.00    +0.041 C 
ATOM      7  C   UNL     1       0.787  -2.030   1.268  0.00  0.00    -0.032 C 
ATOM      8  C   UNL     1       0.764  -0.507   1.226  0.00  0.00    +0.009 C 
ATOM      9  C   UNL     1      -0.596  -2.567   1.647  0.00  0.00    +0.011 C 
ATOM     10  C   UNL     1       1.769  -2.455   2.382  0.00  0.00    +0.011 C 
ATOM     11  C   UNL     1      -0.665  -2.529  -1.638  0.00  0.00    +0.247 C 
ATOM     12  O   UNL     1      -1.716  -2.282  -1.086  0.00  0.00    -0.273 OA
ATOM     13  N   UNL     1      -0.504  -3.320  -2.721  0.00  0.00    -0.215 N 
ATOM     14  C   UNL     1       0.750  -3.268  -3.183  0.00  0.00    +0.310 C 
ATOM     15  O   UNL     1       1.137  -3.883  -4.158  0.00  0.00    -0.252 OA
ATOM     16  N   UNL     1       1.532  -2.462  -2.446  0.00  0.00    -0.285 N 
ATOM     17  H   UNL     1       2.452  -2.214  -2.618  0.00  0.00    +0.151 HD
ENDBRANCH   1  13
BRANCH   1  18
ATOM     18  C   UNL     1      -2.293  -3.324  -4.361  0.00  0.00    +0.234 C 
ATOM     19  O   UNL     1      -1.950  -2.184  -4.591  0.00  0.00    -0.274 OA
ATOM     20  N   UNL     1      -3.319  -3.870  -5.043  0.00  0.00    -0.293 N 
ATOM     21  C   UNL     1      -3.842  -5.236  -4.861  0.00  0.00    +0.108 C 
ATOM     22  C   UNL     1      -5.307  -5.170  -5.360  0.00  0.00    +0.021 C 
ATOM     23  C   UNL     1      -5.183  -4.198  -6.562  0.00  0.00    +0.029 C 
ATOM     24  C   UNL     1      -4.107  -3.199  -6.087  0.00  0.00    +0.106 C 
BRANCH  24  25
ATOM     25  C   UNL     1      -3.215  -2.824  -7.242  0.00  0.00    -0.023 A 
ATOM     26  C   UNL     1      -2.231  -3.698  -7.666  0.00  0.00    +0.009 A 
ATOM     27  C   UNL     1      -1.409  -3.357  -8.724  0.00  0.00    +0.050 A 
ATOM     28  C   UNL     1      -1.570  -2.136  -9.363  0.00  0.00    +0.162 A 
ATOM     29  C   UNL     1      -2.560  -1.258  -8.938  0.00  0.00    +0.162 A 
ATOM     30  C   UNL     1      -3.384  -1.609  -7.878  0.00  0.00    +0.055 A 
ATOM     31  O   UNL     1      -2.739  -0.059  -9.556  0.00  0.00    -0.485 OA
ATOM     32  C   UNL     1      -1.661   0.412 -10.372  0.00  0.00    +0.270 C 
ATOM     33  C   UNL     1      -1.184  -0.749 -11.255  0.00  0.00    +0.270 C 
ATOM     34  O   UNL     1      -0.750  -1.813 -10.400  0.00  0.00    -0.485 OA
ENDBRANCH  24  25
ENDBRANCH   1  18
TORSDOF 3
