REMARK  Name = ZINC10371401
REMARK  5 active torsions:
REMARK  status: ('A' for Active; 'I' for Inactive)
REMARK    1  A    between atoms: C_1  and  C_2
REMARK    2  A    between atoms: C_4  and  C_27
REMARK    3  A    between atoms: N_12  and  C_26
REMARK    4  A    between atoms: N_15  and  C_18
REMARK    5  A    between atoms: C_18  and  C_19
REMARK                            x       y       z     vdW  Elec       q    Type
REMARK                         _______ _______ _______ _____ _____    ______ ____
ROOT
ATOM      1  C   UNL     1       2.998  -0.363   1.354  0.00  0.00    +0.037 C 
ATOM      2  C   UNL     1       3.169   0.292  -0.018  0.00  0.00    +0.133 C 
ATOM      3  C   UNL     1       4.634   0.447  -0.321  0.00  0.00    +0.056 C 
ATOM      4  N   UNL     1       5.248   1.558  -0.319  0.00  0.00    -0.187 NA
ATOM      5  N   UNL     1       4.614   2.779  -0.037  0.00  0.00    -0.206 N 
ATOM      6  C   UNL     1       3.232   2.780  -0.016  0.00  0.00    +0.219 A 
ATOM      7  N   UNL     1       2.528   1.606  -0.012  0.00  0.00    -0.297 N 
ATOM      8  C   UNL     1       1.191   1.940   0.001  0.00  0.00    +0.153 A 
ATOM      9  C   UNL     1       1.141   3.333   0.009  0.00  0.00    +0.170 A 
ATOM     10  N   UNL     1       2.398   3.787  -0.001  0.00  0.00    -0.195 NA
ATOM     11  N   UNL     1      -0.096   3.957   0.024  0.00  0.00    -0.279 N 
ATOM     12  C   UNL     1      -1.224   3.222   0.030  0.00  0.00    +0.334 A 
ATOM     13  O   UNL     1      -2.301   3.787   0.042  0.00  0.00    -0.246 OA
ATOM     14  N   UNL     1      -1.188   1.879   0.018  0.00  0.00    -0.255 N 
ATOM     15  C   UNL     1      -0.015   1.214   0.009  0.00  0.00    +0.283 A 
ATOM     16  O   UNL     1       0.002  -0.004   0.002  0.00  0.00    -0.265 OA
ATOM     17  C   UNL     1      -0.177   5.420   0.033  0.00  0.00    +0.155 C 
ATOM     18  C   UNL     1       5.422  -0.796  -0.647  0.00  0.00    +0.064 C 
ATOM     19  H   UNL     1       5.123   3.586   0.134  0.00  0.00    +0.177 HD
ENDROOT
BRANCH  14  20
ATOM     20  C   UNL     1      -2.444   1.124   0.019  0.00  0.00    +0.165 C 
BRANCH  20  21
ATOM     21  C   UNL     1      -2.868   0.857   1.441  0.00  0.00    -0.027 A 
ATOM     22  C   UNL     1      -2.450  -0.294   2.082  0.00  0.00    +0.006 A 
ATOM     23  C   UNL     1      -2.834  -0.537   3.387  0.00  0.00    +0.015 A 
ATOM     24  C   UNL     1      -3.646   0.367   4.048  0.00  0.00    +0.018 A 
ATOM     25  C   UNL     1      -4.068   1.516   3.404  0.00  0.00    +0.015 A 
ATOM     26  C   UNL     1      -3.679   1.760   2.101  0.00  0.00    +0.006 A 
ATOM     27 BR   UNL     1      -4.179   0.031   5.831  0.00  0.00    -0.050 Br
ENDBRANCH  20  21
ENDBRANCH  14  20
TORSDOF 2
