REMARK  Name = ZINC03536277
REMARK  7 active torsions:
REMARK  status: ('A' for Active; 'I' for Inactive)
REMARK    1  A    between atoms: N_9  and  C_12
REMARK    2  A    between atoms: C_12  and  S_13
REMARK    3  A    between atoms: S_13  and  C_14
REMARK    4  A    between atoms: C_17  and  C_20
REMARK    5  A    between atoms: N_18  and  N_19
REMARK    6  A    between atoms: C_23  and  O_26
REMARK    7  A    between atoms: O_26  and  C_27
REMARK                            x       y       z     vdW  Elec       q    Type
REMARK                         _______ _______ _______ _____ _____    ______ ____
ROOT
ATOM      1  C   UNL     1      -0.667   3.560   0.026  0.00  0.00    +0.210 A 
ATOM      2  N   UNL     1       0.645   3.496   0.014  0.00  0.00    -0.120 NA
ATOM      3  N   UNL     1       1.027   2.268   0.004  0.00  0.00    -0.127 NA
ATOM      4  C   UNL     1      -0.018   1.474   0.010  0.00  0.00    +0.182 A 
ATOM      5  N   UNL     1      -1.135   2.277   0.019  0.00  0.00    -0.224 N 
ENDROOT
BRANCH   4   6
ATOM      6  C   UNL     1       0.002  -0.004   0.002  0.00  0.00    +0.021 A 
ATOM      7  C   UNL     1      -1.159  -0.718  -0.298  0.00  0.00    +0.015 A 
ATOM      8  C   UNL     1      -1.135  -2.096  -0.311  0.00  0.00    +0.046 A 
ATOM      9  C   UNL     1       0.040  -2.775  -0.014  0.00  0.00    +0.127 A 
ATOM     10  C   UNL     1       1.196  -2.068   0.291  0.00  0.00    +0.046 A 
ATOM     11  C   UNL     1       1.181  -0.690   0.300  0.00  0.00    +0.015 A 
BRANCH   9  12
ATOM     12  O   UNL     1       0.058  -4.133  -0.021  0.00  0.00    -0.434 OA
BRANCH  12  13
ATOM     13  C   UNL     1      -1.165  -4.797  -0.344  0.00  0.00    +0.541 C 
ATOM     14  F   UNL     1      -2.149  -4.439   0.585  0.00  0.00    -0.166 F 
ATOM     15  F   UNL     1      -1.577  -4.419  -1.627  0.00  0.00    -0.166 F 
ENDBRANCH  12  13
ENDBRANCH   9  12
ENDBRANCH   4   6
BRANCH   5  16
ATOM     16  N   UNL     1      -2.441   1.874   0.023  0.00  0.00    -0.295 N 
ATOM     17  H   UNL     1      -2.686   0.802   0.016  0.00  0.00    +0.163 HD
ATOM     18  H   UNL     1      -3.247   2.623   0.032  0.00  0.00    +0.163 HD
ENDBRANCH   5  16
BRANCH   1  19
ATOM     19  S   UNL     1      -1.641   5.028   0.043  0.00  0.00    -0.061 S 
BRANCH  19  20
ATOM     20  C   UNL     1      -0.330   6.276   0.037  0.00  0.00    +0.226 C 
BRANCH  20  29
ATOM     21  C   UNL     1       0.550   8.111  -5.771  0.00  0.00    +0.001 A 
ATOM     22  C   UNL     1       1.628   7.270  -6.013  0.00  0.00    +0.002 A 
ATOM     23  C   UNL     1       2.093   6.420  -5.035  0.00  0.00    +0.030 A 
ATOM     24  C   UNL     1       1.474   6.402  -3.782  0.00  0.00    +0.100 A 
ATOM     25  C   UNL     1       0.379   7.259  -3.540  0.00  0.00    +0.068 A 
ATOM     26  C   UNL     1      -0.076   8.112  -4.544  0.00  0.00    +0.015 A 
ATOM     27  C   UNL     1      -0.255   7.221  -2.213  0.00  0.00    +0.279 A 
ATOM     28  O   UNL     1      -1.203   7.936  -1.944  0.00  0.00    -0.265 OA
ATOM     29  N   UNL     1       0.258   6.360  -1.303  0.00  0.00    -0.200 N 
ATOM     30  N   UNL     1       1.350   5.555  -1.637  0.00  0.00    -0.061 NA
ATOM     31  N   UNL     1       1.906   5.578  -2.794  0.00  0.00    -0.131 NA
ENDBRANCH  20  29
ENDBRANCH  19  20
ENDBRANCH   1  19
TORSDOF 7
