REMARK  Name = ZINC45276656
REMARK  9 active torsions:
REMARK  status: ('A' for Active; 'I' for Inactive)
REMARK    1  A    between atoms: C_1  and  C_2
REMARK    2  A    between atoms: C_5  and  S_7
REMARK    3  A    between atoms: S_7  and  C_8
REMARK    4  A    between atoms: C_11  and  C_17
REMARK    5  A    between atoms: C_13  and  N_14
REMARK    6  A    between atoms: C_17  and  O_19
REMARK    7  A    between atoms: O_19  and  C_20
REMARK    8  A    between atoms: C_20  and  C_22
REMARK    9  A    between atoms: C_20  and  C_23
REMARK                            x       y       z     vdW  Elec       q    Type
REMARK                         _______ _______ _______ _____ _____    ______ ____
ROOT
ATOM      1  C   UNL     1       0.258  -8.743   0.378  0.00  0.00    +0.340 C 
ATOM      2  O   UNL     1       0.212  -9.682   1.149  0.00  0.00    -0.245 OA
ENDROOT
BRANCH   1   6
ATOM      3  C   UNL     1       0.116  -4.778   1.859  0.00  0.00    +0.045 A 
ATOM      4  C   UNL     1       0.215  -5.005   0.488  0.00  0.00    +0.018 A 
ATOM      5  C   UNL     1       0.261  -6.282   0.007  0.00  0.00    +0.016 A 
ATOM      6  C   UNL     1       0.209  -7.364   0.893  0.00  0.00    +0.061 A 
ATOM      7  C   UNL     1       0.110  -7.132   2.269  0.00  0.00    +0.048 A 
ATOM      8  C   UNL     1       0.070  -5.852   2.744  0.00  0.00    +0.141 A 
BRANCH   8   9
ATOM      9  N   UNL     1      -0.029  -5.606   4.201  0.00  0.00    +0.058 N 
ATOM     10  O   UNL     1      -0.069  -6.538   4.970  0.00  0.00    -0.126 OA
ATOM     11  O   UNL     1      -0.069  -4.473   4.621  0.00  0.00    -0.126 OA
ENDBRANCH   8   9
BRANCH   3  12
ATOM     12  S   UNL     1       0.057  -3.128   2.475  0.00  0.00    -0.061 S 
BRANCH  12  17
ATOM     13  C   UNL     1      -4.158  -0.630   4.351  0.00  0.00    +0.066 C 
ATOM     14  C   UNL     1      -3.506  -1.811   3.678  0.00  0.00    +0.047 A 
ATOM     15  C   UNL     1      -4.228  -2.885   3.277  0.00  0.00    +0.070 A 
ATOM     16  S   UNL     1      -2.943  -3.909   2.579  0.00  0.00    -0.069 S 
ATOM     17  C   UNL     1      -1.643  -2.880   2.866  0.00  0.00    +0.139 A 
ATOM     18  N   UNL     1      -2.206  -1.842   3.449  0.00  0.00    -0.238 NA
ENDBRANCH  12  17
ENDBRANCH   3  12
ENDBRANCH   1   6
BRANCH   1  19
ATOM     19  O   UNL     1       0.352  -8.965  -0.948  0.00  0.00    -0.449 OA
BRANCH  19  20
ATOM     20  C   UNL     1       0.395 -10.327  -1.377  0.00  0.00    +0.259 C 
ATOM     21  C   UNL     1      -1.029 -10.827  -1.630  0.00  0.00    +0.062 C 
BRANCH  20  22
ATOM     22  C   UNL     1       1.197 -10.428  -2.648  0.00  0.00    +0.256 C 
ATOM     23  O   UNL     1       1.684  -9.432  -3.139  0.00  0.00    -0.272 OA
ATOM     24  N   UNL     1       1.373 -11.627  -3.240  0.00  0.00    -0.294 N 
ATOM     25  C   UNL     1       2.156 -11.760  -4.480  0.00  0.00    +0.113 C 
ATOM     26  C   UNL     1       3.384 -12.616  -4.170  0.00  0.00    +0.054 C 
ATOM     27  C   UNL     1       2.995 -13.852  -3.403  0.00  0.00    -0.041 A 
ATOM     28  C   UNL     1       3.883 -14.921  -3.412  0.00  0.00    +0.004 A 
ATOM     29  C   UNL     1       3.594 -16.080  -2.722  0.00  0.00    +0.000 A 
ATOM     30  C   UNL     1       2.411 -16.180  -2.013  0.00  0.00    +0.000 A 
ATOM     31  C   UNL     1       1.526 -15.122  -2.005  0.00  0.00    +0.005 A 
ATOM     32  C   UNL     1       1.814 -13.958  -2.704  0.00  0.00    -0.027 A 
ATOM     33  C   UNL     1       0.797 -12.850  -2.672  0.00  0.00    +0.143 C 
ENDBRANCH  20  22
ENDBRANCH  19  20
ENDBRANCH   1  19
TORSDOF 7
