REMARK  Name = ZINC14530564
REMARK  18 active torsions:
REMARK  status: ('A' for Active; 'I' for Inactive)
REMARK    1  A    between atoms: C_1  and  C_2
REMARK    2  A    between atoms: C_2  and  C_4
REMARK    3  A    between atoms: C_2  and  C_10
REMARK    4  A    between atoms: C_4  and  C_5
REMARK    5  A    between atoms: C_5  and  C_6
REMARK    6  A    between atoms: C_7  and  C_8
REMARK    7  A    between atoms: C_7  and  C_9
REMARK    8  A    between atoms: C_10  and  N_11
REMARK    9  A    between atoms: N_19  and  C_28
REMARK   10  A    between atoms: N_22  and  C_23
REMARK   11  A    between atoms: C_23  and  C_24
REMARK   12  A    between atoms: C_24  and  C_25
REMARK   13  A    between atoms: C_25  and  C_26
REMARK   14  A    between atoms: C_25  and  C_27
REMARK   15  A    between atoms: C_28  and  C_29
REMARK   16  A    between atoms: C_29  and  N_30
REMARK   17  A    between atoms: N_30  and  C_31
REMARK   18  A    between atoms: N_30  and  C_32
REMARK                            x       y       z     vdW  Elec       q    Type
REMARK                         _______ _______ _______ _____ _____    ______ ____
ROOT
ATOM      1  N   UNL     1      -0.694  -0.180   2.718  0.00  0.00    +0.380 N 
ATOM      2  C   UNL     1      -0.949   1.265   2.710  0.00  0.00    -0.076 C 
ATOM      3  C   UNL     1      -1.895   1.625   3.859  0.00  0.00    +0.017 C 
ATOM      4  C   UNL     1      -1.262   1.208   5.182  0.00  0.00    +0.112 C 
ATOM      5  C   UNL     1      -0.907  -0.275   5.158  0.00  0.00    +0.017 C 
ATOM      6  C   UNL     1      -0.001  -0.558   3.956  0.00  0.00    -0.076 C 
ATOM      7  C   UNL     1      -2.193   1.510   6.333  0.00  0.00    +0.247 C 
ATOM      8  O   UNL     1      -3.303   1.058   6.518  0.00  0.00    -0.273 OA
ATOM      9  N   UNL     1      -1.528   2.389   7.112  0.00  0.00    -0.226 N 
ATOM     10  C   UNL     1      -0.320   2.675   6.612  0.00  0.00    +0.312 C 
ATOM     11  O   UNL     1       0.464   3.442   7.137  0.00  0.00    -0.252 OA
ATOM     12  N   UNL     1      -0.071   2.019   5.463  0.00  0.00    -0.271 N 
ATOM     13  H   UNL     1      -1.572  -0.675   2.662  0.00  0.00    -0.082 HD
ENDROOT
BRANCH   1  14
ATOM     14  C   UNL     1       0.142  -0.535   1.563  0.00  0.00    -0.076 C 
BRANCH  14  16
ATOM     15  C   UNL     1      -1.125  -2.653   1.172  0.00  0.00    +0.005 C 
ATOM     16  C   UNL     1       0.254  -2.058   1.464  0.00  0.00    -0.030 C 
BRANCH  16  17
ATOM     17  C   UNL     1       1.218  -2.425   0.334  0.00  0.00    +0.005 C 
BRANCH  17  18
ATOM     18  C   UNL     1       1.427  -3.941   0.314  0.00  0.00    +0.027 C 
BRANCH  18  19
ATOM     19  C   UNL     1       2.376  -4.303  -0.799  0.00  0.00    -0.028 C 
ATOM     20  C   UNL     1       3.499  -4.920  -0.528  0.00  0.00    -0.080 C 
ATOM     21  C   UNL     1       3.899  -5.161   0.905  0.00  0.00    +0.038 C 
ATOM     22  C   UNL     1       4.390  -5.390  -1.648  0.00  0.00    +0.038 C 
ENDBRANCH  18  19
ENDBRANCH  17  18
ENDBRANCH  16  17
ENDBRANCH  14  16
ENDBRANCH   1  14
BRANCH  12  23
ATOM     23  C   UNL     1       1.147   2.099   4.653  0.00  0.00    +0.110 C 
BRANCH  23  24
ATOM     24  C   UNL     1       2.318   1.498   5.433  0.00  0.00    +0.022 C 
BRANCH  24  25
ATOM     25  C   UNL     1       3.605   1.647   4.618  0.00  0.00    -0.016 C 
ATOM     26  C   UNL     1       3.941   3.131   4.463  0.00  0.00    +0.007 C 
ATOM     27  C   UNL     1       4.752   0.937   5.340  0.00  0.00    +0.007 C 
ENDBRANCH  24  25
ENDBRANCH  23  24
ENDBRANCH  12  23
BRANCH   9  28
ATOM     28  C   UNL     1      -2.063   2.958   8.352  0.00  0.00    +0.099 C 
BRANCH  28  29
ATOM     29  C   UNL     1      -1.681   2.063   9.531  0.00  0.00    -0.060 C 
BRANCH  29  30
ATOM     30  N   UNL     1      -2.217   2.634  10.774  0.00  0.00    +0.377 N 
ATOM     31  C   UNL     1      -1.954   1.715  11.889  0.00  0.00    -0.097 C 
ATOM     32  C   UNL     1      -1.567   3.925  11.040  0.00  0.00    -0.097 C 
ATOM     33  H   UNL     1      -3.212   2.771  10.679  0.00  0.00    -0.083 HD
ENDBRANCH  29  30
ENDBRANCH  28  29
ENDBRANCH   9  28
TORSDOF 11
