REMARK  Name = ZINC09085591
REMARK  6 active torsions:
REMARK  status: ('A' for Active; 'I' for Inactive)
REMARK    1  A    between atoms: C_1  and  C_2
REMARK    2  A    between atoms: C_2  and  C_4
REMARK    3  A    between atoms: C_2  and  S_10
REMARK    4  A    between atoms: S_10  and  C_11
REMARK    5  A    between atoms: N_21  and  C_22
REMARK    6  A    between atoms: C_22  and  C_23
REMARK                            x       y       z     vdW  Elec       q    Type
REMARK                         _______ _______ _______ _____ _____    ______ ____
ROOT
ATOM      1  C   UNL     1      -2.031   1.984   2.357  0.00  0.00    +0.173 A 
ATOM      2  N   UNL     1      -2.722   1.628   3.412  0.00  0.00    -0.223 NA
ATOM      3  C   UNL     1      -3.595   0.595   3.371  0.00  0.00    +0.080 A 
ATOM      4  C   UNL     1      -4.332   0.214   4.495  0.00  0.00    +0.048 A 
ATOM      5  C   UNL     1      -5.210  -0.845   4.406  0.00  0.00    +0.043 A 
ATOM      6  C   UNL     1      -5.370  -1.537   3.210  0.00  0.00    +0.021 A 
ATOM      7  C   UNL     1      -4.660  -1.182   2.097  0.00  0.00    +0.017 A 
ATOM      8  C   UNL     1      -3.765  -0.115   2.160  0.00  0.00    +0.065 A 
ATOM      9  C   UNL     1      -2.982   0.309   0.992  0.00  0.00    +0.263 A 
ATOM     10  O   UNL     1      -3.089  -0.259  -0.079  0.00  0.00    -0.267 OA
ATOM     11  N   UNL     1      -2.135   1.352   1.151  0.00  0.00    -0.283 N 
ATOM     12 CL   UNL     1      -6.126  -1.320   5.802  0.00  0.00    -0.083 Cl
ENDROOT
BRANCH   1  13
ATOM     13  S   UNL     1      -0.917   3.341   2.501  0.00  0.00    -0.075 S 
BRANCH  13  15
ATOM     14  C   UNL     1      -0.699   2.627   5.129  0.00  0.00    +0.029 C 
ATOM     15  C   UNL     1      -1.175   3.777   4.239  0.00  0.00    +0.137 C 
BRANCH  15  16
ATOM     16  C   UNL     1      -0.392   5.023   4.566  0.00  0.00    +0.233 C 
ATOM     17  O   UNL     1       0.535   5.359   3.861  0.00  0.00    -0.274 OA
ATOM     18  N   UNL     1      -0.724   5.763   5.642  0.00  0.00    -0.239 N 
ATOM     19  C   UNL     1      -0.024   6.878   5.935  0.00  0.00    +0.303 C 
ATOM     20  O   UNL     1       0.906   7.215   5.228  0.00  0.00    -0.253 OA
ATOM     21  N   UNL     1      -0.355   7.618   7.011  0.00  0.00    -0.313 N 
ATOM     22  H   UNL     1      -1.466   5.495   6.206  0.00  0.00    +0.159 HD
ATOM     23  H   UNL     1      -1.097   7.349   7.575  0.00  0.00    +0.146 HD
ATOM     24  H   UNL     1       0.148   8.420   7.221  0.00  0.00    +0.146 HD
ENDBRANCH  15  16
ENDBRANCH  13  15
ENDBRANCH   1  13
BRANCH  11  25
ATOM     25  C   UNL     1      -1.328   1.812   0.018  0.00  0.00    +0.154 C 
BRANCH  25  26
ATOM     26  C   UNL     1      -0.013   1.076   0.008  0.00  0.00    -0.013 C 
ATOM     27  C   UNL     1       1.113   1.746   0.001  0.00  0.00    +0.005 C 
ENDBRANCH  25  26
ENDBRANCH  11  25
TORSDOF 5
