REMARK  Name = ZINC08967853
REMARK  10 active torsions:
REMARK  status: ('A' for Active; 'I' for Inactive)
REMARK    1  A    between atoms: C_4  and  C_7
REMARK    2  A    between atoms: C_7  and  C_9
REMARK    3  A    between atoms: C_7  and  S_25
REMARK    4  A    between atoms: C_9  and  N_10
REMARK    5  A    between atoms: C_11  and  C_13
REMARK    6  A    between atoms: N_15  and  C_16
REMARK    7  A    between atoms: C_16  and  C_17
REMARK    8  A    between atoms: C_17  and  C_18
REMARK    9  A    between atoms: C_21  and  O_24
REMARK   10  A    between atoms: S_25  and  C_28
REMARK                            x       y       z     vdW  Elec       q    Type
REMARK                         _______ _______ _______ _____ _____    ______ ____
ROOT
ATOM      1  N   UNL     1       2.108   1.143  -1.208  0.00  0.00    -0.305 N 
ATOM      2  C   UNL     1       3.392   1.487  -1.432  0.00  0.00    +0.299 C 
ATOM      3  O   UNL     1       3.980   2.188  -0.635  0.00  0.00    -0.265 OA
ATOM      4  H   UNL     1       1.639   0.582  -1.845  0.00  0.00    +0.149 HD
ENDROOT
BRANCH   2   5
ATOM      5  C   UNL     1       4.092   1.005  -2.662  0.00  0.00    +0.299 C 
ATOM      6  O   UNL     1       3.504   0.304  -3.458  0.00  0.00    -0.265 OA
ATOM      7  N   UNL     1       5.375   1.349  -2.885  0.00  0.00    -0.307 N 
ATOM      8  H   UNL     1       5.845   1.910  -2.248  0.00  0.00    +0.149 HD
BRANCH   7   9
ATOM      9  C   UNL     1       6.061   0.877  -4.090  0.00  0.00    +0.109 C 
BRANCH   9  10
ATOM     10  C   UNL     1       7.496   1.407  -4.101  0.00  0.00    +0.054 C 
BRANCH  10  11
ATOM     11  C   UNL     1       8.202   0.921  -5.341  0.00  0.00    -0.046 A 
ATOM     12  C   UNL     1       8.894  -0.276  -5.317  0.00  0.00    +0.007 A 
ATOM     13  C   UNL     1       9.537  -0.726  -6.454  0.00  0.00    +0.045 A 
ATOM     14  C   UNL     1       9.497   0.029  -7.617  0.00  0.00    +0.117 A 
ATOM     15  C   UNL     1       8.806   1.231  -7.637  0.00  0.00    +0.045 A 
ATOM     16  C   UNL     1       8.160   1.675  -6.499  0.00  0.00    +0.007 A 
BRANCH  14  17
ATOM     17  O   UNL     1      10.132  -0.410  -8.736  0.00  0.00    -0.507 OA
ATOM     18  H   UNL     1      11.049  -0.112  -8.809  0.00  0.00    +0.292 HD
ENDBRANCH  14  17
ENDBRANCH  10  11
ENDBRANCH   9  10
ENDBRANCH   7   9
ENDBRANCH   2   5
BRANCH   1  19
ATOM     19  C   UNL     1       1.423   1.615  -0.003  0.00  0.00    +0.136 C 
BRANCH  19  20
ATOM     20  C   UNL     1      -0.013   1.086   0.008  0.00  0.00    +0.183 C 
BRANCH  20  24
ATOM     21  C   UNL     1      -2.012   2.463   3.523  0.00  0.00    +0.000 A 
ATOM     22  C   UNL     1      -1.870   1.107   3.295  0.00  0.00    +0.000 A 
ATOM     23  C   UNL     1      -1.222   0.662   2.158  0.00  0.00    +0.005 A 
ATOM     24  C   UNL     1      -0.718   1.572   1.248  0.00  0.00    -0.022 A 
ATOM     25  C   UNL     1      -0.856   2.928   1.478  0.00  0.00    +0.005 A 
ATOM     26  C   UNL     1      -1.507   3.374   2.613  0.00  0.00    +0.000 A 
ENDBRANCH  20  24
BRANCH  20  27
ATOM     27  S   UNL     1      -0.890   1.687  -1.462  0.00  0.00    +0.011 S 
ATOM     28  O   UNL     1      -0.143   1.390  -2.633  0.00  0.00    -0.168 OA
ATOM     29  O   UNL     1      -2.269   1.354  -1.378  0.00  0.00    -0.168 OA
BRANCH  27  30
ATOM     30  C   UNL     1      -0.842   3.443  -1.331  0.00  0.00    +0.126 A 
ATOM     31  C   UNL     1       0.087   4.309  -1.802  0.00  0.00    +0.035 A 
ATOM     32  C   UNL     1      -0.083   5.663  -1.580  0.00  0.00    +0.009 A 
ATOM     33  C   UNL     1      -1.175   6.084  -0.896  0.00  0.00    +0.047 A 
ATOM     34  S   UNL     1      -2.010   4.545  -0.549  0.00  0.00    -0.078 S 
ENDBRANCH  27  30
ENDBRANCH  20  27
ENDBRANCH  19  20
ENDBRANCH   1  19
TORSDOF 10
