REMARK  Name = ZINC01051635
REMARK  7 active torsions:
REMARK  status: ('A' for Active; 'I' for Inactive)
REMARK    1  A    between atoms: C_6  and  N_7
REMARK    2  A    between atoms: N_7  and  C_8
REMARK    3  A    between atoms: C_8  and  C_9
REMARK    4  A    between atoms: N_11  and  N_12
REMARK    5  A    between atoms: C_13  and  C_14
REMARK    6  A    between atoms: C_17  and  O_21
REMARK    7  A    between atoms: C_19  and  O_20
REMARK                            x       y       z     vdW  Elec       q    Type
REMARK                         _______ _______ _______ _____ _____    ______ ____
ROOT
ATOM      1  C   UNL     1       2.406   0.752  -0.017  0.00  0.00    +0.249 C 
ATOM      2  O   UNL     1       2.201  -0.444  -0.021  0.00  0.00    -0.272 OA
ATOM      3  N   UNL     1       3.671   1.218  -0.026  0.00  0.00    -0.206 N 
ATOM      4  H   UNL     1       3.835   2.174  -0.023  0.00  0.00    +0.177 HD
ENDROOT
BRANCH   3   5
ATOM      5  N   UNL     1       4.748   0.323  -0.042  0.00  0.00    -0.188 NA
ATOM      6  C   UNL     1       5.966   0.772  -0.051  0.00  0.00    +0.142 C 
BRANCH   6   7
ATOM      7  C   UNL     1       7.098  -0.170  -0.067  0.00  0.00    +0.036 A 
ATOM      8  C   UNL     1       8.410   0.311  -0.077  0.00  0.00    +0.016 A 
ATOM      9  C   UNL     1       9.466  -0.574  -0.091  0.00  0.00    +0.046 A 
ATOM     10  C   UNL     1       9.232  -1.944  -0.096  0.00  0.00    +0.120 A 
ATOM     11  C   UNL     1       7.933  -2.431  -0.086  0.00  0.00    +0.091 A 
ATOM     12  C   UNL     1       6.864  -1.552  -0.066  0.00  0.00    +0.129 A 
BRANCH  12  13
ATOM     13  O   UNL     1       5.592  -2.028  -0.051  0.00  0.00    -0.506 OA
ATOM     14  H   UNL     1       5.212  -2.164  -0.930  0.00  0.00    +0.292 HD
ENDBRANCH  12  13
BRANCH  10  15
ATOM     15  O   UNL     1      10.279  -2.809  -0.109  0.00  0.00    -0.507 OA
ATOM     16  H   UNL     1      10.590  -3.064   0.770  0.00  0.00    +0.292 HD
ENDBRANCH  10  15
ENDBRANCH   6   7
ENDBRANCH   3   5
BRANCH   1  17
ATOM     17  C   UNL     1       1.248   1.716  -0.001  0.00  0.00    +0.199 C 
BRANCH  17  18
ATOM     18  N   UNL     1      -0.011   0.966   0.007  0.00  0.00    -0.335 N 
ATOM     19  H   UNL     1       0.002  -0.004   0.002  0.00  0.00    +0.147 HD
BRANCH  18  25
ATOM     20  C   UNL     1      -1.251   3.037   0.030  0.00  0.00    +0.024 A 
ATOM     21  C   UNL     1      -2.458   3.708   0.033  0.00  0.00    +0.016 A 
ATOM     22  C   UNL     1      -3.645   2.999   0.035  0.00  0.00    +0.013 A 
ATOM     23  C   UNL     1      -3.628   1.615   0.028  0.00  0.00    +0.016 A 
ATOM     24  C   UNL     1      -2.425   0.938   0.019  0.00  0.00    +0.024 A 
ATOM     25  C   UNL     1      -1.230   1.648   0.017  0.00  0.00    +0.028 A 
ATOM     26  I   UNL     1      -5.474   4.021   0.049  0.00  0.00    -0.044 I 
ENDBRANCH  18  25
ENDBRANCH  17  18
ENDBRANCH   1  17
TORSDOF 7
