REMARK  Name = ZINC50587398
REMARK  7 active torsions:
REMARK  status: ('A' for Active; 'I' for Inactive)
REMARK    1  A    between atoms: C_1  and  C_2
REMARK    2  A    between atoms: C_2  and  N_3
REMARK    3  A    between atoms: N_3  and  C_4
REMARK    4  A    between atoms: C_4  and  C_5
REMARK    5  A    between atoms: C_6  and  N_13
REMARK    6  A    between atoms: C_14  and  C_20
REMARK    7  A    between atoms: C_16  and  C_18
REMARK                            x       y       z     vdW  Elec       q    Type
REMARK                         _______ _______ _______ _____ _____    ______ ____
ROOT
ATOM      1  C   UNL     1       1.461  -2.459   2.405  0.00  0.00    +0.053 A 
ATOM      2  C   UNL     1       2.785  -2.702   2.499  0.00  0.00    +0.175 A 
ATOM      3  N   UNL     1       3.047  -3.134   3.745  0.00  0.00    -0.202 NA
ATOM      4  C   UNL     1       1.936  -3.166   4.423  0.00  0.00    +0.180 A 
ATOM      5  N   UNL     1       0.891  -2.747   3.644  0.00  0.00    -0.297 N 
ATOM      6  C   UNL     1      -0.355  -2.722   4.232  0.00  0.00    +0.100 A 
ATOM      7  C   UNL     1      -0.518  -3.088   5.503  0.00  0.00    +0.067 A 
ATOM      8  S   UNL     1       1.148  -3.525   5.976  0.00  0.00    -0.058 S 
ENDROOT
BRANCH   2   9
ATOM      9  N   UNL     1       3.728  -2.533   1.471  0.00  0.00    -0.216 N 
ATOM     10  C   UNL     1       5.054  -2.781   1.559  0.00  0.00    +0.062 A 
ATOM     11  C   UNL     1       5.607  -2.493   0.357  0.00  0.00    +0.085 A 
ATOM     12  C   UNL     1       4.586  -2.056  -0.494  0.00  0.00    +0.079 A 
ATOM     13  N   UNL     1       3.459  -2.085   0.171  0.00  0.00    -0.168 NA
ATOM     14  C   UNL     1       4.754  -1.631  -1.930  0.00  0.00    +0.069 C 
ATOM     15 CL   UNL     1       7.287  -2.641  -0.056  0.00  0.00    -0.080 Cl
ATOM     16  C   UNL     1       5.785  -3.285   2.776  0.00  0.00    +0.067 C 
ENDBRANCH   2   9
BRANCH   1  17
ATOM     17  C   UNL     1       0.733  -1.960   1.184  0.00  0.00    -0.024 C 
BRANCH  17  18
ATOM     18  N   UNL     1       0.713  -0.491   1.192  0.00  0.00    +0.383 N 
ATOM     19  H   UNL     1       1.659  -0.141   1.185  0.00  0.00    -0.085 HD
ATOM     20  H   UNL     1       0.240  -0.165   2.022  0.00  0.00    -0.085 HD
BRANCH  18  22
ATOM     21  C   UNL     1      -0.019   1.526   0.010  0.00  0.00    -0.017 C 
ATOM     22  C   UNL     1       0.002  -0.004   0.002  0.00  0.00    -0.086 C 
ENDBRANCH  18  22
ENDBRANCH  17  18
ENDBRANCH   1  17
TORSDOF 4
