REMARK  Name = ZINC64439297
REMARK  7 active torsions:
REMARK  status: ('A' for Active; 'I' for Inactive)
REMARK    1  A    between atoms: C_1  and  C_2
REMARK    2  A    between atoms: C_7  and  N_8
REMARK    3  A    between atoms: C_9  and  C_11
REMARK    4  A    between atoms: C_11  and  N_12
REMARK    5  A    between atoms: C_19  and  C_34
REMARK    6  A    between atoms: C_20  and  C_22
REMARK    7  A    between atoms: C_24  and  C_27
REMARK                            x       y       z     vdW  Elec       q    Type
REMARK                         _______ _______ _______ _____ _____    ______ ____
ROOT
ATOM      1  N   UNL     1      -0.241  -0.905   5.988  0.00  0.00    -0.290 N 
ATOM      2  C   UNL     1      -1.453  -1.359   6.395  0.00  0.00    +0.203 A 
ATOM      3  N   UNL     1      -1.577  -2.212   7.375  0.00  0.00    -0.230 NA
ATOM      4  C   UNL     1      -0.520  -2.681   8.026  0.00  0.00    +0.116 A 
ATOM      5  C   UNL     1       0.795  -2.285   7.697  0.00  0.00    +0.076 A 
ATOM      6  C   UNL     1       0.896  -1.321   6.578  0.00  0.00    +0.263 A 
ATOM      7  O   UNL     1       1.981  -0.912   6.202  0.00  0.00    -0.267 OA
ATOM      8  C   UNL     1       1.814  -2.857   8.466  0.00  0.00    -0.017 A 
ATOM      9  C   UNL     1       1.502  -3.736   9.459  0.00  0.00    +0.082 A 
ATOM     10  S   UNL     1      -0.279  -3.815   9.371  0.00  0.00    -0.063 S 
ATOM     11  C   UNL     1       3.254  -2.502   8.197  0.00  0.00    +0.046 C 
ENDROOT
BRANCH   9  12
ATOM     12  C   UNL     1       2.406  -4.444  10.374  0.00  0.00    +0.266 A 
ATOM     13  N   UNL     1       2.045  -5.290  11.316  0.00  0.00    -0.187 NA
ATOM     14  C   UNL     1       3.129  -5.747  11.959  0.00  0.00    +0.204 A 
ATOM     15  N   UNL     1       4.198  -5.197  11.435  0.00  0.00    -0.056 NA
ATOM     16  O   UNL     1       3.748  -4.345  10.392  0.00  0.00    -0.332 OA
BRANCH  14  17
ATOM     17  C   UNL     1       3.121  -6.717  13.083  0.00  0.00    +0.041 A 
ATOM     18  C   UNL     1       1.915  -7.237  13.549  0.00  0.00    +0.013 A 
ATOM     19  C   UNL     1       1.913  -8.139  14.594  0.00  0.00    +0.001 A 
ATOM     20  C   UNL     1       3.106  -8.527  15.179  0.00  0.00    +0.001 A 
ATOM     21  C   UNL     1       4.306  -8.015  14.721  0.00  0.00    +0.021 A 
ATOM     22  C   UNL     1       4.320  -7.116  13.671  0.00  0.00    +0.052 A 
ATOM     23 CL   UNL     1       5.828  -6.479  13.092  0.00  0.00    -0.083 Cl
ENDBRANCH  14  17
ENDBRANCH   9  12
BRANCH   1  24
ATOM     24  C   UNL     1      -0.168   0.052   4.882  0.00  0.00    +0.222 C 
BRANCH  24  26
ATOM     25  N   UNL     1       0.025  -0.015   2.417  0.00  0.00    -0.284 N 
ATOM     26  C   UNL     1      -0.056  -0.694   3.578  0.00  0.00    +0.237 C 
ATOM     27  O   UNL     1      -0.040  -1.907   3.573  0.00  0.00    -0.274 OA
ATOM     28  H   UNL     1       0.078   0.954   2.425  0.00  0.00    +0.155 HD
BRANCH  25  35
ATOM     29  C   UNL     1      -1.264   1.184   0.181  0.00  0.00    +0.045 C 
ATOM     30  C   UNL     1      -0.584  -0.158   0.084  0.00  0.00    -0.029 A 
ATOM     31  C   UNL     1      -0.568  -0.840  -1.117  0.00  0.00    +0.005 A 
ATOM     32  C   UNL     1       0.055  -2.071  -1.206  0.00  0.00    +0.000 A 
ATOM     33  C   UNL     1       0.666  -2.622  -0.095  0.00  0.00    +0.002 A 
ATOM     34  C   UNL     1       0.655  -1.945   1.108  0.00  0.00    +0.023 A 
ATOM     35  C   UNL     1       0.034  -0.706   1.201  0.00  0.00    +0.036 A 
ENDBRANCH  25  35
ENDBRANCH  24  26
ENDBRANCH   1  24
TORSDOF 5
