REMARK  Name = ZINC08965645
REMARK  9 active torsions:
REMARK  status: ('A' for Active; 'I' for Inactive)
REMARK    1  A    between atoms: C_1  and  C_2
REMARK    2  A    between atoms: C_2  and  C_28
REMARK    3  A    between atoms: N_5  and  N_9
REMARK    4  A    between atoms: C_10  and  C_12
REMARK    5  A    between atoms: C_12  and  S_13
REMARK    6  A    between atoms: S_13  and  C_14
REMARK    7  A    between atoms: C_17  and  C_22
REMARK    8  A    between atoms: N_18  and  C_19
REMARK    9  A    between atoms: C_22  and  C_23
REMARK                            x       y       z     vdW  Elec       q    Type
REMARK                         _______ _______ _______ _____ _____    ______ ____
ROOT
ATOM      1  N   UNL     1       2.185  -6.146  -7.737  0.00  0.00    -0.223 N 
ATOM      2  C   UNL     1       2.890  -5.481  -6.801  0.00  0.00    +0.240 C 
ATOM      3  O   UNL     1       4.096  -5.397  -6.895  0.00  0.00    -0.273 OA
ATOM      4  H   UNL     1       1.220  -6.213  -7.662  0.00  0.00    +0.174 HD
ENDROOT
BRANCH   1   9
ATOM      5  C   UNL     1       5.174  -8.865 -10.017  0.00  0.00    +0.047 C 
ATOM      6  C   UNL     1       3.797  -8.242 -10.255  0.00  0.00    +0.137 C 
ATOM      7  C   UNL     1       3.058  -8.066  -8.944  0.00  0.00    +0.267 C 
ATOM      8  O   UNL     1       2.726  -8.935  -8.167  0.00  0.00    -0.271 OA
ATOM      9  N   UNL     1       2.846  -6.740  -8.821  0.00  0.00    -0.137 N 
ATOM     10  C   UNL     1       3.339  -6.063  -9.863  0.00  0.00    +0.327 C 
ATOM     11  O   UNL     1       3.266  -4.855  -9.980  0.00  0.00    -0.251 OA
ATOM     12  N   UNL     1       3.928  -6.867 -10.767  0.00  0.00    -0.280 N 
ATOM     13  H   UNL     1       4.354  -6.595 -11.594  0.00  0.00    +0.152 HD
BRANCH   6  14
ATOM     14  C   UNL     1       2.992  -9.088 -11.208  0.00  0.00    -0.015 A 
ATOM     15  C   UNL     1       2.142 -10.062 -10.719  0.00  0.00    +0.006 A 
ATOM     16  C   UNL     1       1.400 -10.834 -11.593  0.00  0.00    +0.000 A 
ATOM     17  C   UNL     1       1.516 -10.639 -12.957  0.00  0.00    +0.000 A 
ATOM     18  C   UNL     1       2.370  -9.669 -13.446  0.00  0.00    +0.000 A 
ATOM     19  C   UNL     1       3.108  -8.893 -12.572  0.00  0.00    +0.006 A 
ENDBRANCH   6  14
ENDBRANCH   1   9
BRANCH   2  20
ATOM     20  C   UNL     1       2.179  -4.843  -5.635  0.00  0.00    +0.174 C 
BRANCH  20  21
ATOM     21  S   UNL     1       3.390  -4.032  -4.561  0.00  0.00    -0.077 S 
BRANCH  21  22
ATOM     22  C   UNL     1       2.316  -3.390  -3.320  0.00  0.00    +0.192 A 
ATOM     23  N   UNL     1       1.010  -3.516  -3.276  0.00  0.00    -0.122 NA
ATOM     24  N   UNL     1       0.549  -2.928  -2.230  0.00  0.00    -0.133 NA
ATOM     25  C   UNL     1       1.524  -2.388  -1.555  0.00  0.00    +0.139 A 
ATOM     26  N   UNL     1       2.685  -2.665  -2.223  0.00  0.00    -0.303 N 
BRANCH  26  27
ATOM     27  C   UNL     1       4.042  -2.268  -1.841  0.00  0.00    +0.091 C 
ATOM     28  C   UNL     1       5.129  -2.342  -2.916  0.00  0.00    +0.027 C 
ATOM     29  C   UNL     1       5.107  -3.364  -1.776  0.00  0.00    +0.027 C 
ENDBRANCH  26  27
BRANCH  25  30
ATOM     30  C   UNL     1       1.397  -1.607  -0.273  0.00  0.00    +0.118 C 
BRANCH  30  31
ATOM     31  C   UNL     1       1.213  -0.145  -0.591  0.00  0.00    -0.003 A 
ATOM     32  C   UNL     1       0.065   0.547  -0.792  0.00  0.00    +0.011 A 
ATOM     33  C   UNL     1       0.137   1.898  -1.075  0.00  0.00    +0.008 A 
ATOM     34  C   UNL     1       1.353   2.491  -1.143  0.00  0.00    +0.045 A 
ATOM     35  S   UNL     1       2.450   1.124  -0.801  0.00  0.00    -0.101 S 
ENDBRANCH  30  31
ENDBRANCH  25  30
ENDBRANCH  21  22
ENDBRANCH  20  21
ENDBRANCH   2  20
TORSDOF 8
