REMARK  Name = ZINC06142735
REMARK  9 active torsions:
REMARK  status: ('A' for Active; 'I' for Inactive)
REMARK    1  A    between atoms: C_1  and  C_2
REMARK    2  A    between atoms: C_2  and  C_3
REMARK    3  A    between atoms: C_3  and  C_4
REMARK    4  A    between atoms: C_3  and  C_5
REMARK    5  A    between atoms: C_3  and  C_6
REMARK    6  A    between atoms: C_17  and  N_22
REMARK    7  A    between atoms: N_22  and  S_23
REMARK    8  A    between atoms: S_23  and  C_26
REMARK    9  A    between atoms: C_30  and  N_32
REMARK                            x       y       z     vdW  Elec       q    Type
REMARK                         _______ _______ _______ _____ _____    ______ ____
ROOT
ATOM      1  C   UNL     1      -1.756   4.368  -8.232  0.00  0.00    -0.004 C 
ATOM      2  C   UNL     1      -3.210   4.690  -8.559  0.00  0.00    +0.008 C 
ATOM      3  C   UNL     1      -4.151   4.331  -7.396  0.00  0.00    +0.045 C 
ATOM      4  C   UNL     1      -3.658   5.080  -6.180  0.00  0.00    +0.181 C 
ATOM      5  C   UNL     1      -2.250   4.507  -5.837  0.00  0.00    +0.064 C 
ATOM      6  C   UNL     1      -1.312   5.025  -6.911  0.00  0.00    +0.016 C 
ATOM      7  C   UNL     1      -2.086   5.041  -4.447  0.00  0.00    +0.003 A 
ATOM      8  C   UNL     1      -1.004   5.335  -3.651  0.00  0.00    +0.032 A 
ATOM      9  C   UNL     1      -1.196   5.807  -2.359  0.00  0.00    +0.049 A 
ATOM     10  C   UNL     1      -2.486   5.993  -1.878  0.00  0.00    +0.028 A 
ATOM     11  C   UNL     1      -3.572   5.710  -2.680  0.00  0.00    +0.048 A 
ATOM     12  C   UNL     1      -3.389   5.236  -3.971  0.00  0.00    +0.125 A 
ATOM     13  O   UNL     1      -4.318   4.914  -4.937  0.00  0.00    -0.488 OA
ENDROOT
BRANCH   1  14
ATOM     14  C   UNL     1      -0.865   4.877  -9.367  0.00  0.00    -0.032 C 
ATOM     15  C   UNL     1      -1.038   6.390  -9.512  0.00  0.00    +0.011 C 
ATOM     16  C   UNL     1       0.598   4.559  -9.049  0.00  0.00    +0.011 C 
BRANCH  14  18
ATOM     17  C   UNL     1      -0.371   4.700 -11.810  0.00  0.00    +0.004 C 
ATOM     18  C   UNL     1      -1.263   4.191 -10.675  0.00  0.00    +0.003 C 
ENDBRANCH  14  18
ENDBRANCH   1  14
BRANCH   9  19
ATOM     19  N   UNL     1      -0.095   6.100  -1.547  0.00  0.00    -0.216 N 
ATOM     20  H   UNL     1       0.657   6.595  -1.909  0.00  0.00    +0.174 HD
BRANCH  19  21
ATOM     21  S   UNL     1      -0.074   5.602   0.032  0.00  0.00    +0.072 S 
ATOM     22  O   UNL     1      -1.320   5.988   0.596  0.00  0.00    -0.150 OA
ATOM     23  O   UNL     1       1.171   6.022   0.574  0.00  0.00    -0.150 OA
BRANCH  21  24
ATOM     24  C   UNL     1      -0.050   3.840   0.022  0.00  0.00    +0.111 A 
ATOM     25  C   UNL     1      -1.238   3.133   0.029  0.00  0.00    +0.029 A 
ATOM     26  C   UNL     1      -1.219   1.751   0.017  0.00  0.00    +0.004 A 
ATOM     27  C   UNL     1      -0.013   1.076   0.008  0.00  0.00    +0.033 A 
ATOM     28  C   UNL     1       1.175   1.783   0.000  0.00  0.00    +0.128 A 
ATOM     29  C   UNL     1       1.156   3.166   0.008  0.00  0.00    +0.061 A 
BRANCH  28  30
ATOM     30  N   UNL     1       2.467   1.060  -0.015  0.00  0.00    +0.056 N 
ATOM     31  O   UNL     1       2.483  -0.157  -0.022  0.00  0.00    -0.126 OA
ATOM     32  O   UNL     1       3.513   1.684  -0.022  0.00  0.00    -0.126 OA
ENDBRANCH  28  30
ENDBRANCH  21  24
ENDBRANCH  19  21
ENDBRANCH   9  19
TORSDOF 6
