REMARK  Name = ZINC09608493
REMARK  5 active torsions:
REMARK  status: ('A' for Active; 'I' for Inactive)
REMARK    1  A    between atoms: C_1  and  C_2
REMARK    2  A    between atoms: C_12  and  C_14
REMARK    3  A    between atoms: C_14  and  N_15
REMARK    4  A    between atoms: C_18  and  C_22
REMARK    5  A    between atoms: C_18  and  C_23
REMARK                            x       y       z     vdW  Elec       q    Type
REMARK                         _______ _______ _______ _____ _____    ______ ____
ROOT
ATOM      1  N   UNL     1      -1.473  -1.259  -1.210  0.00  0.00    -0.215 N 
ATOM      2  C   UNL     1      -1.408  -0.556  -0.058  0.00  0.00    +0.251 C 
ATOM      3  O   UNL     1      -2.292  -0.399   0.758  0.00  0.00    -0.272 OA
ATOM      4  C   UNL     1       0.002  -0.004   0.002  0.00  0.00    +0.135 C 
ATOM      5  N   UNL     1       0.627  -0.507  -1.234  0.00  0.00    -0.281 N 
ATOM      6  C   UNL     1      -0.311  -1.228  -1.873  0.00  0.00    +0.310 C 
ATOM      7  O   UNL     1      -0.125  -1.789  -2.936  0.00  0.00    -0.252 OA
ATOM      8  C   UNL     1      -0.019   1.526   0.010  0.00  0.00    +0.047 C 
ATOM      9  H   UNL     1       1.538  -0.350  -1.528  0.00  0.00    +0.152 HD
ENDROOT
BRANCH   4  10
ATOM     10  C   UNL     1       0.726  -0.530   1.214  0.00  0.00    -0.012 A 
ATOM     11  C   UNL     1       0.023  -0.801   2.373  0.00  0.00    +0.010 A 
ATOM     12  C   UNL     1       0.681  -1.285   3.490  0.00  0.00    +0.050 A 
ATOM     13  C   UNL     1       2.049  -1.497   3.443  0.00  0.00    +0.162 A 
ATOM     14  C   UNL     1       2.755  -1.223   2.280  0.00  0.00    +0.162 A 
ATOM     15  C   UNL     1       2.092  -0.744   1.163  0.00  0.00    +0.055 A 
ATOM     16  O   UNL     1       4.102  -1.435   2.244  0.00  0.00    -0.488 OA
ATOM     17  C   UNL     1       4.893  -0.564   3.055  0.00  0.00    +0.232 C 
ATOM     18  C   UNL     1       4.964  -1.075   4.485  0.00  0.00    +0.082 C 
ATOM     19  C   UNL     1       3.607  -1.063   5.172  0.00  0.00    +0.232 C 
ATOM     20  O   UNL     1       2.710  -1.975   4.537  0.00  0.00    -0.488 OA
ENDBRANCH   4  10
BRANCH   1  21
ATOM     21  C   UNL     1      -2.667  -1.969  -1.674  0.00  0.00    +0.214 C 
BRANCH  21  32
ATOM     22  C   UNL     1      -2.565  -6.424  -1.506  0.00  0.00    +0.029 C 
ATOM     23  C   UNL     1      -3.754  -5.613  -0.988  0.00  0.00    +0.083 C 
ATOM     24  C   UNL     1      -5.066  -6.145  -1.589  0.00  0.00    +0.059 C 
ATOM     25  C   UNL     1      -5.630  -4.976  -2.365  0.00  0.00    -0.024 A 
ATOM     26  C   UNL     1      -6.787  -4.859  -3.112  0.00  0.00    +0.005 A 
ATOM     27  C   UNL     1      -7.090  -3.664  -3.739  0.00  0.00    +0.000 A 
ATOM     28  C   UNL     1      -6.234  -2.586  -3.616  0.00  0.00    +0.002 A 
ATOM     29  C   UNL     1      -5.079  -2.699  -2.872  0.00  0.00    +0.024 A 
ATOM     30  C   UNL     1      -4.768  -3.900  -2.231  0.00  0.00    +0.040 A 
ATOM     31  N   UNL     1      -3.659  -4.223  -1.444  0.00  0.00    -0.267 N 
ATOM     32  C   UNL     1      -2.652  -3.379  -1.143  0.00  0.00    +0.238 C 
ATOM     33  O   UNL     1      -1.734  -3.754  -0.446  0.00  0.00    -0.273 OA
ENDBRANCH  21  32
ENDBRANCH   1  21
TORSDOF 3
