REMARK  Name = ZINC64074259
REMARK  14 active torsions:
REMARK  status: ('A' for Active; 'I' for Inactive)
REMARK    1  A    between atoms: C_1  and  C_2
REMARK    2  A    between atoms: C_6  and  C_12
REMARK    3  A    between atoms: C_10  and  C_11
REMARK    4  A    between atoms: C_12  and  N_13
REMARK    5  A    between atoms: N_13  and  C_14
REMARK    6  A    between atoms: C_15  and  C_17
REMARK    7  A    between atoms: C_17  and  C_18
REMARK    8  A    between atoms: C_18  and  C_29
REMARK    9  A    between atoms: N_22  and  C_25
REMARK   10  A    between atoms: C_25  and  C_26
REMARK   11  A    between atoms: C_26  and  O_27
REMARK   12  A    between atoms: O_27  and  C_28
REMARK   13  A    between atoms: C_33  and  O_35
REMARK   14  A    between atoms: O_35  and  C_36
REMARK                            x       y       z     vdW  Elec       q    Type
REMARK                         _______ _______ _______ _____ _____    ______ ____
ROOT
ATOM      1  C   UNL     1      -4.036  -4.216   0.320  0.00  0.00    +0.117 C 
ENDROOT
BRANCH   1   2
ATOM      2  C   UNL     1      -4.355  -4.737   1.723  0.00  0.00    +0.089 C 
ATOM      3  C   UNL     1      -5.767  -4.296   2.158  0.00  0.00    +0.117 C 
ATOM      4  C   UNL     1      -6.501  -5.603   2.358  0.00  0.00    +0.223 C 
ATOM      5  O   UNL     1      -7.657  -5.713   2.706  0.00  0.00    -0.275 OA
ATOM      6  N   UNL     1      -5.672  -6.620   2.090  0.00  0.00    -0.239 N 
ATOM      7  C   UNL     1      -4.440  -6.248   1.723  0.00  0.00    +0.233 C 
ATOM      8  O   UNL     1      -3.535  -7.002   1.435  0.00  0.00    -0.274 OA
BRANCH   2   9
ATOM      9  C   UNL     1      -3.319  -4.265   2.710  0.00  0.00    -0.028 A 
ATOM     10  C   UNL     1      -2.365  -3.342   2.322  0.00  0.00    +0.005 A 
ATOM     11  C   UNL     1      -1.414  -2.906   3.226  0.00  0.00    +0.004 A 
ATOM     12  C   UNL     1      -1.415  -3.392   4.520  0.00  0.00    +0.045 A 
ATOM     13  C   UNL     1      -2.371  -4.317   4.911  0.00  0.00    +0.120 A 
ATOM     14  C   UNL     1      -3.328  -4.748   4.004  0.00  0.00    +0.050 A 
BRANCH  13  15
ATOM     15  O   UNL     1      -2.374  -4.796   6.183  0.00  0.00    -0.495 OA
ATOM     16  C   UNL     1      -1.362  -4.304   7.064  0.00  0.00    +0.277 C 
ENDBRANCH  13  15
ENDBRANCH   2   9
BRANCH   6  17
ATOM     17  C   UNL     1      -6.080  -8.023   2.190  0.00  0.00    +0.144 C 
BRANCH  17  18
ATOM     18  C   UNL     1      -6.641  -8.489   0.844  0.00  0.00    +0.179 C 
BRANCH  18  19
ATOM     19  O   UNL     1      -5.602  -8.466  -0.137  0.00  0.00    -0.381 OA
ATOM     20  C   UNL     1      -6.022  -8.886  -1.437  0.00  0.00    +0.194 C 
ENDBRANCH  18  19
ENDBRANCH  17  18
ENDBRANCH   6  17
ENDBRANCH   1   2
BRANCH   1  23
ATOM     21  N   UNL     1      -2.439  -4.781  -1.483  0.00  0.00    -0.301 N 
ATOM     22  C   UNL     1      -3.252  -3.973  -2.396  0.00  0.00    +0.132 C 
ATOM     23  C   UNL     1      -2.765  -4.856  -0.177  0.00  0.00    +0.217 C 
ATOM     24  O   UNL     1      -2.037  -5.440   0.597  0.00  0.00    -0.276 OA
BRANCH  21  25
ATOM     25  C   UNL     1      -1.271  -5.506  -1.989  0.00  0.00    +0.154 C 
BRANCH  25  31
ATOM     26  C   UNL     1      -0.497   1.452  -2.187  0.00  0.00    +0.044 C 
ATOM     27  C   UNL     1      -0.326   0.016  -1.764  0.00  0.00    -0.045 A 
ATOM     28  C   UNL     1      -0.428  -0.950  -2.699  0.00  0.00    +0.031 A 
ATOM     29  C   UNL     1      -0.263  -2.357  -2.308  0.00  0.00    +0.060 A 
ATOM     30  N   UNL     1      -0.308  -3.473  -2.977  0.00  0.00    -0.362 N 
ATOM     31  C   UNL     1      -0.065  -4.566  -2.028  0.00  0.00    +0.192 C 
ATOM     32  N   UNL     1       0.129  -3.939  -0.715  0.00  0.00    -0.362 N 
ATOM     33  C   UNL     1       0.013  -2.652  -0.875  0.00  0.00    +0.060 A 
ATOM     34  C   UNL     1       0.104  -1.517   0.054  0.00  0.00    +0.031 A 
ATOM     35  C   UNL     1      -0.059  -0.263  -0.412  0.00  0.00    -0.045 A 
ATOM     36  C   UNL     1       0.043   0.887   0.557  0.00  0.00    +0.044 C 
ATOM     37  H   UNL     1      -0.473  -3.564  -3.929  0.00  0.00    +0.162 HD
ATOM     38  H   UNL     1       0.309  -4.399   0.120  0.00  0.00    +0.162 HD
ENDBRANCH  25  31
ENDBRANCH  21  25
ENDBRANCH   1  23
TORSDOF 9
