REMARK  Name = ZINC50265003
REMARK  9 active torsions:
REMARK  status: ('A' for Active; 'I' for Inactive)
REMARK    1  A    between atoms: C_1  and  C_2
REMARK    2  A    between atoms: C_3  and  S_9
REMARK    3  A    between atoms: C_4  and  C_8
REMARK    4  A    between atoms: N_5  and  C_7
REMARK    5  A    between atoms: S_9  and  N_12
REMARK    6  A    between atoms: N_12  and  C_13
REMARK    7  A    between atoms: C_16  and  C_18
REMARK    8  A    between atoms: C_19  and  C_20
REMARK    9  A    between atoms: C_20  and  N_21
REMARK                            x       y       z     vdW  Elec       q    Type
REMARK                         _______ _______ _______ _____ _____    ______ ____
ROOT
ATOM      1  N   UNL     1       1.569  -0.086  -3.280  0.00  0.00    -0.070 NA
ENDROOT
BRANCH   1   2
ATOM      2  C   UNL     1       1.863   0.343  -4.562  0.00  0.00    +0.202 A 
ATOM      3  N   UNL     1       1.026   0.661  -5.530  0.00  0.00    -0.229 NA
ATOM      4  C   UNL     1       1.460   1.057  -6.707  0.00  0.00    +0.137 A 
ATOM      5  C   UNL     1       2.821   1.121  -6.872  0.00  0.00    +0.083 A 
ATOM      6  S   UNL     1       3.374   0.593  -5.258  0.00  0.00    -0.041 S 
BRANCH   5   7
ATOM      7  C   UNL     1       3.586   1.509  -8.018  0.00  0.00    -0.059 C 
ATOM      8  C   UNL     1       4.213   1.827  -8.959  0.00  0.00    -0.116 C 
BRANCH   8   9
ATOM      9  C   UNL     1       4.999   2.225 -10.137  0.00  0.00    +0.005 C 
BRANCH   9  10
ATOM     10  N   UNL     1       6.431   2.131  -9.826  0.00  0.00    +0.385 N 
ATOM     11  H   UNL     1       6.649   2.744  -9.054  0.00  0.00    -0.089 HD
ATOM     12  H   UNL     1       6.659   1.181  -9.575  0.00  0.00    -0.089 HD
ATOM     13  H   UNL     1       6.970   2.405 -10.634  0.00  0.00    -0.089 HD
ENDBRANCH   9  10
ENDBRANCH   8   9
ENDBRANCH   5   7
ENDBRANCH   1   2
BRANCH   1  14
ATOM     14  S   UNL     1      -0.009  -0.263  -2.808  0.00  0.00    +0.097 S 
ATOM     15  O   UNL     1      -0.549  -1.324  -3.583  0.00  0.00    -0.148 OA
ATOM     16  O   UNL     1      -0.578   1.039  -2.797  0.00  0.00    -0.148 OA
BRANCH  14  19
ATOM     17  C   UNL     1      -0.018   1.503   0.010  0.00  0.00    +0.069 C 
ATOM     18  C   UNL     1       0.002  -0.004   0.002  0.00  0.00    +0.087 A 
ATOM     19  C   UNL     1       0.008  -0.818  -1.135  0.00  0.00    +0.153 A 
ATOM     20  C   UNL     1       0.028  -2.107  -0.725  0.00  0.00    +0.063 A 
ATOM     21  N   UNL     1       0.034  -2.109   0.625  0.00  0.00    -0.269 N 
ATOM     22  N   UNL     1       0.023  -0.777   1.058  0.00  0.00    -0.174 NA
ATOM     23  C   UNL     1       0.055  -3.295   1.485  0.00  0.00    +0.172 C 
ATOM     24  C   UNL     1       0.040  -3.323  -1.615  0.00  0.00    +0.067 C 
ENDBRANCH  14  19
ENDBRANCH   1  14
TORSDOF 6
