REMARK  Name = ZINC26690381
REMARK  2 active torsions:
REMARK  status: ('A' for Active; 'I' for Inactive)
REMARK    1  A    between atoms: C_1  and  C_2
REMARK    2  A    between atoms: C_2  and  N_3
REMARK                            x       y       z     vdW  Elec       q    Type
REMARK                         _______ _______ _______ _____ _____    ______ ____
ROOT
ATOM      1  N   UNL     1       0.719  -0.495   1.202  0.00  0.00    +0.381 N 
ATOM      2  C   UNL     1       2.086   0.011   1.141  0.00  0.00    -0.069 C 
ATOM      3  C   UNL     1       2.960  -0.564   2.252  0.00  0.00    +0.018 C 
ATOM      4  C   UNL     1       2.408  -0.197   3.631  0.00  0.00    +0.007 C 
ATOM      5  C   UNL     1       1.109  -0.883   3.998  0.00  0.00    +0.002 C 
ATOM      6  C   UNL     1       1.013  -2.363   3.655  0.00  0.00    +0.020 C 
ATOM      7  C   UNL     1       1.511  -2.641   2.238  0.00  0.00    +0.070 C 
ATOM      8  C   UNL     1       0.614  -1.942   1.221  0.00  0.00    -0.057 C 
ATOM      9  C   UNL     1       2.908  -2.079   2.161  0.00  0.00    +0.030 C 
ATOM     10  N   UNL     1       3.944  -2.773   2.038  0.00  0.00    -0.266 NA
ATOM     11  C   UNL     1       3.982  -4.229   1.980  0.00  0.00    +0.126 C 
ATOM     12  C   UNL     1       4.545  -4.760   3.307  0.00  0.00    +0.050 C 
ATOM     13  C   UNL     1       5.934  -4.163   3.538  0.00  0.00    +0.004 C 
ATOM     14  C   UNL     1       6.866  -4.587   2.401  0.00  0.00    +0.000 C 
ATOM     15  C   UNL     1       6.307  -4.087   1.067  0.00  0.00    +0.004 C 
ATOM     16  C   UNL     1       4.911  -4.670   0.843  0.00  0.00    +0.050 C 
ATOM     17  N   UNL     1       2.657  -4.801   1.772  0.00  0.00    -0.290 N 
ATOM     18  C   UNL     1       1.525  -4.107   1.924  0.00  0.00    +0.225 C 
ATOM     19  O   UNL     1       0.462  -4.680   1.806  0.00  0.00    -0.275 OA
ATOM     20  H   UNL     1       2.594  -5.734   1.507  0.00  0.00    +0.151 HD
ATOM     21  H   UNL     1       0.243  -0.097   1.996  0.00  0.00    -0.082 HD
ENDROOT
BRANCH   1  23
ATOM     22  C   UNL     1      -0.019   1.526   0.010  0.00  0.00    -0.017 C 
ATOM     23  C   UNL     1       0.002  -0.004   0.002  0.00  0.00    -0.082 C 
ENDBRANCH   1  23
TORSDOF 1
