REMARK  Name = ZINC01683246
REMARK  15 active torsions:
REMARK  status: ('A' for Active; 'I' for Inactive)
REMARK    1  A    between atoms: C_1  and  C_2
REMARK    2  A    between atoms: C_2  and  C_3
REMARK    3  A    between atoms: C_3  and  C_4
REMARK    4  A    between atoms: C_4  and  N_67
REMARK    5  A    between atoms: C_5  and  C_6
REMARK    6  A    between atoms: C_5  and  N_67
REMARK    7  A    between atoms: C_6  and  C_7
REMARK    8  A    between atoms: C_7  and  C_8
REMARK    9  A    between atoms: C_9  and  C_10
REMARK   10  A    between atoms: C_9  and  N_67
REMARK   11  A    between atoms: C_10  and  C_11
REMARK   12  A    between atoms: C_11  and  N_12
REMARK   13  A    between atoms: N_12  and  C_13
REMARK   14  A    between atoms: C_16  and  O_26
REMARK   15  A    between atoms: O_26  and  C_27
REMARK                            x       y       z     vdW  Elec       q    Type
REMARK                         _______ _______ _______ _____ _____    ______ ____
ROOT
ATOM      1  C   UNL     1      -1.967   5.324   3.619  0.00  0.00    +0.041 A 
ATOM      2  C   UNL     1      -1.842   4.866   2.288  0.00  0.00    +0.023 A 
ATOM      3  C   UNL     1      -2.310   3.604   1.898  0.00  0.00    +0.057 A 
ATOM      4  C   UNL     1      -2.167   3.204   0.599  0.00  0.00    +0.121 A 
ATOM      5  C   UNL     1      -1.556   4.037  -0.341  0.00  0.00    +0.047 A 
ATOM      6  C   UNL     1      -1.097   5.269   0.009  0.00  0.00    +0.030 A 
ATOM      7  C   UNL     1      -1.226   5.713   1.336  0.00  0.00    +0.049 A 
ATOM      8  C   UNL     1      -0.885   7.359   2.950  0.00  0.00    +0.021 A 
ATOM      9  C   UNL     1      -1.479   6.587   3.935  0.00  0.00    -0.007 A 
ATOM     10  C   UNL     1      -1.630   7.056   5.357  0.00  0.00    +0.039 C 
ATOM     11  C   UNL     1      -0.690   8.227   5.640  0.00  0.00    +0.005 C 
ATOM     12  C   UNL     1      -0.889   9.280   4.543  0.00  0.00    +0.006 C 
ATOM     13  C   UNL     1      -0.323   8.729   3.236  0.00  0.00    +0.053 C 
ATOM     14  N   UNL     1      -0.743   6.965   1.651  0.00  0.00    -0.358 N 
ATOM     15  H   UNL     1      -0.300   7.567   0.948  0.00  0.00    +0.166 HD
ENDROOT
BRANCH   1  16
ATOM     16  N   UNL     1      -2.563   4.530   4.589  0.00  0.00    -0.343 N 
ATOM     17  H   UNL     1      -3.361   4.040   4.214  0.00  0.00    +0.146 HD
BRANCH  16  18
ATOM     18  C   UNL     1      -1.594   3.592   5.170  0.00  0.00    +0.100 C 
BRANCH  18  19
ATOM     19  C   UNL     1      -2.311   2.657   6.146  0.00  0.00    +0.000 C 
BRANCH  19  20
ATOM     20  C   UNL     1      -1.301   1.680   6.752  0.00  0.00    -0.077 C 
BRANCH  20  21
ATOM     21  N   UNL     1      -2.005   0.799   7.707  0.00  0.00    +0.380 N 
ATOM     22  H   UNL     1      -2.539   1.379   8.365  0.00  0.00    -0.082 HD
BRANCH  21  23
ATOM     23  C   UNL     1      -2.939  -0.089   6.982  0.00  0.00    -0.079 C 
BRANCH  23  24
ATOM     24  C   UNL     1      -2.173  -1.014   6.034  0.00  0.00    -0.019 C 
BRANCH  24  26
ATOM     25  C   UNL     1      -2.401  -2.751   4.253  0.00  0.00    +0.004 C 
ATOM     26  C   UNL     1      -3.166  -1.826   5.201  0.00  0.00    -0.005 C 
ENDBRANCH  24  26
ENDBRANCH  23  24
ENDBRANCH  21  23
BRANCH  21  27
ATOM     27  C   UNL     1      -1.026  -0.009   8.464  0.00  0.00    -0.079 C 
BRANCH  27  28
ATOM     28  C   UNL     1      -1.733  -0.640   9.666  0.00  0.00    -0.019 C 
BRANCH  28  29
ATOM     29  C   UNL     1      -0.705  -1.356  10.544  0.00  0.00    -0.005 C 
ATOM     30  C   UNL     1      -1.413  -1.987  11.745  0.00  0.00    +0.004 C 
ENDBRANCH  28  29
ENDBRANCH  27  28
ENDBRANCH  21  27
ENDBRANCH  20  21
ENDBRANCH  19  20
ENDBRANCH  18  19
ENDBRANCH  16  18
ENDBRANCH   1  16
BRANCH   4  31
ATOM     31  O   UNL     1      -2.621   1.980   0.219  0.00  0.00    -0.495 OA
ATOM     32  C   UNL     1      -2.443   1.619  -1.152  0.00  0.00    +0.277 C 
ENDBRANCH   4  31
TORSDOF 12
