REMARK  Name = ZINC59424715
REMARK  8 active torsions:
REMARK  status: ('A' for Active; 'I' for Inactive)
REMARK    1  A    between atoms: C_1  and  C_2
REMARK    2  A    between atoms: C_8  and  C_17
REMARK    3  A    between atoms: C_12  and  C_13
REMARK    4  A    between atoms: C_13  and  O_15
REMARK    5  A    between atoms: O_15  and  C_16
REMARK    6  A    between atoms: C_17  and  N_18
REMARK    7  A    between atoms: N_22  and  C_25
REMARK    8  A    between atoms: C_25  and  C_26
REMARK                            x       y       z     vdW  Elec       q    Type
REMARK                         _______ _______ _______ _____ _____    ______ ____
ROOT
ATOM      1  C   UNL     1       0.966   1.611  -0.382  0.00  0.00    +0.046 C 
ATOM      2  C   UNL     1       0.859   0.109  -0.335  0.00  0.00    -0.015 A 
ATOM      3  C   UNL     1       0.775  -0.624  -1.520  0.00  0.00    +0.076 A 
ATOM      4  C   UNL     1       0.774  -0.143  -2.920  0.00  0.00    +0.260 A 
ATOM      5  O   UNL     1       0.854   1.046  -3.172  0.00  0.00    -0.267 OA
ATOM      6  N   UNL     1       0.683  -1.054  -3.908  0.00  0.00    -0.309 N 
ATOM      7  H   UNL     1       0.681  -0.755  -4.831  0.00  0.00    +0.170 HD
ATOM      8  C   UNL     1       0.594  -2.380  -3.640  0.00  0.00    +0.125 A 
ATOM      9  N   UNL     1       0.592  -2.838  -2.417  0.00  0.00    -0.225 NA
ATOM     10  C   UNL     1       0.678  -2.027  -1.371  0.00  0.00    +0.116 A 
ATOM     11  S   UNL     1       0.706  -2.253   0.390  0.00  0.00    -0.062 S 
ATOM     12  C   UNL     1       0.849  -0.539   0.867  0.00  0.00    +0.102 A 
ENDROOT
BRANCH  12  13
ATOM     13  C   UNL     1       0.932   0.031   2.213  0.00  0.00    +0.346 C 
ATOM     14  O   UNL     1       1.023   1.235   2.359  0.00  0.00    -0.244 OA
BRANCH  13  15
ATOM     15  O   UNL     1       0.906  -0.779   3.292  0.00  0.00    -0.464 OA
ATOM     16  C   UNL     1       0.991  -0.154   4.574  0.00  0.00    +0.280 C 
ENDBRANCH  13  15
ENDBRANCH  12  13
BRANCH   8  17
ATOM     17  C   UNL     1       0.494  -3.353  -4.786  0.00  0.00    +0.158 C 
BRANCH  17  18
ATOM     18  N   UNL     1       0.408  -4.722  -4.259  0.00  0.00    -0.297 NA
ATOM     19  C   UNL     1      -0.830  -4.926  -3.547  0.00  0.00    +0.083 C 
ATOM     20  C   UNL     1      -0.670  -5.830  -2.309  0.00  0.00    -0.003 C 
ATOM     21  C   UNL     1       0.250  -7.035  -2.585  0.00  0.00    -0.078 C 
ATOM     22  N   UNL     1       0.007  -7.611  -3.887  0.00  0.00    +0.381 N 
ATOM     23  C   UNL     1       0.972  -7.022  -4.835  0.00  0.00    -0.063 C 
ATOM     24  C   UNL     1       0.549  -5.721  -5.349  0.00  0.00    +0.066 C 
ATOM     25  H   UNL     1      -0.934  -7.399  -4.183  0.00  0.00    -0.082 HD
BRANCH  22  26
ATOM     26  C   UNL     1       0.194  -9.066  -3.828  0.00  0.00    -0.075 C 
BRANCH  26  27
ATOM     27  C   UNL     1      -0.219  -9.688  -5.164  0.00  0.00    -0.028 C 
ATOM     28  C   UNL     1      -1.722  -9.492  -5.374  0.00  0.00    +0.002 C 
ATOM     29  C   UNL     1      -2.136 -10.113  -6.709  0.00  0.00    +0.000 C 
ATOM     30  C   UNL     1      -1.813 -11.608  -6.698  0.00  0.00    +0.000 C 
ATOM     31  C   UNL     1      -0.311 -11.805  -6.487  0.00  0.00    +0.000 C 
ATOM     32  C   UNL     1       0.103 -11.183  -5.152  0.00  0.00    +0.002 C 
ENDBRANCH  26  27
ENDBRANCH  22  26
ENDBRANCH  17  18
ENDBRANCH   8  17
TORSDOF 6
