REMARK  Name = ZINC00190104
REMARK  2 active torsions:
REMARK  status: ('A' for Active; 'I' for Inactive)
REMARK    1  A    between atoms: C_4  and  N_7
REMARK    2  A    between atoms: N_17  and  N_18
REMARK                            x       y       z     vdW  Elec       q    Type
REMARK                         _______ _______ _______ _____ _____    ______ ____
ROOT
ATOM      1  N   UNL     1       3.623  -0.651  -0.031  0.00  0.00    -0.248 N 
ATOM      2  C   UNL     1       3.631  -1.994   0.059  0.00  0.00    +0.268 A 
ATOM      3  O   UNL     1       2.586  -2.613   0.158  0.00  0.00    -0.266 OA
ATOM      4  C   UNL     1       4.884  -2.685   0.035  0.00  0.00    +0.076 A 
ATOM      5  C   UNL     1       5.127  -4.127   0.119  0.00  0.00    -0.023 A 
ATOM      6  C   UNL     1       6.411  -4.535   0.074  0.00  0.00    -0.004 A 
ATOM      7  S   UNL     1       7.362  -3.046  -0.081  0.00  0.00    -0.073 S 
ATOM      8  C   UNL     1       6.027  -1.877  -0.084  0.00  0.00    +0.118 A 
ATOM      9  N   UNL     1       5.951  -0.553  -0.168  0.00  0.00    -0.207 NA
ATOM     10  C   UNL     1       4.785   0.058  -0.149  0.00  0.00    +0.218 A 
ATOM     11  N   UNL     1       4.736   1.427  -0.244  0.00  0.00    -0.253 N 
ATOM     12  C   UNL     1       6.920  -5.942   0.142  0.00  0.00    +0.043 C 
ATOM     13  C   UNL     1       5.783  -6.844   0.647  0.00  0.00    +0.005 C 
ATOM     14  C   UNL     1       4.512  -6.520  -0.144  0.00  0.00    +0.005 C 
ATOM     15  C   UNL     1       3.992  -5.138   0.253  0.00  0.00    +0.037 C 
ATOM     16  H   UNL     1       3.887   1.889  -0.158  0.00  0.00    +0.169 HD
ENDROOT
BRANCH   1  20
ATOM     17  C   UNL     1      -0.016   1.379   0.037  0.00  0.00    +0.000 A 
ATOM     18  C   UNL     1       0.533   0.987  -1.170  0.00  0.00    +0.002 A 
ATOM     19  C   UNL     1       1.739   0.314  -1.196  0.00  0.00    +0.026 A 
ATOM     20  C   UNL     1       2.400   0.032  -0.008  0.00  0.00    +0.053 A 
ATOM     21  C   UNL     1       1.847   0.428   1.202  0.00  0.00    +0.026 A 
ATOM     22  C   UNL     1       0.641   1.100   1.221  0.00  0.00    +0.002 A 
ENDBRANCH   1  20
BRANCH  11  23
ATOM     23  N   UNL     1       5.882   2.138  -0.459  0.00  0.00    -0.254 NA
ATOM     24  H   UNL     1       5.690   3.128  -0.505  0.00  0.00    +0.140 HD
ATOM     25  H   UNL     1       6.571   1.936   0.250  0.00  0.00    +0.140 HD
ENDBRANCH  11  23
TORSDOF 2
