REMARK  Name = ZINC39526929
REMARK  7 active torsions:
REMARK  status: ('A' for Active; 'I' for Inactive)
REMARK    1  A    between atoms: C_1  and  S_2
REMARK    2  A    between atoms: S_2  and  C_3
REMARK    3  A    between atoms: C_13  and  S_25
REMARK    4  A    between atoms: N_15  and  S_16
REMARK    5  A    between atoms: S_16  and  C_19
REMARK    6  A    between atoms: S_25  and  O_28
REMARK    7  A    between atoms: O_28  and  C_29
REMARK                            x       y       z     vdW  Elec       q    Type
REMARK                         _______ _______ _______ _____ _____    ______ ____
ROOT
ATOM      1  C   UNL     1      -1.692  -0.859  -1.031  0.00  0.00    +0.048 C 
ATOM      2  C   UNL     1      -2.212  -0.105   0.194  0.00  0.00    +0.014 C 
ATOM      3  C   UNL     1      -3.704  -0.391   0.374  0.00  0.00    +0.003 C 
ATOM      4  C   UNL     1      -3.915  -1.893   0.574  0.00  0.00    +0.024 C 
ATOM      5  C   UNL     1      -3.392  -2.649  -0.648  0.00  0.00    +0.046 C 
ATOM      6  C   UNL     1      -1.901  -2.362  -0.831  0.00  0.00    +0.038 C 
ATOM      7  C   UNL     1      -4.157  -2.201  -1.896  0.00  0.00    +0.024 C 
ATOM      8  C   UNL     1      -3.727  -3.058  -3.088  0.00  0.00    +0.005 C 
ATOM      9  C   UNL     1      -4.065  -4.525  -2.812  0.00  0.00    +0.047 C 
ATOM     10  C   UNL     1      -3.296  -4.998  -1.574  0.00  0.00    +0.261 C 
ATOM     11  N   UNL     1      -3.593  -4.090  -0.457  0.00  0.00    -0.143 NA
ENDROOT
BRANCH  11  12
ATOM     12  S   UNL     1      -4.144  -4.682   0.988  0.00  0.00    +0.063 S 
ATOM     13  O   UNL     1      -4.141  -6.098   0.875  0.00  0.00    -0.153 OA
ATOM     14  O   UNL     1      -3.428  -3.997   2.006  0.00  0.00    -0.153 OA
BRANCH  12  15
ATOM     15  C   UNL     1      -5.830  -4.193   1.142  0.00  0.00    +0.106 A 
ATOM     16  C   UNL     1      -6.160  -3.074   1.884  0.00  0.00    +0.028 A 
ATOM     17  C   UNL     1      -7.482  -2.690   2.005  0.00  0.00    +0.002 A 
ATOM     18  C   UNL     1      -8.475  -3.425   1.384  0.00  0.00    +0.000 A 
ATOM     19  C   UNL     1      -8.145  -4.543   0.641  0.00  0.00    +0.002 A 
ATOM     20  C   UNL     1      -6.822  -4.924   0.516  0.00  0.00    +0.028 A 
ENDBRANCH  12  15
ENDBRANCH  11  12
BRANCH  10  21
ATOM     21  S   UNL     1      -3.812  -6.684  -1.145  0.00  0.00    +0.139 S 
ATOM     22  O   UNL     1      -2.884  -7.264  -0.239  0.00  0.00    -0.135 OA
ATOM     23  O   UNL     1      -5.206  -6.715  -0.873  0.00  0.00    -0.135 OA
BRANCH  21  24
ATOM     24  O   UNL     1      -3.649  -7.482  -2.432  0.00  0.00    -0.345 OA
BRANCH  24  25
ATOM     25  C   UNL     1      -2.358  -7.774  -2.741  0.00  0.00    +0.156 A 
ATOM     26  C   UNL     1      -1.615  -6.898  -3.519  0.00  0.00    +0.048 A 
ATOM     27  C   UNL     1      -0.303  -7.197  -3.832  0.00  0.00    +0.004 A 
ATOM     28  C   UNL     1       0.269  -8.368  -3.372  0.00  0.00    +0.000 A 
ATOM     29  C   UNL     1      -0.470  -9.243  -2.597  0.00  0.00    +0.004 A 
ATOM     30  C   UNL     1      -1.780  -8.946  -2.276  0.00  0.00    +0.048 A 
ENDBRANCH  24  25
ENDBRANCH  21  24
ENDBRANCH  10  21
BRANCH   1  32
ATOM     31  C   UNL     1       0.141   1.256  -1.617  0.00  0.00    +0.084 C 
ATOM     32  S   UNL     1       0.077  -0.519  -1.245  0.00  0.00    -0.161 S 
ENDBRANCH   1  32
TORSDOF 6
