REMARK  Name = ZINC41918831
REMARK  6 active torsions:
REMARK  status: ('A' for Active; 'I' for Inactive)
REMARK    1  A    between atoms: C_1  and  C_2
REMARK    2  A    between atoms: C_2  and  C_4
REMARK    3  A    between atoms: C_2  and  N_10
REMARK    4  A    between atoms: C_11  and  C_13
REMARK    5  A    between atoms: N_15  and  C_16
REMARK    6  A    between atoms: N_24  and  C_27
REMARK                            x       y       z     vdW  Elec       q    Type
REMARK                         _______ _______ _______ _____ _____    ______ ____
ROOT
ATOM      1  C   UNL     1      -3.431  -1.169   1.191  0.00  0.00    +0.303 C 
ATOM      2  O   UNL     1      -3.982  -1.449   0.147  0.00  0.00    -0.265 OA
ATOM      3  N   UNL     1      -4.086  -1.316   2.360  0.00  0.00    -0.278 N 
ATOM      4  H   UNL     1      -3.625  -1.156   3.198  0.00  0.00    +0.155 HD
ENDROOT
BRANCH   3   5
ATOM      5  C   UNL     1      -5.426  -1.698   2.364  0.00  0.00    +0.035 A 
ATOM      6  C   UNL     1      -5.893  -2.592   1.407  0.00  0.00    +0.024 A 
ATOM      7  C   UNL     1      -7.220  -2.979   1.401  0.00  0.00    +0.015 A 
ATOM      8  C   UNL     1      -8.092  -2.474   2.355  0.00  0.00    +0.050 A 
ATOM      9  C   UNL     1      -7.621  -1.566   3.328  0.00  0.00    +0.051 A 
ATOM     10  C   UNL     1      -6.291  -1.188   3.331  0.00  0.00    +0.037 A 
ATOM     11  C   UNL     1      -8.790  -1.234   4.170  0.00  0.00    +0.254 C 
ATOM     12  O   UNL     1      -8.788  -0.479   5.121  0.00  0.00    -0.270 OA
ATOM     13  N   UNL     1      -9.857  -1.910   3.705  0.00  0.00    -0.237 N 
ATOM     14  C   UNL     1      -9.528  -2.661   2.639  0.00  0.00    +0.254 C 
ATOM     15  O   UNL     1     -10.286  -3.375   2.014  0.00  0.00    -0.270 OA
ATOM     16  C   UNL     1     -11.201  -1.836   4.284  0.00  0.00    +0.142 C 
ENDBRANCH   3   5
BRANCH   1  18
ATOM     17  N   UNL     1      -1.371  -0.514   0.013  0.00  0.00    -0.303 N 
ATOM     18  C   UNL     1      -2.026  -0.661   1.182  0.00  0.00    +0.300 C 
ATOM     19  O   UNL     1      -1.475  -0.381   2.226  0.00  0.00    -0.265 OA
ATOM     20  H   UNL     1      -1.811  -0.738  -0.822  0.00  0.00    +0.150 HD
BRANCH  17  22
ATOM     21  C   UNL     1      -0.004   1.514   0.022  0.00  0.00    +0.030 C 
ATOM     22  C   UNL     1       0.007  -0.015   0.004  0.00  0.00    +0.099 C 
BRANCH  22  23
ATOM     23  C   UNL     1       0.718  -0.505  -1.259  0.00  0.00    +0.138 C 
ATOM     24  C   UNL     1       2.203  -0.087  -1.220  0.00  0.00    +0.035 C 
ATOM     25  C   UNL     1       2.474   0.307  -2.697  0.00  0.00    +0.031 C 
ATOM     26  C   UNL     1       1.102   0.906  -3.098  0.00  0.00    +0.160 C 
ATOM     27  O   UNL     1       0.127   0.099  -2.415  0.00  0.00    -0.375 OA
ENDBRANCH  22  23
ENDBRANCH  17  22
ENDBRANCH   1  18
TORSDOF 4
