REMARK  Name = ZINC49660360
REMARK  7 active torsions:
REMARK  status: ('A' for Active; 'I' for Inactive)
REMARK    1  A    between atoms: C_1  and  C_2
REMARK    2  A    between atoms: C_8  and  C_10
REMARK    3  A    between atoms: N_12  and  C_13
REMARK    4  A    between atoms: C_18  and  C_19
REMARK    5  A    between atoms: C_19  and  C_20
REMARK    6  A    between atoms: C_19  and  C_21
REMARK    7  A    between atoms: C_19  and  C_22
REMARK                            x       y       z     vdW  Elec       q    Type
REMARK                         _______ _______ _______ _____ _____    ______ ____
ROOT
ATOM      1  C   UNL     1      -0.332  -1.859   4.650  0.00  0.00    +0.275 C 
ATOM      2  O   UNL     1      -0.311  -2.963   5.158  0.00  0.00    -0.268 OA
ATOM      3  N   UNL     1      -0.206  -0.760   5.419  0.00  0.00    -0.279 N 
ATOM      4  H   UNL     1      -0.134   0.115   5.007  0.00  0.00    +0.155 HD
ENDROOT
BRANCH   1  12
ATOM      5  C   UNL     1      -0.742   1.659   0.037  0.00  0.00    +0.090 C 
ATOM      6  C   UNL     1      -0.797   0.154  -0.002  0.00  0.00    +0.153 A 
ATOM      7  N   UNL     1      -0.939  -0.580  -1.069  0.00  0.00    -0.132 NA
ATOM      8  N   UNL     1      -0.947  -1.828  -0.751  0.00  0.00    -0.120 NA
ATOM      9  C   UNL     1      -0.810  -1.947   0.534  0.00  0.00    +0.218 A 
ATOM     10  N   UNL     1      -0.701  -0.691   1.087  0.00  0.00    -0.190 N 
ATOM     11  N   UNL     1      -0.541  -0.633   2.465  0.00  0.00    -0.151 NA
ATOM     12  C   UNL     1      -0.495  -1.722   3.188  0.00  0.00    +0.187 A 
ATOM     13  S   UNL     1      -0.691  -3.002   1.957  0.00  0.00    -0.022 S 
ENDBRANCH   1  12
BRANCH   3  14
ATOM     14  C   UNL     1      -0.179  -0.881   6.812  0.00  0.00    +0.037 A 
ATOM     15  C   UNL     1      -0.168  -2.139   7.401  0.00  0.00    +0.023 A 
ATOM     16  C   UNL     1      -0.141  -2.256   8.777  0.00  0.00    +0.002 A 
ATOM     17  C   UNL     1      -0.125  -1.121   9.568  0.00  0.00    +0.000 A 
ATOM     18  C   UNL     1      -0.136   0.132   8.985  0.00  0.00    +0.006 A 
ATOM     19  C   UNL     1      -0.157   0.256   7.609  0.00  0.00    -0.021 A 
BRANCH  19  20
ATOM     20  C   UNL     1      -0.163   1.622   6.974  0.00  0.00    -0.011 C 
ATOM     21  C   UNL     1      -0.169   2.692   8.068  0.00  0.00    +0.015 C 
ATOM     22  C   UNL     1       1.087   1.787   6.107  0.00  0.00    +0.015 C 
ATOM     23  C   UNL     1      -1.411   1.775   6.104  0.00  0.00    +0.015 C 
ENDBRANCH  19  20
ENDBRANCH   3  14
TORSDOF 3
