REMARK  Name = ZINC52006899
REMARK  6 active torsions:
REMARK  status: ('A' for Active; 'I' for Inactive)
REMARK    1  A    between atoms: C_1  and  S_2
REMARK    2  A    between atoms: S_2  and  C_5
REMARK    3  A    between atoms: C_8  and  N_14
REMARK    4  A    between atoms: C_9  and  N_11
REMARK    5  A    between atoms: N_14  and  C_15
REMARK    6  A    between atoms: C_21  and  O_23
REMARK                            x       y       z     vdW  Elec       q    Type
REMARK                         _______ _______ _______ _____ _____    ______ ____
ROOT
ATOM      1  C   UNL     1       0.803  -0.688  -1.462  0.00  0.00    +0.090 A 
ATOM      2  C   UNL     1       0.135  -0.594  -2.669  0.00  0.00    +0.029 A 
ATOM      3  C   UNL     1       0.835  -0.681  -3.856  0.00  0.00    +0.027 A 
ATOM      4  C   UNL     1       2.212  -0.865  -3.837  0.00  0.00    +0.058 A 
ATOM      5  C   UNL     1       2.880  -0.959  -2.623  0.00  0.00    +0.149 A 
ATOM      6  C   UNL     1       2.174  -0.865  -1.439  0.00  0.00    +0.061 A 
ENDROOT
BRANCH   1   8
ATOM      7  C   UNL     1      -0.106   1.194   0.454  0.00  0.00    +0.200 C 
ATOM      8  S   UNL     1      -0.094  -0.575   0.050  0.00  0.00    -0.006 S 
ATOM      9  O   UNL     1       0.695  -1.287   0.994  0.00  0.00    -0.170 OA
ATOM     10  O   UNL     1      -1.407  -1.013  -0.273  0.00  0.00    -0.170 OA
ENDBRANCH   1   8
BRANCH   5  11
ATOM     11  N   UNL     1       4.347  -1.155  -2.597  0.00  0.00    +0.058 N 
ATOM     12  O   UNL     1       4.876  -1.867  -3.419  0.00  0.00    -0.126 OA
ATOM     13  O   UNL     1       5.016  -0.603  -1.755  0.00  0.00    -0.126 OA
ENDBRANCH   5  11
BRANCH   4  14
ATOM     14  N   UNL     1       2.923  -0.955  -5.036  0.00  0.00    -0.337 N 
ATOM     15  H   UNL     1       3.892  -1.000  -5.023  0.00  0.00    +0.147 HD
BRANCH  14  16
ATOM     16  C   UNL     1       2.206  -0.980  -6.313  0.00  0.00    +0.099 C 
ATOM     17  C   UNL     1       1.779  -2.415  -6.629  0.00  0.00    +0.025 C 
ATOM     18  C   UNL     1       1.030  -2.442  -7.963  0.00  0.00    +0.002 C 
ATOM     19  C   UNL     1       1.947  -1.926  -9.074  0.00  0.00    +0.003 C 
ATOM     20  C   UNL     1       2.374  -0.491  -8.757  0.00  0.00    +0.033 C 
ATOM     21  C   UNL     1       3.123  -0.465  -7.424  0.00  0.00    +0.135 C 
BRANCH  21  22
ATOM     22  O   UNL     1       3.522   0.875  -7.128  0.00  0.00    -0.390 OA
ATOM     23  H   UNL     1       4.106   1.267  -7.792  0.00  0.00    +0.210 HD
ENDBRANCH  21  22
ENDBRANCH  14  16
ENDBRANCH   4  14
TORSDOF 5
