REMARK  Name = ZINC39747022
REMARK  5 active torsions:
REMARK  status: ('A' for Active; 'I' for Inactive)
REMARK    1  A    between atoms: C_7  and  C_10
REMARK    2  A    between atoms: C_10  and  C_12
REMARK    3  A    between atoms: C_12  and  S_13
REMARK    4  A    between atoms: S_13  and  C_14
REMARK    5  A    between atoms: N_19  and  C_20
REMARK                            x       y       z     vdW  Elec       q    Type
REMARK                         _______ _______ _______ _____ _____    ______ ____
ROOT
ATOM      1  C   UNL     1       0.595  -7.344  -0.042  0.00  0.00    +0.236 C 
ATOM      2  N   UNL     1       1.515  -7.481   1.101  0.00  0.00    -0.259 N 
ATOM      3  N   UNL     1       2.789  -7.676   0.554  0.00  0.00    -0.283 N 
ATOM      4  C   UNL     1       2.755  -7.674  -0.735  0.00  0.00    +0.178 C 
ATOM      5  N   UNL     1       1.468  -7.481  -1.220  0.00  0.00    -0.272 N 
ATOM      6  N   UNL     1       3.872  -7.845  -1.542  0.00  0.00    -0.304 N 
ATOM      7  C   UNL     1       3.875  -7.842  -3.013  0.00  0.00    +0.108 C 
ATOM      8  C   UNL     1       5.328  -8.093  -3.468  0.00  0.00    +0.020 C 
ATOM      9  C   UNL     1       5.964  -8.785  -2.235  0.00  0.00    +0.020 C 
ATOM     10  C   UNL     1       5.252  -8.053  -1.067  0.00  0.00    +0.108 C 
ATOM     11  H   UNL     1       1.284  -7.444   2.042  0.00  0.00    +0.169 HD
ATOM     12  H   UNL     1       3.596  -7.797   1.078  0.00  0.00    +0.187 HD
ENDROOT
BRANCH   5  13
ATOM     13  C   UNL     1       1.057  -7.425  -2.626  0.00  0.00    +0.079 C 
ATOM     14  C   UNL     1      -0.383  -7.002  -2.924  0.00  0.00    +0.024 C 
ATOM     15  C   UNL     1       0.039  -8.461  -3.106  0.00  0.00    +0.024 C 
ENDBRANCH   5  13
BRANCH   1  16
ATOM     16  S   UNL     1      -0.202  -5.714  -0.026  0.00  0.00    -0.110 S 
BRANCH  16  17
ATOM     17  C   UNL     1       1.187  -4.547  -0.033  0.00  0.00    +0.151 C 
BRANCH  17  18
ATOM     18  C   UNL     1       0.657  -3.136  -0.021  0.00  0.00    +0.171 C 
ATOM     19  O   UNL     1      -0.541  -2.938  -0.009  0.00  0.00    -0.291 OA
BRANCH  18  26
ATOM     20  C   UNL     1      -0.016   1.348   0.009  0.00  0.00    +0.001 A 
ATOM     21  C   UNL     1       1.158   2.117   0.002  0.00  0.00    +0.002 A 
ATOM     22  C   UNL     1       2.384   1.551  -0.012  0.00  0.00    +0.026 A 
ATOM     23  C   UNL     1       2.494   0.083  -0.021  0.00  0.00    +0.043 A 
ATOM     24  N   UNL     1       3.525  -0.712  -0.035  0.00  0.00    -0.380 N 
ATOM     25  C   UNL     1       3.065  -2.104  -0.039  0.00  0.00    +0.152 C 
ATOM     26  C   UNL     1       1.553  -2.046  -0.024  0.00  0.00    +0.024 C 
ATOM     27  C   UNL     1       1.234  -0.700  -0.013  0.00  0.00    +0.006 A 
ATOM     28  C   UNL     1       0.002  -0.004   0.002  0.00  0.00    +0.010 A 
ATOM     29  H   UNL     1       4.453  -0.428  -0.043  0.00  0.00    +0.160 HD
ENDBRANCH  18  26
ENDBRANCH  17  18
ENDBRANCH  16  17
ENDBRANCH   1  16
TORSDOF 5
