REMARK  Name = ZINC55116672
REMARK  4 active torsions:
REMARK  status: ('A' for Active; 'I' for Inactive)
REMARK    1  A    between atoms: C_3  and  C_6
REMARK    2  A    between atoms: N_7  and  N_8
REMARK    3  A    between atoms: C_9  and  C_11
REMARK    4  A    between atoms: C_11  and  C_12
REMARK                            x       y       z     vdW  Elec       q    Type
REMARK                         _______ _______ _______ _____ _____    ______ ____
ROOT
ATOM      1  N   UNL     1       5.586  -0.558  -0.056  0.00  0.00    -0.207 N 
ATOM      2  C   UNL     1       6.232  -1.742  -0.068  0.00  0.00    +0.234 C 
ATOM      3  O   UNL     1       5.600  -2.777  -0.067  0.00  0.00    -0.274 OA
ATOM      4  H   UNL     1       6.091   0.270  -0.057  0.00  0.00    +0.177 HD
ENDROOT
BRANCH   1   6
ATOM      5  C   UNL     1       3.563   0.617  -0.029  0.00  0.00    +0.176 C 
ATOM      6  N   UNL     1       4.186  -0.524  -0.041  0.00  0.00    -0.185 NA
BRANCH   5   9
ATOM      7  C   UNL     1      -0.016   1.345   0.009  0.00  0.00    +0.042 A 
ATOM      8  C   UNL     1       1.323   1.776  -0.001  0.00  0.00    +0.051 A 
ATOM      9  C   UNL     1       2.098   0.653  -0.015  0.00  0.00    +0.147 A 
ATOM     10  O   UNL     1       1.279  -0.418  -0.012  0.00  0.00    -0.462 OA
ATOM     11  C   UNL     1       0.002  -0.004   0.002  0.00  0.00    +0.196 A 
ENDBRANCH   5   9
ENDBRANCH   1   6
BRANCH   2  12
ATOM     12  C   UNL     1       7.738  -1.778  -0.083  0.00  0.00    +0.125 C 
BRANCH  12  13
ATOM     13  C   UNL     1       8.213  -3.233  -0.096  0.00  0.00    +0.149 C 
ATOM     14  C   UNL     1       9.708  -3.268  -0.239  0.00  0.00    +0.231 C 
ATOM     15  O   UNL     1      10.233  -2.515  -1.032  0.00  0.00    -0.274 OA
ATOM     16  N   UNL     1      10.484  -4.094   0.470  0.00  0.00    -0.313 N 
ATOM     17  C   UNL     1       9.955  -5.012   1.475  0.00  0.00    +0.119 C 
ATOM     18  C   UNL     1       8.452  -5.208   1.267  0.00  0.00    +0.100 C 
ATOM     19  N   UNL     1       7.816  -3.886   1.159  0.00  0.00    -0.304 NA
ATOM     20  H   UNL     1      11.440  -4.083   0.310  0.00  0.00    +0.149 HD
ATOM     21  H   UNL     1       8.042  -3.308   1.955  0.00  0.00    +0.123 HD
ENDBRANCH  12  13
ENDBRANCH   2  12
TORSDOF 4
