REMARK  Name = ZINC64058327
REMARK  5 active torsions:
REMARK  status: ('A' for Active; 'I' for Inactive)
REMARK    1  A    between atoms: C_7  and  C_10
REMARK    2  A    between atoms: C_10  and  C_11
REMARK    3  A    between atoms: C_11  and  C_12
REMARK    4  A    between atoms: N_14  and  C_15
REMARK    5  A    between atoms: C_20  and  N_21
REMARK                            x       y       z     vdW  Elec       q    Type
REMARK                         _______ _______ _______ _____ _____    ______ ____
ROOT
ATOM      1  C   UNL     1      -0.485  -4.830  -1.461  0.00  0.00    +0.218 C 
ATOM      2  O   UNL     1      -0.933  -5.246  -0.413  0.00  0.00    -0.275 OA
ATOM      3  N   UNL     1      -0.836  -5.413  -2.624  0.00  0.00    -0.284 N 
ATOM      4  H   UNL     1      -0.542  -5.032  -3.466  0.00  0.00    +0.155 HD
ENDROOT
BRANCH   3   5
ATOM      5  C   UNL     1      -1.626  -6.569  -2.616  0.00  0.00    +0.059 A 
ATOM      6  C   UNL     1      -1.625  -7.406  -1.509  0.00  0.00    +0.025 A 
ATOM      7  C   UNL     1      -2.405  -8.546  -1.504  0.00  0.00    +0.002 A 
ATOM      8  C   UNL     1      -3.189  -8.857  -2.600  0.00  0.00    +0.002 A 
ATOM      9  C   UNL     1      -3.196  -8.030  -3.707  0.00  0.00    +0.030 A 
ATOM     10  C   UNL     1      -2.420  -6.881  -3.719  0.00  0.00    +0.088 A 
BRANCH  10  11
ATOM     11  N   UNL     1      -2.430  -6.037  -4.839  0.00  0.00    -0.218 N 
ATOM     12  C   UNL     1      -3.213  -6.151  -5.929  0.00  0.00    +0.225 A 
ATOM     13  N   UNL     1      -2.918  -5.171  -6.745  0.00  0.00    -0.222 NA
ATOM     14  C   UNL     1      -1.958  -4.415  -6.214  0.00  0.00    +0.245 A 
ATOM     15  N   UNL     1      -1.630  -4.901  -5.045  0.00  0.00    -0.153 NA
ENDBRANCH  10  11
ENDBRANCH   3   5
BRANCH   1  16
ATOM     16  C   UNL     1       0.465  -3.660  -1.461  0.00  0.00    +0.100 C 
BRANCH  16  17
ATOM     17  C   UNL     1       0.696  -3.189  -0.024  0.00  0.00    +0.042 C 
BRANCH  17  24
ATOM     18  C   UNL     1       0.023   1.350  -0.008  0.00  0.00    +0.001 A 
ATOM     19  C   UNL     1       1.211   2.094  -0.012  0.00  0.00    +0.002 A 
ATOM     20  C   UNL     1       2.432   1.518  -0.019  0.00  0.00    +0.026 A 
ATOM     21  C   UNL     1       2.559   0.102  -0.023  0.00  0.00    +0.043 A 
ATOM     22  N   UNL     1       3.611  -0.680  -0.031  0.00  0.00    -0.380 N 
ATOM     23  C   UNL     1       3.157  -2.076  -0.033  0.00  0.00    +0.144 C 
ATOM     24  C   UNL     1       1.646  -2.020  -0.025  0.00  0.00    -0.041 C 
ATOM     25  C   UNL     1       1.319  -0.707  -0.019  0.00  0.00    -0.001 A 
ATOM     26  C   UNL     1       0.032  -0.003  -0.011  0.00  0.00    +0.010 A 
ATOM     27  H   UNL     1       4.535  -0.386  -0.035  0.00  0.00    +0.160 HD
ENDBRANCH  17  24
ENDBRANCH  16  17
ENDBRANCH   1  16
TORSDOF 5
