REMARK  Name = ZINC37769948
REMARK  8 active torsions:
REMARK  status: ('A' for Active; 'I' for Inactive)
REMARK    1  A    between atoms: C_1  and  C_2
REMARK    2  A    between atoms: C_2  and  C_3
REMARK    3  A    between atoms: C_2  and  C_6
REMARK    4  A    between atoms: C_2  and  N_21
REMARK    5  A    between atoms: N_8  and  C_9
REMARK    6  A    between atoms: C_10  and  C_17
REMARK    7  A    between atoms: C_17  and  O_19
REMARK    8  A    between atoms: O_19  and  C_20
REMARK                            x       y       z     vdW  Elec       q    Type
REMARK                         _______ _______ _______ _____ _____    ______ ____
ROOT
ATOM      1  C   UNL     1      -1.164  -1.051  -0.269  0.00  0.00    +0.206 C 
ATOM      2  O   UNL     1      -1.451  -1.861   0.586  0.00  0.00    -0.277 OA
ATOM      3  N   UNL     1      -2.099  -0.639  -1.149  0.00  0.00    -0.285 N 
ATOM      4  H   UNL     1      -1.892   0.066  -1.782  0.00  0.00    +0.155 HD
ENDROOT
BRANCH   3   5
ATOM      5  C   UNL     1      -3.362  -1.227  -1.149  0.00  0.00    +0.062 A 
ATOM      6  C   UNL     1      -3.890  -1.763  -2.333  0.00  0.00    +0.082 A 
ATOM      7  C   UNL     1      -5.157  -2.350  -2.321  0.00  0.00    +0.032 A 
ATOM      8  C   UNL     1      -5.881  -2.399  -1.148  0.00  0.00    +0.020 A 
ATOM      9  C   UNL     1      -5.357  -1.869   0.021  0.00  0.00    +0.032 A 
ATOM     10  C   UNL     1      -4.102  -1.291   0.024  0.00  0.00    +0.041 A 
ATOM     11 BR   UNL     1      -3.395  -0.579   1.627  0.00  0.00    -0.048 Br
ATOM     12 BR   UNL     1      -7.597  -3.194  -1.133  0.00  0.00    -0.050 Br
BRANCH   6  13
ATOM     13  C   UNL     1      -3.111  -1.707  -3.584  0.00  0.00    +0.341 C 
ATOM     14  O   UNL     1      -1.972  -1.286  -3.572  0.00  0.00    -0.245 OA
BRANCH  13  15
ATOM     15  O   UNL     1      -3.664  -2.121  -4.741  0.00  0.00    -0.464 OA
ATOM     16  C   UNL     1      -2.853  -2.039  -5.914  0.00  0.00    +0.280 C 
ENDBRANCH  13  15
ENDBRANCH   6  13
ENDBRANCH   3   5
BRANCH   1  18
ATOM     17  C   UNL     1       0.314   0.820   0.414  0.00  0.00    -0.001 C 
ATOM     18  C   UNL     1       0.238  -0.504  -0.349  0.00  0.00    +0.007 C 
BRANCH  18  19
ATOM     19  N   UNL     1       0.597  -0.280  -1.756  0.00  0.00    +0.388 N 
ATOM     20  H   UNL     1       1.536   0.086  -1.810  0.00  0.00    -0.089 HD
ATOM     21  H   UNL     1       0.547  -1.153  -2.259  0.00  0.00    -0.089 HD
ATOM     22  H   UNL     1      -0.045   0.381  -2.166  0.00  0.00    -0.089 HD
ENDBRANCH  18  19
BRANCH  18  23
ATOM     23  C   UNL     1       1.213  -1.508   0.272  0.00  0.00    -0.014 C 
ATOM     24  C   UNL     1       1.799  -1.167   1.643  0.00  0.00    +0.003 C 
ATOM     25  C   UNL     1       2.678  -1.086   0.394  0.00  0.00    +0.003 C 
ENDBRANCH  18  23
ENDBRANCH   1  18
TORSDOF 6
