REMARK  Name = ZINC32124886
REMARK  10 active torsions:
REMARK  status: ('A' for Active; 'I' for Inactive)
REMARK    1  A    between atoms: C_1  and  C_2
REMARK    2  A    between atoms: C_5  and  S_8
REMARK    3  A    between atoms: S_8  and  C_9
REMARK    4  A    between atoms: C_12  and  C_18
REMARK    5  A    between atoms: C_14  and  N_15
REMARK    6  A    between atoms: C_19  and  C_20
REMARK    7  A    between atoms: C_19  and  C_22
REMARK    8  A    between atoms: N_24  and  C_25
REMARK    9  A    between atoms: C_30  and  O_31
REMARK   10  A    between atoms: O_31  and  C_32
REMARK                            x       y       z     vdW  Elec       q    Type
REMARK                         _______ _______ _______ _____ _____    ______ ____
ROOT
ATOM      1  C   UNL     1       2.176  -0.360  -1.560  0.00  0.00    +0.043 A 
ATOM      2  C   UNL     1       3.178   0.610  -1.601  0.00  0.00    +0.018 A 
ATOM      3  C   UNL     1       2.919   1.879  -1.174  0.00  0.00    +0.009 A 
ATOM      4  C   UNL     1       1.642   2.208  -0.692  0.00  0.00    -0.021 A 
ATOM      5  C   UNL     1       0.638   1.229  -0.653  0.00  0.00    +0.041 A 
ATOM      6  C   UNL     1       0.906  -0.038  -1.083  0.00  0.00    +0.140 A 
ENDROOT
BRANCH   6   7
ATOM      7  N   UNL     1      -0.152  -1.073  -1.041  0.00  0.00    +0.058 N 
ATOM      8  O   UNL     1      -1.261  -0.792  -0.624  0.00  0.00    -0.126 OA
ATOM      9  O   UNL     1       0.087  -2.204  -1.425  0.00  0.00    -0.126 OA
ENDBRANCH   6   7
BRANCH   4  10
ATOM     10  C   UNL     1       1.359   3.568  -0.233  0.00  0.00    +0.032 C 
ATOM     11  C   UNL     1       2.287   4.245   0.531  0.00  0.00    +0.114 C 
BRANCH  11  12
ATOM     12  C   UNL     1       3.421   3.521   1.124  0.00  0.00    +0.259 C 
ATOM     13  O   UNL     1       3.465   2.306   1.063  0.00  0.00    -0.269 OA
ATOM     14  N   UNL     1       4.410   4.202   1.734  0.00  0.00    -0.278 N 
ATOM     15  H   UNL     1       4.346   5.295   1.832  0.00  0.00    +0.155 HD
BRANCH  14  16
ATOM     16  C   UNL     1       5.521   3.517   2.244  0.00  0.00    +0.076 A 
ATOM     17  C   UNL     1       5.400   2.191   2.636  0.00  0.00    +0.027 A 
ATOM     18  C   UNL     1       6.499   1.516   3.133  0.00  0.00    +0.002 A 
ATOM     19  C   UNL     1       7.716   2.161   3.252  0.00  0.00    +0.004 A 
ATOM     20  C   UNL     1       7.842   3.483   2.869  0.00  0.00    +0.047 A 
ATOM     21  C   UNL     1       6.747   4.166   2.364  0.00  0.00    +0.141 A 
BRANCH  21  22
ATOM     22  O   UNL     1       6.870   5.467   1.988  0.00  0.00    -0.493 OA
ATOM     23  C   UNL     1       8.157   6.068   2.139  0.00  0.00    +0.277 C 
ENDBRANCH  21  22
ENDBRANCH  14  16
ENDBRANCH  11  12
BRANCH  11  24
ATOM     24  C   UNL     1       2.146   5.654   0.747  0.00  0.00    +0.104 C 
ATOM     25  N   UNL     1       2.034   6.771   0.918  0.00  0.00    -0.191 NA
ENDBRANCH  11  24
ENDBRANCH   4  10
BRANCH   1  26
ATOM     26  S   UNL     1       2.517  -1.998  -2.114  0.00  0.00    -0.087 S 
BRANCH  26  31
ATOM     27  C   UNL     1       8.126  -1.659  -4.319  0.00  0.00    +0.044 C 
ATOM     28  C   UNL     1       6.725  -1.744  -3.768  0.00  0.00    -0.050 A 
ATOM     29  C   UNL     1       6.520  -2.155  -2.464  0.00  0.00    +0.004 A 
ATOM     30  C   UNL     1       5.239  -2.233  -1.956  0.00  0.00    +0.015 A 
ATOM     31  C   UNL     1       4.154  -1.898  -2.758  0.00  0.00    +0.013 A 
ATOM     32  C   UNL     1       4.363  -1.490  -4.069  0.00  0.00    +0.015 A 
ATOM     33  C   UNL     1       5.648  -1.409  -4.569  0.00  0.00    +0.004 A 
ENDBRANCH  26  31
ENDBRANCH   1  26
TORSDOF 8
