REMARK  Name = ZINC55123485
REMARK  5 active torsions:
REMARK  status: ('A' for Active; 'I' for Inactive)
REMARK    1  A    between atoms: C_1  and  C_2
REMARK    2  A    between atoms: C_8  and  N_10
REMARK    3  A    between atoms: C_11  and  C_13
REMARK    4  A    between atoms: C_17  and  N_23
REMARK    5  A    between atoms: C_19  and  C_22
REMARK                            x       y       z     vdW  Elec       q    Type
REMARK                         _______ _______ _______ _____ _____    ______ ____
ROOT
ATOM      1  N   UNL     1       2.217  -0.263   1.833  0.00  0.00    -0.312 N 
ATOM      2  C   UNL     1       2.777   0.190   2.973  0.00  0.00    +0.216 C 
ATOM      3  O   UNL     1       2.143   0.177   4.006  0.00  0.00    -0.276 OA
ATOM      4  H   UNL     1       2.724  -0.253   1.006  0.00  0.00    +0.149 HD
ENDROOT
BRANCH   1  11
ATOM      5  C   UNL     1       0.234   0.842   0.034  0.00  0.00    +0.009 C 
ATOM      6  C   UNL     1       0.237  -0.632   0.445  0.00  0.00    +0.006 C 
ATOM      7  C   UNL     1      -1.198  -1.162   0.456  0.00  0.00    +0.005 C 
ATOM      8  C   UNL     1      -1.195  -2.635   0.867  0.00  0.00    +0.000 C 
ATOM      9  C   UNL     1      -0.590  -2.773   2.265  0.00  0.00    +0.002 C 
ATOM     10  C   UNL     1       0.846  -2.244   2.255  0.00  0.00    +0.022 C 
ATOM     11  C   UNL     1       0.842  -0.770   1.844  0.00  0.00    +0.076 C 
ENDBRANCH   1  11
BRANCH   2  12
ATOM     12  C   UNL     1       4.190   0.711   2.962  0.00  0.00    +0.075 C 
ATOM     13  C   UNL     1       4.566   1.196   4.364  0.00  0.00    +0.011 C 
ATOM     14  C   UNL     1       3.612   2.315   4.788  0.00  0.00    -0.015 C 
ATOM     15  C   UNL     1       3.719   3.479   3.800  0.00  0.00    -0.072 C 
ATOM     16  C   UNL     1       3.344   2.993   2.398  0.00  0.00    -0.028 C 
ATOM     17  C   UNL     1       4.297   1.874   1.974  0.00  0.00    +0.014 C 
ATOM     18  C   UNL     1       1.909   2.464   2.409  0.00  0.00    +0.006 C 
BRANCH  15  19
ATOM     19  N   UNL     1       2.804   4.553   4.208  0.00  0.00    +0.380 N 
ATOM     20  H   UNL     1       3.052   4.873   5.132  0.00  0.00    -0.090 HD
ATOM     21  H   UNL     1       2.875   5.320   3.556  0.00  0.00    -0.090 HD
ATOM     22  H   UNL     1       1.857   4.204   4.215  0.00  0.00    -0.090 HD
ENDBRANCH  15  19
ENDBRANCH   2  12
TORSDOF 3
