REMARK  Name = ZINC63532735
REMARK  10 active torsions:
REMARK  status: ('A' for Active; 'I' for Inactive)
REMARK    1  A    between atoms: C_4  and  C_7
REMARK    2  A    between atoms: C_7  and  C_9
REMARK    3  A    between atoms: C_9  and  S_10
REMARK    4  A    between atoms: S_10  and  C_11
REMARK    5  A    between atoms: C_15  and  C_23
REMARK    6  A    between atoms: N_16  and  C_17
REMARK    7  A    between atoms: C_23  and  C_24
REMARK    8  A    between atoms: C_24  and  C_25
REMARK    9  A    between atoms: C_25  and  C_26
REMARK   10  A    between atoms: C_26  and  C_27
REMARK                            x       y       z     vdW  Elec       q    Type
REMARK                         _______ _______ _______ _____ _____    ______ ____
ROOT
ATOM      1  C   UNL     1       5.302  -4.587  -0.031  0.00  0.00    +0.241 C 
ATOM      2  N   UNL     1       4.524  -5.011  -1.209  0.00  0.00    -0.237 N 
ATOM      3  N   UNL     1       3.386  -5.656  -0.711  0.00  0.00    -0.174 NA
ATOM      4  C   UNL     1       3.377  -5.676   0.571  0.00  0.00    +0.122 C 
ATOM      5  N   UNL     1       4.497  -5.054   1.111  0.00  0.00    -0.258 N 
ATOM      6  H   UNL     1       4.755  -4.870  -2.141  0.00  0.00    +0.171 HD
ENDROOT
BRANCH   5   7
ATOM      7  C   UNL     1       4.801  -4.902   2.465  0.00  0.00    +0.037 A 
ATOM      8  C   UNL     1       4.007  -5.510   3.430  0.00  0.00    +0.023 A 
ATOM      9  C   UNL     1       4.311  -5.357   4.768  0.00  0.00    +0.002 A 
ATOM     10  C   UNL     1       5.405  -4.601   5.149  0.00  0.00    +0.000 A 
ATOM     11  C   UNL     1       6.198  -3.995   4.191  0.00  0.00    +0.002 A 
ATOM     12  C   UNL     1       5.902  -4.147   2.851  0.00  0.00    +0.023 A 
ENDBRANCH   5   7
BRANCH   1  13
ATOM     13  S   UNL     1       5.471  -2.781   0.005  0.00  0.00    -0.110 S 
BRANCH  13  14
ATOM     14  C   UNL     1       3.760  -2.179  -0.026  0.00  0.00    +0.152 C 
BRANCH  14  15
ATOM     15  C   UNL     1       3.757  -0.673   0.001  0.00  0.00    +0.173 C 
ATOM     16  O   UNL     1       4.806  -0.065   0.037  0.00  0.00    -0.291 OA
BRANCH  15  20
ATOM     17  C   UNL     1       0.080   1.442  -0.051  0.00  0.00    +0.000 A 
ATOM     18  C   UNL     1       1.275   2.139  -0.009  0.00  0.00    +0.001 A 
ATOM     19  C   UNL     1       2.474   1.459   0.008  0.00  0.00    +0.011 A 
ATOM     20  C   UNL     1       2.481   0.061  -0.017  0.00  0.00    +0.018 A 
ATOM     21  C   UNL     1       1.270  -0.636  -0.059  0.00  0.00    +0.011 A 
ATOM     22  C   UNL     1       0.079   0.058  -0.076  0.00  0.00    +0.001 A 
ENDBRANCH  15  20
ENDBRANCH  14  15
ENDBRANCH  13  14
ENDBRANCH   1  13
BRANCH   4  23
ATOM     23  C   UNL     1       2.281  -6.300   1.397  0.00  0.00    +0.073 C 
BRANCH  23  24
ATOM     24  C   UNL     1       1.155  -6.772   0.476  0.00  0.00    +0.008 C 
BRANCH  24  25
ATOM     25  C   UNL     1       0.043  -7.406   1.314  0.00  0.00    +0.004 C 
BRANCH  25  26
ATOM     26  C   UNL     1      -1.084  -7.879   0.392  0.00  0.00    +0.047 C 
BRANCH  26  27
ATOM     27  C   UNL     1      -2.196  -8.512   1.230  0.00  0.00    +0.174 C 
ATOM     28  N   UNL     1      -1.689  -9.704   1.922  0.00  0.00    -0.363 N 
ATOM     29  C   UNL     1      -2.388 -10.722   1.510  0.00  0.00    +0.060 A 
ATOM     30  C   UNL     1      -2.353 -12.155   1.832  0.00  0.00    +0.027 A 
ATOM     31  C   UNL     1      -3.221 -12.993   1.233  0.00  0.00    +0.002 A 
ATOM     32  C   UNL     1      -4.175 -12.555   0.297  0.00  0.00    +0.002 A 
ATOM     33  C   UNL     1      -4.293 -11.263  -0.070  0.00  0.00    +0.027 A 
ATOM     34  C   UNL     1      -3.398 -10.258   0.520  0.00  0.00    +0.060 A 
ATOM     35  N   UNL     1      -3.285  -8.971   0.359  0.00  0.00    -0.363 N 
ATOM     36  H   UNL     1      -0.966  -9.729   2.568  0.00  0.00    +0.162 HD
ATOM     37  H   UNL     1      -3.821  -8.417  -0.229  0.00  0.00    +0.162 HD
ENDBRANCH  26  27
ENDBRANCH  25  26
ENDBRANCH  24  25
ENDBRANCH  23  24
ENDBRANCH   4  23
TORSDOF 10
