REMARK  Name = ZINC40307963
REMARK  7 active torsions:
REMARK  status: ('A' for Active; 'I' for Inactive)
REMARK    1  A    between atoms: C_1  and  C_2
REMARK    2  A    between atoms: C_2  and  C_3
REMARK    3  A    between atoms: C_2  and  N_4
REMARK    4  A    between atoms: C_5  and  C_7
REMARK    5  A    between atoms: C_10  and  N_13
REMARK    6  A    between atoms: C_14  and  C_16
REMARK    7  A    between atoms: C_18  and  N_22
REMARK                            x       y       z     vdW  Elec       q    Type
REMARK                         _______ _______ _______ _____ _____    ______ ____
ROOT
ATOM      1  C   UNL     1       2.714  -1.079  -2.427  0.00  0.00    +0.037 A 
ATOM      2  C   UNL     1       1.978  -1.580  -3.504  0.00  0.00    +0.015 A 
ATOM      3  C   UNL     1       2.627  -2.018  -4.636  0.00  0.00    +0.024 A 
ATOM      4  C   UNL     1       4.016  -1.962  -4.708  0.00  0.00    +0.034 A 
ATOM      5  C   UNL     1       4.752  -1.464  -3.638  0.00  0.00    +0.024 A 
ATOM      6  C   UNL     1       4.108  -1.018  -2.506  0.00  0.00    +0.015 A 
ENDROOT
BRANCH   1   8
ATOM      7  N   UNL     1       0.676  -0.667  -1.139  0.00  0.00    -0.309 N 
ATOM      8  C   UNL     1       2.021  -0.608  -1.213  0.00  0.00    +0.244 C 
ATOM      9  O   UNL     1       2.662  -0.168  -0.278  0.00  0.00    -0.270 OA
ATOM     10  H   UNL     1       0.164  -1.018  -1.884  0.00  0.00    +0.149 HD
BRANCH   7  12
ATOM     11  C   UNL     1      -0.230   1.312  -0.023  0.00  0.00    +0.027 C 
ATOM     12  C   UNL     1      -0.012  -0.200   0.067  0.00  0.00    +0.067 C 
ATOM     13  C   UNL     1      -1.366  -0.904   0.187  0.00  0.00    +0.027 C 
ENDBRANCH   7  12
ENDBRANCH   1   8
BRANCH   4  14
ATOM     14  N   UNL     1       4.671  -2.407  -5.855  0.00  0.00    -0.280 N 
ATOM     15  C   UNL     1       4.094  -2.251  -7.063  0.00  0.00    +0.265 C 
ATOM     16  O   UNL     1       3.048  -1.638  -7.164  0.00  0.00    -0.268 OA
ATOM     17  H   UNL     1       5.542  -2.828  -5.784  0.00  0.00    +0.155 HD
BRANCH  15  18
ATOM     18  C   UNL     1       4.727  -2.821  -8.256  0.00  0.00    +0.104 A 
ATOM     19  C   UNL     1       4.254  -2.735  -9.550  0.00  0.00    +0.055 A 
ATOM     20  C   UNL     1       5.165  -3.414 -10.369  0.00  0.00    +0.043 A 
ATOM     21  C   UNL     1       6.159  -3.894  -9.576  0.00  0.00    +0.106 A 
ATOM     22  N   UNL     1       5.904  -3.534  -8.289  0.00  0.00    -0.355 N 
ATOM     23  H   UNL     1       6.459  -3.745  -7.522  0.00  0.00    +0.166 HD
BRANCH  20  24
ATOM     24  N   UNL     1       5.069  -3.572 -11.764  0.00  0.00    -0.357 N 
ATOM     25  H   UNL     1       4.317  -3.192 -12.244  0.00  0.00    +0.142 HD
ATOM     26  H   UNL     1       5.754  -4.062 -12.245  0.00  0.00    +0.142 HD
ENDBRANCH  20  24
ENDBRANCH  15  18
ENDBRANCH   4  14
TORSDOF 5
