REMARK  Name = ZINC44598093
REMARK  4 active torsions:
REMARK  status: ('A' for Active; 'I' for Inactive)
REMARK    1  A    between atoms: C_1  and  N_2
REMARK    2  A    between atoms: C_5  and  C_9
REMARK    3  A    between atoms: N_11  and  N_12
REMARK    4  A    between atoms: C_13  and  C_15
REMARK                            x       y       z     vdW  Elec       q    Type
REMARK                         _______ _______ _______ _____ _____    ______ ____
ROOT
ATOM      1  N   UNL     1       0.080  -6.293  -1.269  0.00  0.00    -0.230 N 
ATOM      2  C   UNL     1       0.083  -6.942  -2.450  0.00  0.00    +0.260 C 
ATOM      3  O   UNL     1       0.069  -6.312  -3.490  0.00  0.00    -0.269 OA
ATOM      4  H   UNL     1       0.091  -6.795  -0.440  0.00  0.00    +0.173 HD
ENDROOT
BRANCH   2   5
ATOM      5  C   UNL     1       0.102  -8.418  -2.481  0.00  0.00    +0.042 A 
ATOM      6  C   UNL     1       0.112  -9.143  -1.287  0.00  0.00    +0.017 A 
ATOM      7  C   UNL     1       0.130 -10.520  -1.318  0.00  0.00    +0.050 A 
ATOM      8  C   UNL     1       0.137 -11.192  -2.534  0.00  0.00    +0.166 A 
ATOM      9  C   UNL     1       0.128 -10.473  -3.730  0.00  0.00    +0.167 A 
ATOM     10  C   UNL     1       0.105  -9.092  -3.705  0.00  0.00    +0.062 A 
ATOM     11  O   UNL     1       0.138 -11.358  -4.769  0.00  0.00    -0.453 OA
ATOM     12  C   UNL     1       0.567 -12.611  -4.203  0.00  0.00    +0.466 C 
ATOM     13  O   UNL     1       0.153 -12.524  -2.827  0.00  0.00    -0.453 OA
ENDBRANCH   2   5
BRANCH   1  16
ATOM     14  C   UNL     1       0.059  -4.243  -0.059  0.00  0.00    +0.260 C 
ATOM     15  O   UNL     1       0.072  -4.872   0.980  0.00  0.00    -0.269 OA
ATOM     16  N   UNL     1       0.062  -4.892  -1.240  0.00  0.00    -0.230 N 
ATOM     17  H   UNL     1       0.051  -4.390  -2.069  0.00  0.00    +0.173 HD
BRANCH  14  22
ATOM     18  C   UNL     1      -0.018   1.461   0.010  0.00  0.00    +0.152 C 
ATOM     19  N   UNL     1       0.002  -0.004   0.002  0.00  0.00    -0.318 N 
ATOM     20  C   UNL     1       0.005  -0.664  -1.183  0.00  0.00    +0.089 A 
ATOM     21  C   UNL     1       0.024  -2.016  -1.228  0.00  0.00    +0.031 A 
ATOM     22  C   UNL     1       0.039  -2.759  -0.027  0.00  0.00    +0.045 A 
ATOM     23  C   UNL     1       0.036  -2.081   1.178  0.00  0.00    +0.083 A 
ATOM     24  C   UNL     1       0.022  -0.672   1.171  0.00  0.00    +0.252 A 
ATOM     25  O   UNL     1       0.024  -0.057   2.224  0.00  0.00    -0.268 OA
ENDBRANCH  14  22
ENDBRANCH   1  16
TORSDOF 3
