REMARK  Name = ZINC29335477
REMARK  6 active torsions:
REMARK  status: ('A' for Active; 'I' for Inactive)
REMARK    1  A    between atoms: C_1  and  N_2
REMARK    2  A    between atoms: N_2  and  C_3
REMARK    3  A    between atoms: N_2  and  S_16
REMARK    4  A    between atoms: C_3  and  C_4
REMARK    5  A    between atoms: C_7  and  C_9
REMARK    6  A    between atoms: S_16  and  C_19
REMARK                            x       y       z     vdW  Elec       q    Type
REMARK                         _______ _______ _______ _____ _____    ______ ____
ROOT
ATOM      1  C   UNL     1      -2.099   2.427   1.609  0.00  0.00    +0.132 C 
ATOM      2  N   UNL     1      -0.654   2.231   1.467  0.00  0.00    -0.172 NA
ENDROOT
BRANCH   2   3
ATOM      3  S   UNL     1      -0.022   1.758   0.012  0.00  0.00    +0.061 S 
ATOM      4  O   UNL     1       1.334   2.182   0.001  0.00  0.00    -0.153 OA
ATOM      5  O   UNL     1      -0.953   2.157  -0.985  0.00  0.00    -0.153 OA
BRANCH   3   6
ATOM      6  C   UNL     1       0.002  -0.004   0.002  0.00  0.00    +0.107 A 
ATOM      7  C   UNL     1       1.114  -0.681   0.468  0.00  0.00    +0.032 A 
ATOM      8  C   UNL     1       1.139  -2.064   0.469  0.00  0.00    +0.049 A 
ATOM      9  C   UNL     1       0.050  -2.773  -0.008  0.00  0.00    +0.142 A 
ATOM     10  C   UNL     1      -1.069  -2.091  -0.483  0.00  0.00    +0.078 A 
ATOM     11  C   UNL     1      -1.089  -0.706  -0.476  0.00  0.00    +0.055 A 
ATOM     12  N   UNL     1      -2.164  -2.821  -0.965  0.00  0.00    -0.280 N 
ATOM     13  C   UNL     1      -2.251  -4.138  -0.674  0.00  0.00    +0.255 C 
ATOM     14  O   UNL     1      -3.174  -4.796  -1.106  0.00  0.00    -0.272 OA
ATOM     15  C   UNL     1      -1.198  -4.785   0.188  0.00  0.00    +0.325 C 
ATOM     16  O   UNL     1       0.058  -4.133  -0.017  0.00  0.00    -0.481 OA
ATOM     17  H   UNL     1      -2.935  -2.322  -1.570  0.00  0.00    +0.155 HD
ENDBRANCH   3   6
ENDBRANCH   2   3
BRANCH   2  18
ATOM     18  C   UNL     1       0.231   2.453   2.613  0.00  0.00    +0.183 C 
BRANCH  18  19
ATOM     19  C   UNL     1       0.584   3.916   2.699  0.00  0.00    +0.121 A 
ATOM     20  C   UNL     1      -0.104   4.851   3.383  0.00  0.00    +0.046 A 
ATOM     21  C   UNL     1       0.568   6.076   3.196  0.00  0.00    +0.050 A 
ATOM     22  C   UNL     1       1.639   5.818   2.400  0.00  0.00    +0.135 A 
ATOM     23  O   UNL     1       1.639   4.502   2.111  0.00  0.00    -0.458 OA
BRANCH  22  24
ATOM     24  C   UNL     1       2.634   6.808   1.937  0.00  0.00    +0.017 A 
ATOM     25  C   UNL     1       2.516   8.147   2.312  0.00  0.00    +0.013 A 
ATOM     26  C   UNL     1       3.451   9.066   1.881  0.00  0.00    +0.021 A 
ATOM     27  C   UNL     1       4.498   8.663   1.069  0.00  0.00    +0.041 A 
ATOM     28  C   UNL     1       4.616   7.337   0.689  0.00  0.00    +0.021 A 
ATOM     29  C   UNL     1       3.691   6.408   1.118  0.00  0.00    +0.013 A 
ATOM     30 CL   UNL     1       5.666   9.826   0.524  0.00  0.00    -0.084 Cl
ENDBRANCH  22  24
ENDBRANCH  18  19
ENDBRANCH   2  18
TORSDOF 5
