REMARK  Name = ZINC03208724
REMARK  8 active torsions:
REMARK  status: ('A' for Active; 'I' for Inactive)
REMARK    1  A    between atoms: C_1  and  C_2
REMARK    2  A    between atoms: C_2  and  C_29
REMARK    3  A    between atoms: C_8  and  C_19
REMARK    4  A    between atoms: C_16  and  C_17
REMARK    5  A    between atoms: C_16  and  C_18
REMARK    6  A    between atoms: C_19  and  O_20
REMARK    7  A    between atoms: O_20  and  N_21
REMARK    8  A    between atoms: C_22  and  C_23
REMARK                            x       y       z     vdW  Elec       q    Type
REMARK                         _______ _______ _______ _____ _____    ______ ____
ROOT
ATOM      1  C   UNL     1      -0.013   1.086   0.008  0.00  0.00    -0.010 C 
ATOM      2  C   UNL     1      -0.734   1.583   1.276  0.00  0.00    -0.069 C 
ATOM      3  C   UNL     1      -0.686   3.114   1.272  0.00  0.00    +0.024 C 
ATOM      4  C   UNL     1      -1.504   3.603   2.463  0.00  0.00    -0.027 A 
ATOM      5  C   UNL     1      -1.229   4.831   3.193  0.00  0.00    +0.055 A 
ATOM      6  C   UNL     1      -0.164   5.830   2.977  0.00  0.00    +0.168 A 
ATOM      7  N   UNL     1       0.824   5.930   2.109  0.00  0.00    -0.207 NA
ATOM      8  C   UNL     1       1.512   7.042   2.346  0.00  0.00    +0.192 A 
ATOM      9  N   UNL     1       0.983   7.678   3.364  0.00  0.00    -0.145 NA
ATOM     10  N   UNL     1      -0.111   6.917   3.801  0.00  0.00    -0.201 N 
ATOM     11  C   UNL     1      -1.019   7.076   4.801  0.00  0.00    +0.226 A 
ATOM     12  N   UNL     1      -1.964   6.202   5.011  0.00  0.00    -0.228 NA
ATOM     13  C   UNL     1      -2.097   5.113   4.263  0.00  0.00    +0.114 A 
ATOM     14  S   UNL     1      -3.227   3.744   4.251  0.00  0.00    -0.075 S 
ATOM     15  C   UNL     1      -2.555   2.856   2.873  0.00  0.00    -0.016 A 
ATOM     16  C   UNL     1      -3.023   1.570   2.274  0.00  0.00    -0.041 C 
ATOM     17  C   UNL     1      -3.204   0.526   3.386  0.00  0.00    -0.005 C 
ATOM     18  C   UNL     1      -4.397   1.811   1.621  0.00  0.00    -0.005 C 
ATOM     19  C   UNL     1       0.036   1.055   2.490  0.00  0.00    -0.010 C 
ATOM     20  N   UNL     1      -2.114   1.036   1.219  0.00  0.00    +0.389 N 
ATOM     21  H   UNL     1      -2.062   0.016   1.324  0.00  0.00    -0.084 HD
ATOM     22  H   UNL     1      -2.515   1.266   0.302  0.00  0.00    -0.084 HD
ENDROOT
BRANCH   8  23
ATOM     23  C   UNL     1       2.716   7.502   1.565  0.00  0.00    +0.340 C 
BRANCH  23  24
ATOM     24  O   UNL     1       2.291   8.325   0.476  0.00  0.00    -0.386 OA
BRANCH  24  25
ATOM     25  N   UNL     1       3.352   8.812  -0.326  0.00  0.00    -0.092 NA
ATOM     26  C   UNL     1       3.099   9.568  -1.344  0.00  0.00    +0.160 C 
BRANCH  26  27
ATOM     27  C   UNL     1       4.205  10.076  -2.179  0.00  0.00    -0.004 A 
ATOM     28  C   UNL     1       5.526   9.746  -1.870  0.00  0.00    +0.009 A 
ATOM     29  C   UNL     1       6.554  10.220  -2.659  0.00  0.00    +0.001 A 
ATOM     30  C   UNL     1       6.280  11.030  -3.747  0.00  0.00    +0.000 A 
ATOM     31  C   UNL     1       4.974  11.364  -4.056  0.00  0.00    +0.001 A 
ATOM     32  C   UNL     1       3.935  10.893  -3.279  0.00  0.00    +0.009 A 
ENDBRANCH  26  27
ENDBRANCH  24  25
ENDBRANCH  23  24
ENDBRANCH   8  23
TORSDOF 4
