REMARK  Name = ZINC65339039
REMARK  2 active torsions:
REMARK  status: ('A' for Active; 'I' for Inactive)
REMARK    1  A    between atoms: C_4  and  C_7
REMARK    2  A    between atoms: C_9  and  C_12
REMARK                            x       y       z     vdW  Elec       q    Type
REMARK                         _______ _______ _______ _____ _____    ______ ____
ROOT
ATOM      1  C   UNL     1      -0.017   1.378   0.010  0.00  0.00    +0.021 A 
ATOM      2  C   UNL     1      -1.234   2.043   0.019  0.00  0.00    +0.054 A 
ATOM      3  C   UNL     1      -2.400   1.290   0.021  0.00  0.00    +0.203 A 
ATOM      4  C   UNL     1      -2.305  -0.106   0.012  0.00  0.00    +0.094 A 
ATOM      5  N   UNL     1      -1.119  -0.699   0.004  0.00  0.00    -0.358 N 
ATOM      6  C   UNL     1       0.002  -0.004   0.002  0.00  0.00    +0.083 A 
ATOM      7  O   UNL     1      -3.615   1.898   0.030  0.00  0.00    -0.286 OA
ATOM      8  H   UNL     1      -1.074  -1.668  -0.002  0.00  0.00    +0.165 HD
ENDROOT
BRANCH   4   9
ATOM      9  C   UNL     1      -3.539  -0.928   0.014  0.00  0.00    +0.010 A 
ATOM     10  C   UNL     1      -3.661  -2.021   0.852  0.00  0.00    +0.028 A 
ATOM     11  C   UNL     1      -4.859  -2.716   0.768  0.00  0.00    +0.052 A 
ATOM     12  S   UNL     1      -5.743  -1.798  -0.478  0.00  0.00    -0.093 S 
ATOM     13  C   UNL     1      -4.596  -0.619  -0.816  0.00  0.00    +0.056 A 
BRANCH  11  14
ATOM     14  C   UNL     1      -5.273  -3.860   1.487  0.00  0.00    +0.265 C 
ATOM     15  O   UNL     1      -6.369  -4.342   1.283  0.00  0.00    -0.295 OA
ENDBRANCH  11  14
ENDBRANCH   4   9
TORSDOF 2
