REMARK  Name = ZINC64788976
REMARK  9 active torsions:
REMARK  status: ('A' for Active; 'I' for Inactive)
REMARK    1  A    between atoms: C_1  and  C_2
REMARK    2  A    between atoms: C_2  and  N_3
REMARK    3  A    between atoms: N_3  and  C_4
REMARK    4  A    between atoms: N_3  and  C_6
REMARK    5  A    between atoms: C_4  and  C_5
REMARK    6  A    between atoms: C_9  and  C_12
REMARK    7  A    between atoms: C_18  and  C_20
REMARK    8  A    between atoms: N_26  and  C_29
REMARK    9  A    between atoms: C_29  and  C_30
REMARK                            x       y       z     vdW  Elec       q    Type
REMARK                         _______ _______ _______ _____ _____    ______ ____
ROOT
ATOM      1  C   UNL     1      -1.302  -6.165   0.447  0.00  0.00    +0.132 C 
ATOM      2  C   UNL     1      -0.242  -6.613   1.470  0.00  0.00    +0.082 C 
ATOM      3  C   UNL     1      -1.034  -7.334   2.537  0.00  0.00    +0.041 C 
ATOM      4  N   UNL     1      -2.332  -7.314   2.201  0.00  0.00    -0.264 N 
ATOM      5  N   UNL     1      -2.575  -6.654   0.995  0.00  0.00    -0.215 N 
ATOM      6  C   UNL     1      -3.784  -6.489   0.423  0.00  0.00    +0.229 C 
ATOM      7  O   UNL     1      -3.881  -5.895  -0.630  0.00  0.00    -0.274 OA
ATOM      8  C   UNL     1      -5.016  -7.042   1.093  0.00  0.00    +0.111 C 
ATOM      9  C   UNL     1      -0.507  -7.919   3.674  0.00  0.00    +0.119 C 
ATOM     10  C   UNL     1       0.942  -7.883   3.960  0.00  0.00    +0.278 C 
ATOM     11  N   UNL     1       1.385  -8.472   5.083  0.00  0.00    -0.123 NA
ATOM     12  C   UNL     1       0.574  -9.070   5.920  0.00  0.00    +0.336 C 
ATOM     13  O   UNL     1       1.102  -9.635   7.022  0.00  0.00    -0.250 OA
ATOM     14  N   UNL     1      -0.769  -9.151   5.738  0.00  0.00    -0.216 N 
ATOM     15  C   UNL     1      -1.364  -8.601   4.658  0.00  0.00    +0.261 C 
ATOM     16  O   UNL     1      -2.569  -8.671   4.500  0.00  0.00    -0.269 OA
ATOM     17  O   UNL     1       1.716  -7.333   3.196  0.00  0.00    -0.268 OA
ATOM     18  H   UNL     1      -3.030  -7.718   2.739  0.00  0.00    +0.170 HD
ENDROOT
BRANCH   1  22
ATOM     19  C   UNL     1      -1.358  -1.906   0.120  0.00  0.00    +0.013 A 
ATOM     20  C   UNL     1      -0.724  -2.666  -0.846  0.00  0.00    +0.022 A 
ATOM     21  C   UNL     1      -0.706  -4.044  -0.740  0.00  0.00    +0.007 A 
ATOM     22  C   UNL     1      -1.321  -4.663   0.332  0.00  0.00    -0.025 A 
ATOM     23  C   UNL     1      -1.954  -3.903   1.298  0.00  0.00    +0.007 A 
ATOM     24  C   UNL     1      -1.968  -2.525   1.194  0.00  0.00    +0.022 A 
BRANCH  19  25
ATOM     25  N   UNL     1      -1.376  -0.512   0.012  0.00  0.00    -0.394 NA
ATOM     26  H   UNL     1      -1.873  -0.121   0.799  0.00  0.00    +0.126 HD
BRANCH  25  28
ATOM     27  C   UNL     1      -0.019   1.526   0.010  0.00  0.00    +0.022 C 
ATOM     28  C   UNL     1       0.002  -0.004   0.002  0.00  0.00    +0.081 C 
ENDBRANCH  25  28
BRANCH  25  29
ATOM     29  C   UNL     1      -2.050  -0.126  -1.234  0.00  0.00    +0.081 C 
ATOM     30  C   UNL     1      -3.520  -0.547  -1.171  0.00  0.00    +0.022 C 
ENDBRANCH  25  29
ENDBRANCH  19  25
ENDBRANCH   1  22
BRANCH  14  31
ATOM     31  C   UNL     1      -1.589  -9.843   6.736  0.00  0.00    +0.153 C 
BRANCH  31  32
ATOM     32  C   UNL     1      -2.040  -8.860   7.785  0.00  0.00    -0.030 A 
ATOM     33  C   UNL     1      -1.262  -8.641   8.907  0.00  0.00    +0.005 A 
ATOM     34  C   UNL     1      -1.675  -7.740   9.870  0.00  0.00    +0.000 A 
ATOM     35  C   UNL     1      -2.866  -7.056   9.710  0.00  0.00    +0.000 A 
ATOM     36  C   UNL     1      -3.644  -7.274   8.589  0.00  0.00    +0.000 A 
ATOM     37  C   UNL     1      -3.228  -8.173   7.624  0.00  0.00    +0.005 A 
ENDBRANCH  31  32
ENDBRANCH  14  31
TORSDOF 6
