REMARK  Name = ZINC02130905
REMARK  6 active torsions:
REMARK  status: ('A' for Active; 'I' for Inactive)
REMARK    1  A    between atoms: C_1  and  C_2
REMARK    2  A    between atoms: C_2  and  N_3
REMARK    3  A    between atoms: C_4  and  O_27
REMARK    4  A    between atoms: C_5  and  C_13
REMARK    5  A    between atoms: N_8  and  C_11
REMARK    6  A    between atoms: C_11  and  C_12
REMARK                            x       y       z     vdW  Elec       q    Type
REMARK                         _______ _______ _______ _____ _____    ______ ____
ROOT
ATOM      1  C   UNL     1       3.702  -0.679  -0.037  0.00  0.00    +0.018 C 
ATOM      2  C   UNL     1       3.865  -1.465   1.243  0.00  0.00    +0.011 A 
ATOM      3  C   UNL     1       4.332  -2.737   1.269  0.00  0.00    -0.022 A 
ATOM      4  C   UNL     1       4.341  -3.159   2.652  0.00  0.00    +0.003 A 
ATOM      5  C   UNL     1       4.715  -4.350   3.281  0.00  0.00    +0.010 A 
ATOM      6  C   UNL     1       4.587  -4.399   4.647  0.00  0.00    +0.001 A 
ATOM      7  C   UNL     1       4.110  -3.324   5.380  0.00  0.00    +0.002 A 
ATOM      8  C   UNL     1       3.733  -2.133   4.785  0.00  0.00    +0.026 A 
ATOM      9  C   UNL     1       3.852  -2.055   3.399  0.00  0.00    +0.047 A 
ATOM     10  N   UNL     1       3.575  -1.054   2.512  0.00  0.00    -0.359 N 
ATOM     11  H   UNL     1       3.227  -0.180   2.749  0.00  0.00    +0.166 HD
ATOM     12  C   UNL     1       4.748  -3.497   0.035  0.00  0.00    +0.018 C 
ATOM     13  C   UNL     1       4.918  -2.488  -1.109  0.00  0.00    -0.076 C 
ATOM     14  N   UNL     1       3.728  -1.616  -1.181  0.00  0.00    +0.388 N 
ATOM     15  H   UNL     1       3.756  -1.079  -2.056  0.00  0.00    -0.084 HD
ATOM     16  H   UNL     1       2.882  -2.197  -1.162  0.00  0.00    -0.084 HD
ENDROOT
BRANCH   1  19
ATOM     17  N   UNL     1       1.128   2.050   0.002  0.00  0.00    -0.265 N 
ATOM     18  C   UNL     1       2.341   1.409  -0.013  0.00  0.00    +0.204 A 
ATOM     19  C   UNL     1       2.381   0.047  -0.021  0.00  0.00    +0.068 A 
ATOM     20  C   UNL     1       1.173  -0.672  -0.013  0.00  0.00    +0.262 A 
ATOM     21  O   UNL     1       1.183  -1.891  -0.020  0.00  0.00    -0.267 OA
ATOM     22  N   UNL     1       0.002  -0.004   0.002  0.00  0.00    -0.261 N 
ATOM     23  C   UNL     1      -0.016   1.341   0.009  0.00  0.00    +0.335 A 
ATOM     24  O   UNL     1      -1.082   1.926   0.018  0.00  0.00    -0.246 OA
BRANCH  17  26
ATOM     25  C   UNL     1       1.074   4.016   1.455  0.00  0.00    +0.027 C 
ATOM     26  C   UNL     1       1.078   3.514   0.010  0.00  0.00    +0.126 C 
ENDBRANCH  17  26
BRANCH  22  27
ATOM     27  C   UNL     1      -1.260  -0.748   0.010  0.00  0.00    +0.126 C 
ATOM     28  C   UNL     1      -1.712  -1.000  -1.430  0.00  0.00    +0.027 C 
ENDBRANCH  22  27
BRANCH  18  29
ATOM     29  O   UNL     1       3.487   2.123  -0.019  0.00  0.00    -0.493 OA
ATOM     30  H   UNL     1       3.354   3.081  -0.013  0.00  0.00    +0.294 HD
ENDBRANCH  18  29
ENDBRANCH   1  19
TORSDOF 4
