REMARK  Name = ZINC10058512
REMARK  10 active torsions:
REMARK  status: ('A' for Active; 'I' for Inactive)
REMARK    1  A    between atoms: C_1  and  C_2
REMARK    2  A    between atoms: C_2  and  C_4
REMARK    3  A    between atoms: C_2  and  S_16
REMARK    4  A    between atoms: N_6  and  C_7
REMARK    5  A    between atoms: S_16  and  C_17
REMARK    6  A    between atoms: N_30  and  C_31
REMARK    7  A    between atoms: C_31  and  C_32
REMARK    8  A    between atoms: C_32  and  C_33
REMARK    9  A    between atoms: C_33  and  C_34
REMARK   10  A    between atoms: C_33  and  C_35
REMARK                            x       y       z     vdW  Elec       q    Type
REMARK                         _______ _______ _______ _____ _____    ______ ____
ROOT
ATOM      1  C   UNL     1      -2.337  -0.070   1.563  0.00  0.00    +0.198 A 
ATOM      2  N   UNL     1      -1.685   0.623   2.464  0.00  0.00    -0.120 NA
ATOM      3  N   UNL     1      -2.543   0.841   3.548  0.00  0.00    -0.109 NA
ATOM      4  C   UNL     1      -3.697   0.274   3.276  0.00  0.00    +0.240 A 
ATOM      5  N   UNL     1      -3.600  -0.299   2.038  0.00  0.00    -0.256 N 
ATOM      6  C   UNL     1      -4.686  -0.973   1.482  0.00  0.00    +0.064 A 
ATOM      7  C   UNL     1      -4.596  -1.560   0.229  0.00  0.00    +0.027 A 
ATOM      8  C   UNL     1      -5.687  -2.223  -0.299  0.00  0.00    +0.002 A 
ATOM      9  C   UNL     1      -6.873  -2.306   0.413  0.00  0.00    +0.001 A 
ATOM     10  C   UNL     1      -6.980  -1.728   1.660  0.00  0.00    +0.015 A 
ATOM     11  C   UNL     1      -5.886  -1.057   2.204  0.00  0.00    +0.064 A 
ATOM     12  C   UNL     1      -5.959  -0.425   3.534  0.00  0.00    +0.263 A 
ATOM     13  O   UNL     1      -6.983  -0.478   4.189  0.00  0.00    -0.267 OA
ATOM     14  N   UNL     1      -4.868   0.203   4.017  0.00  0.00    -0.277 N 
ENDROOT
BRANCH   1  15
ATOM     15  S   UNL     1      -1.702  -0.605   0.009  0.00  0.00    -0.073 S 
BRANCH  15  17
ATOM     16  C   UNL     1      -0.010   1.544  -0.007  0.00  0.00    +0.029 C 
ATOM     17  C   UNL     1       0.003   0.014  -0.005  0.00  0.00    +0.137 C 
BRANCH  17  18
ATOM     18  C   UNL     1       0.708  -0.483  -1.241  0.00  0.00    +0.230 C 
ATOM     19  O   UNL     1       0.067  -0.778  -2.227  0.00  0.00    -0.274 OA
ATOM     20  N   UNL     1       2.051  -0.601  -1.250  0.00  0.00    -0.282 N 
ATOM     21  H   UNL     1       2.568  -0.304  -0.485  0.00  0.00    +0.155 HD
BRANCH  20  22
ATOM     22  C   UNL     1       2.699  -1.151  -2.364  0.00  0.00    +0.072 A 
ATOM     23  C   UNL     1       2.200  -0.926  -3.639  0.00  0.00    +0.029 A 
ATOM     24  C   UNL     1       2.839  -1.469  -4.737  0.00  0.00    +0.043 A 
ATOM     25  C   UNL     1       3.978  -2.237  -4.568  0.00  0.00    +0.161 A 
ATOM     26  C   UNL     1       4.480  -2.464  -3.296  0.00  0.00    +0.195 A 
ATOM     27  C   UNL     1       3.846  -1.917  -2.193  0.00  0.00    +0.182 A 
ATOM     28  F   UNL     1       4.337  -2.132  -0.953  0.00  0.00    -0.200 F 
ATOM     29  F   UNL     1       5.591  -3.215  -3.132  0.00  0.00    -0.199 F 
ATOM     30  F   UNL     1       4.601  -2.767  -5.643  0.00  0.00    -0.202 F 
ENDBRANCH  20  22
ENDBRANCH  17  18
ENDBRANCH  15  17
ENDBRANCH   1  15
BRANCH  14  31
ATOM     31  C   UNL     1      -4.926   0.838   5.336  0.00  0.00    +0.128 C 
BRANCH  31  32
ATOM     32  C   UNL     1      -5.404   2.283   5.186  0.00  0.00    +0.025 C 
BRANCH  32  33
ATOM     33  C   UNL     1      -5.465   2.946   6.564  0.00  0.00    -0.016 C 
ATOM     34  C   UNL     1      -4.053   3.045   7.145  0.00  0.00    +0.007 C 
ATOM     35  C   UNL     1      -6.061   4.348   6.430  0.00  0.00    +0.007 C 
ENDBRANCH  32  33
ENDBRANCH  31  32
ENDBRANCH  14  31
TORSDOF 7
