REMARK  Name = ZINC32718835
REMARK  4 active torsions:
REMARK  status: ('A' for Active; 'I' for Inactive)
REMARK    1  A    between atoms: C_1  and  C_2
REMARK    2  A    between atoms: C_10  and  C_11
REMARK    3  A    between atoms: N_13  and  N_14
REMARK    4  A    between atoms: C_15  and  C_17
REMARK                            x       y       z     vdW  Elec       q    Type
REMARK                         _______ _______ _______ _____ _____    ______ ____
ROOT
ATOM      1  C   UNL     1      -4.832   2.556   0.061  0.00  0.00    +0.296 C 
ATOM      2  O   UNL     1      -5.487   1.530   0.062  0.00  0.00    -0.265 OA
ATOM      3  N   UNL     1      -5.453   3.752   0.073  0.00  0.00    -0.228 N 
ATOM      4  H   UNL     1      -4.861   4.679   0.073  0.00  0.00    +0.173 HD
ENDROOT
BRANCH   1  14
ATOM      5  C   UNL     1      -3.160  -0.066   0.032  0.00  0.00    +0.048 C 
ATOM      6  C   UNL     1      -2.633   1.346   0.035  0.00  0.00    +0.008 A 
ATOM      7  C   UNL     1      -1.231   1.761   0.017  0.00  0.00    +0.027 A 
ATOM      8  C   UNL     1      -0.013   1.076   0.008  0.00  0.00    +0.012 A 
ATOM      9  C   UNL     1       1.159   1.777   0.001  0.00  0.00    +0.004 A 
ATOM     10  C   UNL     1       1.149   3.166   0.008  0.00  0.00    +0.042 A 
ATOM     11  C   UNL     1      -0.043   3.861   0.023  0.00  0.00    +0.166 A 
ATOM     12  C   UNL     1      -1.249   3.167   0.031  0.00  0.00    +0.171 A 
ATOM     13  O   UNL     1      -2.539   3.558   0.046  0.00  0.00    -0.447 OA
ATOM     14  C   UNL     1      -3.364   2.490   0.048  0.00  0.00    +0.195 A 
ATOM     15  F   UNL     1      -0.038   5.212   0.030  0.00  0.00    -0.202 F 
ENDBRANCH   1  14
BRANCH   3  16
ATOM     16  N   UNL     1      -6.853   3.815   0.086  0.00  0.00    -0.231 N 
ATOM     17  C   UNL     1      -7.474   5.011   0.099  0.00  0.00    +0.273 C 
ATOM     18  O   UNL     1      -6.821   6.033   0.098  0.00  0.00    -0.270 OA
ATOM     19  H   UNL     1      -7.445   2.888   0.087  0.00  0.00    +0.173 HD
BRANCH  17  20
ATOM     20  C   UNL     1      -8.979   5.078   0.113  0.00  0.00    +0.297 C 
ATOM     21  C   UNL     1      -9.511   4.498   1.430  0.00  0.00    +0.283 C 
ATOM     22  O   UNL     1     -10.940   4.589   1.416  0.00  0.00    -0.484 OA
ATOM     23  C   UNL     1     -11.473   5.775   1.014  0.00  0.00    +0.162 A 
ATOM     24  C   UNL     1     -12.799   6.059   1.307  0.00  0.00    +0.049 A 
ATOM     25  C   UNL     1     -13.356   7.258   0.902  0.00  0.00    +0.004 A 
ATOM     26  C   UNL     1     -12.593   8.177   0.206  0.00  0.00    +0.004 A 
ATOM     27  C   UNL     1     -11.271   7.900  -0.088  0.00  0.00    +0.049 A 
ATOM     28  C   UNL     1     -10.706   6.700   0.315  0.00  0.00    +0.163 A 
ATOM     29  O   UNL     1      -9.402   6.443   0.020  0.00  0.00    -0.472 OA
ENDBRANCH  17  20
ENDBRANCH   3  16
TORSDOF 3
