REMARK  Name = ZINC13062648
REMARK  8 active torsions:
REMARK  status: ('A' for Active; 'I' for Inactive)
REMARK    1  A    between atoms: C_1  and  C_2
REMARK    2  A    between atoms: C_14  and  C_15
REMARK    3  A    between atoms: C_15  and  O_17
REMARK    4  A    between atoms: O_17  and  C_18
REMARK    5  A    between atoms: C_18  and  C_19
REMARK    6  A    between atoms: C_19  and  C_21
REMARK    7  A    between atoms: N_28  and  C_36
REMARK    8  A    between atoms: C_29  and  C_30
REMARK                            x       y       z     vdW  Elec       q    Type
REMARK                         _______ _______ _______ _____ _____    ______ ____
ROOT
ATOM      1  C   UNL     1      -3.759   3.043   4.519  0.00  0.00    +0.312 C 
ENDROOT
BRANCH   1   2
ATOM      2  C   UNL     1      -3.610   2.589   3.090  0.00  0.00    +0.203 C 
ATOM      3  O   UNL     1      -4.585   2.527   2.368  0.00  0.00    -0.288 OA
BRANCH   2   4
ATOM      4  C   UNL     1      -2.337   2.235   2.590  0.00  0.00    +0.054 A 
ATOM      5  C   UNL     1      -1.060   2.253   3.326  0.00  0.00    +0.011 A 
ATOM      6  C   UNL     1      -0.706   2.590   4.631  0.00  0.00    +0.011 A 
ATOM      7  C   UNL     1       0.611   2.499   5.026  0.00  0.00    +0.001 A 
ATOM      8  C   UNL     1       1.582   2.074   4.131  0.00  0.00    +0.002 A 
ATOM      9  C   UNL     1       1.246   1.738   2.837  0.00  0.00    +0.026 A 
ATOM     10  C   UNL     1      -0.079   1.823   2.419  0.00  0.00    +0.050 A 
ATOM     11  N   UNL     1      -0.698   1.558   1.213  0.00  0.00    -0.342 N 
ATOM     12  C   UNL     1      -2.035   1.804   1.300  0.00  0.00    +0.061 A 
ATOM     13  C   UNL     1      -0.013   1.086   0.008  0.00  0.00    +0.149 C 
BRANCH  12  14
ATOM     14  C   UNL     1      -3.009   1.635   0.204  0.00  0.00    -0.001 A 
ATOM     15  C   UNL     1      -4.230   1.000   0.441  0.00  0.00    +0.010 A 
ATOM     16  C   UNL     1      -5.138   0.852  -0.587  0.00  0.00    +0.001 A 
ATOM     17  C   UNL     1      -4.835   1.319  -1.854  0.00  0.00    +0.000 A 
ATOM     18  C   UNL     1      -3.625   1.944  -2.098  0.00  0.00    +0.001 A 
ATOM     19  C   UNL     1      -2.711   2.105  -1.078  0.00  0.00    +0.010 A 
ENDBRANCH  12  14
ENDBRANCH   2   4
ENDBRANCH   1   2
BRANCH   1  20
ATOM     20  O   UNL     1      -5.153   3.347   4.788  0.00  0.00    -0.453 OA
BRANCH  20  21
ATOM     21  C   UNL     1      -5.458   3.770   6.032  0.00  0.00    +0.347 C 
ATOM     22  O   UNL     1      -4.583   3.882   6.869  0.00  0.00    -0.244 OA
BRANCH  21  36
ATOM     23  C   UNL     1      -6.431   4.729   8.746  0.00  0.00    +0.046 C 
ATOM     24  C   UNL     1      -7.348   4.529   7.567  0.00  0.00    -0.015 A 
ATOM     25  C   UNL     1      -8.714   4.790   7.691  0.00  0.00    +0.076 A 
ATOM     26  C   UNL     1      -9.492   4.564   6.532  0.00  0.00    +0.116 A 
ATOM     27  N   UNL     1     -10.800   4.769   6.524  0.00  0.00    -0.226 NA
ATOM     28  C   UNL     1     -11.450   5.190   7.581  0.00  0.00    +0.114 A 
ATOM     29  N   UNL     1     -10.812   5.445   8.751  0.00  0.00    -0.296 N 
ATOM     30  C   UNL     1      -9.475   5.266   8.866  0.00  0.00    +0.263 A 
ATOM     31  O   UNL     1      -8.908   5.492   9.920  0.00  0.00    -0.267 OA
ATOM     32  C   UNL     1     -11.764   5.911   9.776  0.00  0.00    +0.127 C 
ATOM     33  C   UNL     1     -13.160   5.505   9.262  0.00  0.00    +0.029 C 
ATOM     34  C   UNL     1     -12.935   5.464   7.734  0.00  0.00    +0.076 C 
ATOM     35  S   UNL     1      -8.296   4.015   5.340  0.00  0.00    -0.062 S 
ATOM     36  C   UNL     1      -6.845   4.095   6.375  0.00  0.00    +0.102 A 
ENDBRANCH  21  36
ENDBRANCH  20  21
ENDBRANCH   1  20
TORSDOF 6
