REMARK  Name = ZINC66982284
REMARK  2 active torsions:
REMARK  status: ('A' for Active; 'I' for Inactive)
REMARK    1  A    between atoms: C_4  and  C_7
REMARK    2  A    between atoms: N_17  and  C_18
REMARK                            x       y       z     vdW  Elec       q    Type
REMARK                         _______ _______ _______ _____ _____    ______ ____
ROOT
ATOM      1  C   UNL     1       2.864  -0.455  -2.505  0.00  0.00    +0.219 C 
ATOM      2  O   UNL     1       3.219   0.339  -3.351  0.00  0.00    -0.275 OA
ATOM      3  N   UNL     1       3.091  -1.772  -2.679  0.00  0.00    -0.298 N 
ATOM      4  C   UNL     1       2.557  -2.755  -1.726  0.00  0.00    +0.127 C 
ATOM      5  C   UNL     1       1.721  -3.782  -2.498  0.00  0.00    +0.128 C 
ATOM      6  N   UNL     1       2.506  -4.261  -3.644  0.00  0.00    -0.283 N 
ATOM      7  C   UNL     1       3.039  -3.278  -4.598  0.00  0.00    +0.128 C 
ATOM      8  C   UNL     1       3.871  -2.251  -3.828  0.00  0.00    +0.127 C 
ATOM      9  C   UNL     1       2.733  -5.578  -3.818  0.00  0.00    +0.303 C 
ATOM     10  O   UNL     1       2.211  -6.388  -3.077  0.00  0.00    -0.253 OA
ATOM     11  N   UNL     1       3.539  -5.997  -4.814  0.00  0.00    -0.295 N 
ATOM     12  H   UNL     1       3.896  -5.358  -5.450  0.00  0.00    +0.151 HD
ENDROOT
BRANCH  11  13
ATOM     13  C   UNL     1       3.875  -7.418  -4.936  0.00  0.00    +0.097 C 
ATOM     14  C   UNL     1       2.775  -8.136  -5.735  0.00  0.00    +0.046 C 
ATOM     15  C   UNL     1       3.298  -9.550  -6.117  0.00  0.00    +0.168 C 
ATOM     16  S   UNL     1       5.042  -9.155  -6.564  0.00  0.00    -0.029 S 
ATOM     17  O   UNL     1       5.116  -8.905  -7.960  0.00  0.00    -0.174 OA
ATOM     18  O   UNL     1       5.900 -10.126  -5.981  0.00  0.00    -0.174 OA
ATOM     19  C   UNL     1       5.234  -7.564  -5.662  0.00  0.00    +0.188 C 
ENDBRANCH  11  13
BRANCH   1  23
ATOM     20  C   UNL     1       0.539   2.027   0.137  0.00  0.00    +0.000 C 
ATOM     21  C   UNL     1       2.038   1.884   0.412  0.00  0.00    +0.001 C 
ATOM     22  C   UNL     1       2.744   1.390  -0.852  0.00  0.00    +0.013 C 
ATOM     23  C   UNL     1       2.168   0.032  -1.260  0.00  0.00    +0.075 C 
ATOM     24  C   UNL     1       0.670   0.175  -1.535  0.00  0.00    +0.013 C 
ATOM     25  C   UNL     1      -0.036   0.669  -0.271  0.00  0.00    +0.001 C 
ENDBRANCH   1  23
TORSDOF 2
