REMARK  Name = ZINC10785573
REMARK  7 active torsions:
REMARK  status: ('A' for Active; 'I' for Inactive)
REMARK    1  A    between atoms: C_1  and  C_2
REMARK    2  A    between atoms: N_11  and  C_12
REMARK    3  A    between atoms: C_12  and  C_13
REMARK    4  A    between atoms: C_13  and  N_54
REMARK    5  A    between atoms: C_19  and  C_21
REMARK    6  A    between atoms: C_23  and  N_30
REMARK    7  A    between atoms: C_25  and  N_27
REMARK                            x       y       z     vdW  Elec       q    Type
REMARK                         _______ _______ _______ _____ _____    ______ ____
ROOT
ATOM      1  C   UNL     1      -6.176   1.496  -0.076  0.00  0.00    +0.046 C 
ATOM      2  C   UNL     1      -6.082   2.999  -0.076  0.00  0.00    -0.023 A 
ATOM      3  C   UNL     1      -7.228   3.750  -0.117  0.00  0.00    +0.025 A 
ATOM      4  C   UNL     1      -7.187   5.138  -0.119  0.00  0.00    +0.042 A 
ATOM      5  C   UNL     1      -5.960   5.779  -0.078  0.00  0.00    +0.037 A 
ATOM      6  C   UNL     1      -4.808   5.034  -0.038  0.00  0.00    +0.042 A 
ATOM      7  C   UNL     1      -4.813   3.620  -0.035  0.00  0.00    +0.083 A 
ATOM      8  N   UNL     1      -3.598   3.032   0.008  0.00  0.00    -0.224 NA
ATOM      9  C   UNL     1      -2.481   3.721   0.045  0.00  0.00    +0.168 A 
ATOM     10  S   UNL     1      -3.073   5.407   0.028  0.00  0.00    -0.052 S 
ATOM     11  N   UNL     1      -1.177   3.259   0.091  0.00  0.00    -0.248 N 
ATOM     12  C   UNL     1      -0.931   1.934   0.103  0.00  0.00    +0.252 C 
ATOM     13  O   UNL     1      -1.846   1.145  -0.035  0.00  0.00    -0.270 OA
ATOM     14 CL   UNL     1      -8.657   6.059  -0.172  0.00  0.00    -0.083 Cl
ENDROOT
BRANCH  12  15
ATOM     15  C   UNL     1       0.450   1.440   0.283  0.00  0.00    +0.042 A 
ATOM     16  C   UNL     1       1.499   2.012  -0.437  0.00  0.00    +0.046 A 
ATOM     17  C   UNL     1       2.785   1.543  -0.268  0.00  0.00    +0.129 A 
ATOM     18  C   UNL     1       3.036   0.506   0.614  0.00  0.00    +0.065 A 
ATOM     19  C   UNL     1       2.001  -0.066   1.331  0.00  0.00    +0.129 A 
ATOM     20  C   UNL     1       0.710   0.394   1.171  0.00  0.00    +0.046 A 
BRANCH  19  21
ATOM     21  N   UNL     1       2.279  -1.175   2.272  0.00  0.00    +0.057 N 
ATOM     22  O   UNL     1       1.368  -1.679   2.904  0.00  0.00    -0.126 OA
ATOM     23  O   UNL     1       3.417  -1.582   2.413  0.00  0.00    -0.126 OA
ENDBRANCH  19  21
BRANCH  17  24
ATOM     24  N   UNL     1       3.899   2.150  -1.031  0.00  0.00    +0.057 N 
ATOM     25  O   UNL     1       5.035   1.736  -0.882  0.00  0.00    -0.126 OA
ATOM     26  O   UNL     1       3.680   3.062  -1.807  0.00  0.00    -0.126 OA
ENDBRANCH  17  24
ENDBRANCH  12  15
BRANCH  11  27
ATOM     27  C   UNL     1      -0.063   4.210   0.127  0.00  0.00    +0.097 C 
BRANCH  27  28
ATOM     28  C   UNL     1       0.240   4.694  -1.292  0.00  0.00    -0.059 C 
BRANCH  28  34
ATOM     29  C   UNL     1       1.185   6.792  -0.533  0.00  0.00    -0.050 C 
ATOM     30  C   UNL     1       2.471   7.621  -0.487  0.00  0.00    +0.141 C 
ATOM     31  O   UNL     1       2.921   7.867  -1.823  0.00  0.00    -0.383 OA
ATOM     32  C   UNL     1       3.176   6.676  -2.573  0.00  0.00    +0.141 C 
ATOM     33  C   UNL     1       1.897   5.837  -2.639  0.00  0.00    -0.050 C 
ATOM     34  N   UNL     1       1.457   5.534  -1.261  0.00  0.00    +0.384 N 
ATOM     35  H   UNL     1       2.204   5.022  -0.777  0.00  0.00    -0.082 HD
ENDBRANCH  28  34
ENDBRANCH  27  28
ENDBRANCH  11  27
TORSDOF 6
