REMARK  Name = ZINC36732770
REMARK  6 active torsions:
REMARK  status: ('A' for Active; 'I' for Inactive)
REMARK    1  A    between atoms: C_1  and  C_2
REMARK    2  A    between atoms: N_4  and  C_5
REMARK    3  A    between atoms: C_9  and  N_11
REMARK    4  A    between atoms: C_12  and  S_16
REMARK    5  A    between atoms: S_16  and  C_17
REMARK    6  A    between atoms: C_17  and  C_18
REMARK                            x       y       z     vdW  Elec       q    Type
REMARK                         _______ _______ _______ _____ _____    ______ ____
ROOT
ATOM      1  N   UNL     1      -3.336  -5.001   0.164  0.00  0.00    -0.187 N 
ATOM      2  C   UNL     1      -3.515  -6.232  -0.391  0.00  0.00    +0.214 A 
ATOM      3  N   UNL     1      -4.763  -6.579  -0.160  0.00  0.00    -0.101 NA
ATOM      4  N   UNL     1      -5.372  -5.658   0.496  0.00  0.00    -0.022 NA
ATOM      5  N   UNL     1      -4.577  -4.673   0.737  0.00  0.00    -0.038 NA
ENDROOT
BRANCH   1  10
ATOM      6  C   UNL     1      -1.081  -2.089   0.091  0.00  0.00    +0.035 A 
ATOM      7  C   UNL     1       0.156  -2.715   0.178  0.00  0.00    +0.023 A 
ATOM      8  C   UNL     1       0.230  -4.092   0.259  0.00  0.00    +0.004 A 
ATOM      9  C   UNL     1      -0.925  -4.851   0.255  0.00  0.00    +0.028 A 
ATOM     10  C   UNL     1      -2.164  -4.230   0.169  0.00  0.00    +0.072 A 
ATOM     11  C   UNL     1      -2.243  -2.847   0.093  0.00  0.00    +0.051 A 
BRANCH   6  15
ATOM     12  C   UNL     1      -2.194   1.470   0.609  0.00  0.00    +0.109 C 
ATOM     13  C   UNL     1      -2.169  -0.037   0.608  0.00  0.00    +0.214 C 
ATOM     14  O   UNL     1      -3.061  -0.658   1.146  0.00  0.00    -0.276 OA
ATOM     15  N   UNL     1      -1.156  -0.694   0.009  0.00  0.00    -0.286 N 
ATOM     16  H   UNL     1      -0.478  -0.200  -0.478  0.00  0.00    +0.155 HD
ENDBRANCH   6  15
ENDBRANCH   1  10
BRANCH   2  17
ATOM     17  S   UNL     1      -2.307  -7.179  -1.256  0.00  0.00    -0.075 S 
BRANCH  17  18
ATOM     18  C   UNL     1      -3.189  -8.693  -1.724  0.00  0.00    +0.173 C 
BRANCH  18  19
ATOM     19  C   UNL     1      -2.256  -9.604  -2.481  0.00  0.00    +0.229 C 
ATOM     20  O   UNL     1      -1.110  -9.264  -2.684  0.00  0.00    -0.275 OA
ATOM     21  N   UNL     1      -2.696 -10.795  -2.932  0.00  0.00    -0.264 N 
ATOM     22  C   UNL     1      -1.839 -11.632  -3.628  0.00  0.00    +0.165 A 
ATOM     23  N   UNL     1      -0.578 -11.445  -3.938  0.00  0.00    -0.225 NA
ATOM     24  C   UNL     1       0.144 -12.356  -4.627  0.00  0.00    +0.080 A 
ATOM     25  C   UNL     1       1.499 -12.278  -5.023  0.00  0.00    +0.032 A 
ATOM     26  C   UNL     1       2.084 -13.299  -5.724  0.00  0.00    +0.040 A 
ATOM     27  C   UNL     1       1.374 -14.441  -6.072  0.00  0.00    +0.125 A 
ATOM     28  C   UNL     1       0.044 -14.551  -5.701  0.00  0.00    +0.055 A 
ATOM     29  C   UNL     1      -0.548 -13.532  -4.997  0.00  0.00    +0.043 A 
ATOM     30  S   UNL     1      -2.168 -13.245  -4.325  0.00  0.00    -0.052 S 
ATOM     31  F   UNL     1       1.973 -15.434  -6.765  0.00  0.00    -0.205 F 
ATOM     32  H   UNL     1      -3.613 -11.066  -2.770  0.00  0.00    +0.157 HD
ENDBRANCH  18  19
ENDBRANCH  17  18
ENDBRANCH   2  17
TORSDOF 5
