REMARK  Name = ZINC15981372
REMARK  7 active torsions:
REMARK  status: ('A' for Active; 'I' for Inactive)
REMARK    1  A    between atoms: C_1  and  C_2
REMARK    2  A    between atoms: C_2  and  C_4
REMARK    3  A    between atoms: C_2  and  N_14
REMARK    4  A    between atoms: C_15  and  C_17
REMARK    5  A    between atoms: N_20  and  S_23
REMARK    6  A    between atoms: S_23  and  C_26
REMARK    7  A    between atoms: C_28  and  N_33
REMARK                            x       y       z     vdW  Elec       q    Type
REMARK                         _______ _______ _______ _____ _____    ______ ____
ROOT
ATOM      1  C   UNL     1       0.129   1.721  -0.002  0.00  0.00    +0.077 C 
ATOM      2  C   UNL     1       1.582   2.196   0.062  0.00  0.00    +0.030 C 
ATOM      3  C   UNL     1       2.244   1.632   1.323  0.00  0.00    +0.110 C 
ATOM      4  N   UNL     1       2.086   0.172   1.328  0.00  0.00    -0.176 NA
ATOM      5  C   UNL     1       0.738  -0.394   1.181  0.00  0.00    +0.110 C 
ATOM      6  C   UNL     1       0.093   0.193  -0.079  0.00  0.00    +0.030 C 
ENDROOT
BRANCH   1   8
ATOM      7  N   UNL     1      -0.622   3.637  -1.374  0.00  0.00    -0.312 N 
ATOM      8  C   UNL     1      -0.535   2.301  -1.224  0.00  0.00    +0.216 C 
ATOM      9  O   UNL     1      -0.993   1.565  -2.073  0.00  0.00    -0.276 OA
ATOM     10  H   UNL     1      -0.256   4.226  -0.695  0.00  0.00    +0.149 HD
BRANCH   7  12
ATOM     11  C   UNL     1      -2.778   4.277  -2.334  0.00  0.00    +0.028 C 
ATOM     12  C   UNL     1      -1.267   4.201  -2.562  0.00  0.00    +0.076 C 
BRANCH  12  13
ATOM     13  C   UNL     1      -0.720   5.606  -2.822  0.00  0.00    -0.010 C 
ATOM     14  C   UNL     1       0.791   5.530  -3.050  0.00  0.00    +0.012 C 
ATOM     15  C   UNL     1       1.339   6.935  -3.310  0.00  0.00    -0.010 C 
ATOM     16  C   UNL     1       0.664   7.524  -4.550  0.00  0.00    +0.007 C 
ATOM     17  C   UNL     1      -0.847   7.600  -4.322  0.00  0.00    -0.010 C 
ATOM     18  C   UNL     1      -1.394   6.195  -4.062  0.00  0.00    +0.012 C 
ATOM     19  C   UNL     1      -1.136   8.492  -3.113  0.00  0.00    +0.007 C 
ATOM     20  C   UNL     1      -0.461   7.903  -1.872  0.00  0.00    -0.010 C 
ATOM     21  C   UNL     1       1.050   7.827  -2.100  0.00  0.00    +0.007 C 
ATOM     22  C   UNL     1      -1.009   6.498  -1.612  0.00  0.00    +0.012 C 
ENDBRANCH  12  13
ENDBRANCH   7  12
ENDBRANCH   1   8
BRANCH   4  23
ATOM     23  S   UNL     1       3.402  -0.819   1.497  0.00  0.00    +0.062 S 
ATOM     24  O   UNL     1       4.458  -0.010   1.998  0.00  0.00    -0.153 OA
ATOM     25  O   UNL     1       2.949  -1.984   2.173  0.00  0.00    -0.153 OA
BRANCH  23  26
ATOM     26  C   UNL     1       3.882  -1.329  -0.120  0.00  0.00    +0.126 A 
ATOM     27  C   UNL     1       3.746  -2.651  -0.497  0.00  0.00    +0.062 A 
ATOM     28  C   UNL     1       4.117  -3.050  -1.767  0.00  0.00    +0.128 A 
ATOM     29  C   UNL     1       4.635  -2.128  -2.658  0.00  0.00    +0.034 A 
ATOM     30  C   UNL     1       4.777  -0.807  -2.280  0.00  0.00    +0.024 A 
ATOM     31  C   UNL     1       4.401  -0.406  -1.010  0.00  0.00    +0.067 A 
ATOM     32 CL   UNL     1       4.579   1.254  -0.535  0.00  0.00    -0.082 Cl
BRANCH  28  33
ATOM     33  N   UNL     1       3.966  -4.466  -2.172  0.00  0.00    +0.056 N 
ATOM     34  O   UNL     1       4.298  -4.818  -3.289  0.00  0.00    -0.126 OA
ATOM     35  O   UNL     1       3.510  -5.278  -1.387  0.00  0.00    -0.126 OA
ENDBRANCH  28  33
ENDBRANCH  23  26
ENDBRANCH   4  23
TORSDOF 6
