REMARK  Name = ZINC50460570
REMARK  6 active torsions:
REMARK  status: ('A' for Active; 'I' for Inactive)
REMARK    1  A    between atoms: C_1  and  C_2
REMARK    2  A    between atoms: C_7  and  C_8
REMARK    3  A    between atoms: C_7  and  C_9
REMARK    4  A    between atoms: C_11  and  N_13
REMARK    5  A    between atoms: C_14  and  C_16
REMARK    6  A    between atoms: C_19  and  N_21
REMARK                            x       y       z     vdW  Elec       q    Type
REMARK                         _______ _______ _______ _____ _____    ______ ____
ROOT
ATOM      1  N   UNL     1      -0.124  -0.708  -2.377  0.00  0.00    -0.312 N 
ATOM      2  C   UNL     1      -0.275   0.393  -3.139  0.00  0.00    +0.215 C 
ATOM      3  O   UNL     1       0.308   1.416  -2.849  0.00  0.00    -0.276 OA
ATOM      4  H   UNL     1      -0.590  -1.527  -2.609  0.00  0.00    +0.149 HD
ENDROOT
BRANCH   1  14
ATOM      5  C   UNL     1      -0.267   1.301   0.200  0.00  0.00    +0.013 C 
ATOM      6  C   UNL     1      -0.061  -0.208   0.056  0.00  0.00    -0.008 C 
ATOM      7  C   UNL     1      -1.358  -1.075   0.051  0.00  0.00    +0.009 C 
ATOM      8  C   UNL     1      -0.877  -2.499   0.412  0.00  0.00    +0.005 C 
ATOM      9  C   UNL     1       0.665  -2.358   0.601  0.00  0.00    -0.003 C 
ATOM     10  C   UNL     1       0.753  -0.910   1.199  0.00  0.00    -0.025 C 
ATOM     11  C   UNL     1       2.195  -0.405   1.269  0.00  0.00    +0.012 C 
ATOM     12  C   UNL     1       0.048  -0.805   2.553  0.00  0.00    +0.012 C 
ATOM     13  C   UNL     1       1.215  -2.131  -0.840  0.00  0.00    +0.027 C 
ATOM     14  C   UNL     1       0.744  -0.669  -1.197  0.00  0.00    +0.080 C 
ENDBRANCH   1  14
BRANCH   2  15
ATOM     15  C   UNL     1      -1.167   0.353  -4.353  0.00  0.00    +0.059 C 
ATOM     16  C   UNL     1      -0.498   0.448  -5.725  0.00  0.00    -0.005 C 
ATOM     17  C   UNL     1      -1.296   1.634  -5.178  0.00  0.00    -0.063 C 
BRANCH  17  18
ATOM     18  N   UNL     1      -0.539   2.810  -4.727  0.00  0.00    +0.380 N 
ATOM     19  H   UNL     1       0.447   2.594  -4.722  0.00  0.00    -0.090 HD
ATOM     20  H   UNL     1      -0.711   3.581  -5.355  0.00  0.00    -0.090 HD
ATOM     21  H   UNL     1      -0.833   3.062  -3.796  0.00  0.00    -0.090 HD
ENDBRANCH  17  18
ENDBRANCH   2  15
TORSDOF 3
