REMARK  Name = ZINC39271971
REMARK  5 active torsions:
REMARK  status: ('A' for Active; 'I' for Inactive)
REMARK    1  A    between atoms: C_1  and  C_2
REMARK    2  A    between atoms: C_2  and  C_4
REMARK    3  A    between atoms: C_2  and  N_21
REMARK    4  A    between atoms: C_22  and  C_24
REMARK    5  A    between atoms: C_24  and  C_25
REMARK                            x       y       z     vdW  Elec       q    Type
REMARK                         _______ _______ _______ _____ _____    ______ ____
ROOT
ATOM      1  C   UNL     1      -1.391  -0.566   0.128  0.00  0.00    +0.236 C 
ATOM      2  O   UNL     1      -1.701  -1.203   1.113  0.00  0.00    -0.274 OA
ATOM      3  N   UNL     1      -2.294  -0.354  -0.850  0.00  0.00    -0.300 N 
ATOM      4  C   UNL     1      -1.904   0.322  -2.095  0.00  0.00    +0.106 C 
ATOM      5  C   UNL     1      -2.849   1.504  -2.329  0.00  0.00    +0.009 C 
ATOM      6  C   UNL     1      -4.296   1.010  -2.307  0.00  0.00    -0.037 C 
ATOM      7  C   UNL     1      -4.613   0.399  -0.941  0.00  0.00    +0.009 C 
ATOM      8  C   UNL     1      -3.685  -0.801  -0.694  0.00  0.00    +0.106 C 
ATOM      9  C   UNL     1      -5.243   2.178  -2.581  0.00  0.00    +0.140 C 
ATOM     10  C   UNL     1      -4.940   2.628  -4.008  0.00  0.00    +0.042 C 
ATOM     11  N   UNL     1      -4.651   3.868  -3.933  0.00  0.00    -0.243 NA
ATOM     12  C   UNL     1      -4.625   4.301  -2.649  0.00  0.00    +0.216 C 
ATOM     13  N   UNL     1      -4.939   3.364  -1.779  0.00  0.00    -0.264 NA
ATOM     14  C   UNL     1      -4.900   1.645  -5.150  0.00  0.00    +0.034 C 
ATOM     15  C   UNL     1      -4.030   0.469  -4.667  0.00  0.00    -0.076 C 
ATOM     16  N   UNL     1      -4.488  -0.001  -3.357  0.00  0.00    +0.385 N 
ATOM     17  H   UNL     1      -3.974  -0.833  -3.110  0.00  0.00    -0.085 HD
ATOM     18  H   UNL     1      -5.469  -0.229  -3.416  0.00  0.00    -0.085 HD
ENDROOT
BRANCH   1  20
ATOM     19  C   UNL     1       0.023   1.440   0.482  0.00  0.00    +0.038 C 
ATOM     20  C   UNL     1       0.004  -0.011  -0.002  0.00  0.00    +0.156 C 
BRANCH  20  21
ATOM     21  N   UNL     1       0.925  -0.809   0.812  0.00  0.00    -0.304 N 
ATOM     22  C   UNL     1       2.235  -0.857   0.497  0.00  0.00    +0.218 C 
ATOM     23  O   UNL     1       2.651  -0.239  -0.460  0.00  0.00    -0.275 OA
ATOM     24  H   UNL     1       0.592  -1.303   1.577  0.00  0.00    +0.149 HD
BRANCH  22  25
ATOM     25  C   UNL     1       3.182  -1.678   1.334  0.00  0.00    +0.130 C 
BRANCH  25  26
ATOM     26  C   UNL     1       4.576  -1.562   0.774  0.00  0.00    -0.039 A 
ATOM     27  C   UNL     1       5.010  -2.455  -0.188  0.00  0.00    +0.005 A 
ATOM     28  C   UNL     1       6.289  -2.350  -0.702  0.00  0.00    +0.020 A 
ATOM     29  C   UNL     1       7.134  -1.351  -0.254  0.00  0.00    +0.041 A 
ATOM     30  C   UNL     1       6.699  -0.458   0.709  0.00  0.00    +0.020 A 
ATOM     31  C   UNL     1       5.418  -0.560   1.218  0.00  0.00    +0.005 A 
ATOM     32 CL   UNL     1       8.741  -1.218  -0.899  0.00  0.00    -0.084 Cl
ENDBRANCH  25  26
ENDBRANCH  22  25
ENDBRANCH  20  21
ENDBRANCH   1  20
TORSDOF 4
