REMARK  Name = ZINC06060763
REMARK  7 active torsions:
REMARK  status: ('A' for Active; 'I' for Inactive)
REMARK    1  A    between atoms: C_1  and  C_2
REMARK    2  A    between atoms: C_5  and  N_9
REMARK    3  A    between atoms: C_6  and  C_8
REMARK    4  A    between atoms: C_13  and  C_15
REMARK    5  A    between atoms: C_15  and  O_16
REMARK    6  A    between atoms: O_16  and  C_17
REMARK    7  A    between atoms: C_21  and  N_23
REMARK                            x       y       z     vdW  Elec       q    Type
REMARK                         _______ _______ _______ _____ _____    ______ ____
ROOT
ATOM      1  N   UNL     1       2.898  10.363   0.027  0.00  0.00    -0.269 N 
ATOM      2  C   UNL     1       1.841   9.527   0.030  0.00  0.00    +0.310 C 
ATOM      3  O   UNL     1       0.712   9.976   0.051  0.00  0.00    -0.252 OA
ATOM      4  N   UNL     1       2.036   8.193   0.008  0.00  0.00    -0.237 N 
ATOM      5  C   UNL     1       0.979   7.358   0.011  0.00  0.00    +0.258 C 
ATOM      6  O   UNL     1      -0.148   7.805   0.032  0.00  0.00    -0.272 OA
ATOM      7  H   UNL     1       3.798  10.006   0.093  0.00  0.00    +0.156 HD
ATOM      8  H   UNL     1       2.937   7.835  -0.009  0.00  0.00    +0.159 HD
ENDROOT
BRANCH   1  13
ATOM      9  C   UNL     1       2.086  15.964  -0.364  0.00  0.00    +0.044 C 
ATOM     10  C   UNL     1       2.302  14.476  -0.260  0.00  0.00    -0.050 A 
ATOM     11  C   UNL     1       1.349  13.604  -0.756  0.00  0.00    +0.005 A 
ATOM     12  C   UNL     1       1.544  12.240  -0.662  0.00  0.00    +0.024 A 
ATOM     13  C   UNL     1       2.698  11.744  -0.069  0.00  0.00    +0.038 A 
ATOM     14  C   UNL     1       3.650  12.622   0.432  0.00  0.00    -0.029 A 
ATOM     15  C   UNL     1       3.452  13.985   0.330  0.00  0.00    +0.008 A 
ATOM     16  C   UNL     1       4.901  12.088   1.081  0.00  0.00    +0.045 C 
ENDBRANCH   1  13
BRANCH   5  17
ATOM     17  C   UNL     1       1.196   5.867  -0.013  0.00  0.00    +0.325 C 
BRANCH  17  18
ATOM     18  O   UNL     1      -0.068   5.200  -0.006  0.00  0.00    -0.483 OA
BRANCH  18  19
ATOM     19  C   UNL     1      -0.049   3.842  -0.025  0.00  0.00    +0.123 A 
ATOM     20  C   UNL     1       1.161   3.163  -0.051  0.00  0.00    +0.046 A 
ATOM     21  C   UNL     1       1.178   1.783  -0.070  0.00  0.00    +0.006 A 
ATOM     22  C   UNL     1      -0.011   1.076  -0.065  0.00  0.00    +0.033 A 
ATOM     23  C   UNL     1      -1.218   1.749  -0.045  0.00  0.00    +0.130 A 
ATOM     24  C   UNL     1      -1.240   3.130  -0.019  0.00  0.00    +0.078 A 
BRANCH  23  25
ATOM     25  N   UNL     1      -2.489   0.990  -0.046  0.00  0.00    +0.057 N 
ATOM     26  O   UNL     1      -2.470  -0.228  -0.064  0.00  0.00    -0.126 OA
ATOM     27  O   UNL     1      -3.553   1.582  -0.029  0.00  0.00    -0.126 OA
ENDBRANCH  23  25
ENDBRANCH  18  19
ENDBRANCH  17  18
ENDBRANCH   5  17
TORSDOF 5
