REMARK  Name = ZINC37737458
REMARK  3 active torsions:
REMARK  status: ('A' for Active; 'I' for Inactive)
REMARK    1  A    between atoms: C_1  and  C_2
REMARK    2  A    between atoms: C_6  and  C_11
REMARK    3  A    between atoms: N_16  and  N_17
REMARK                            x       y       z     vdW  Elec       q    Type
REMARK                         _______ _______ _______ _____ _____    ______ ____
ROOT
ATOM      1  C   UNL     1      -1.039   1.382   0.091  0.00  0.00    +0.088 C 
ATOM      2  C   UNL     1      -0.446  -0.001   0.010  0.00  0.00    +0.129 A 
ATOM      3  N   UNL     1      -0.420  -0.625  -1.154  0.00  0.00    -0.216 NA
ATOM      4  C   UNL     1       0.088  -1.840  -1.290  0.00  0.00    +0.144 A 
ATOM      5  C   UNL     1       0.624  -2.499  -0.151  0.00  0.00    +0.057 A 
ATOM      6  C   UNL     1       1.233  -3.821  -0.041  0.00  0.00    +0.008 A 
ATOM      7  C   UNL     1       1.676  -4.235   1.172  0.00  0.00    +0.057 A 
ATOM      8  S   UNL     1       1.299  -2.861   2.243  0.00  0.00    -0.076 S 
ATOM      9  C   UNL     1       0.561  -1.771   1.055  0.00  0.00    +0.114 A 
ATOM     10  N   UNL     1       0.041  -0.560   1.101  0.00  0.00    -0.225 NA
ATOM     11  N   UNL     1       0.097  -2.461  -2.526  0.00  0.00    -0.267 N 
ATOM     12  H   UNL     1       0.144  -3.428  -2.582  0.00  0.00    +0.167 HD
ENDROOT
BRANCH   6  13
ATOM     13  C   UNL     1       1.363  -4.692  -1.228  0.00  0.00    +0.021 A 
ATOM     14  C   UNL     1       0.887  -5.961  -1.423  0.00  0.00    +0.016 A 
ATOM     15  C   UNL     1       1.135  -6.583  -2.628  0.00  0.00    +0.008 A 
ATOM     16  C   UNL     1       1.838  -5.921  -3.581  0.00  0.00    +0.046 A 
ATOM     17  S   UNL     1       2.173  -4.360  -2.783  0.00  0.00    -0.097 S 
ENDBRANCH   6  13
BRANCH  11  18
ATOM     18  N   UNL     1       0.040  -1.712  -3.667  0.00  0.00    -0.255 NA
ATOM     19  H   UNL     1       0.054  -2.300  -4.486  0.00  0.00    +0.140 HD
ATOM     20  H   UNL     1      -0.772  -1.113  -3.666  0.00  0.00    +0.140 HD
ENDBRANCH  11  18
TORSDOF 2
