REMARK  Name = ZINC29681443
REMARK  12 active torsions:
REMARK  status: ('A' for Active; 'I' for Inactive)
REMARK    1  A    between atoms: C_1  and  C_2
REMARK    2  A    between atoms: C_2  and  C_4
REMARK    3  A    between atoms: C_2  and  N_22
REMARK    4  A    between atoms: C_4  and  O_6
REMARK    5  A    between atoms: O_6  and  C_7
REMARK    6  A    between atoms: C_7  and  C_9
REMARK    7  A    between atoms: C_7  and  C_10
REMARK    8  A    between atoms: N_15  and  C_16
REMARK    9  A    between atoms: C_23  and  C_25
REMARK   10  A    between atoms: C_25  and  C_26
REMARK   11  A    between atoms: C_25  and  C_27
REMARK   12  A    between atoms: C_25  and  C_28
REMARK                            x       y       z     vdW  Elec       q    Type
REMARK                         _______ _______ _______ _____ _____    ______ ____
ROOT
ATOM      1  C   UNL     1       5.979   1.246   1.291  0.00  0.00    +0.259 C 
ATOM      2  C   UNL     1       6.032   2.591   2.019  0.00  0.00    +0.062 C 
ENDROOT
BRANCH   1   3
ATOM      3  C   UNL     1       4.565   0.725   1.301  0.00  0.00    +0.261 C 
ATOM      4  O   UNL     1       4.300  -0.295   1.901  0.00  0.00    -0.271 OA
ATOM      5  N   UNL     1       3.596   1.392   0.645  0.00  0.00    -0.237 N 
ATOM      6  C   UNL     1       2.331   0.926   0.654  0.00  0.00    +0.306 C 
ATOM      7  O   UNL     1       2.065  -0.097   1.255  0.00  0.00    -0.252 OA
ATOM      8  N   UNL     1       1.362   1.593  -0.002  0.00  0.00    -0.296 N 
ATOM      9  H   UNL     1       3.836   2.317   0.101  0.00  0.00    +0.159 HD
ATOM     10  H   UNL     1       1.602   2.518  -0.546  0.00  0.00    +0.151 HD
BRANCH   8  11
ATOM     11  C   UNL     1      -0.013   1.086   0.008  0.00  0.00    +0.074 C 
ATOM     12  C   UNL     1      -0.729   1.579   1.267  0.00  0.00    +0.022 C 
ATOM     13  C   UNL     1      -2.164   1.050   1.278  0.00  0.00    +0.002 C 
ATOM     14  C   UNL     1      -2.904   1.556   0.038  0.00  0.00    +0.000 C 
ATOM     15  C   UNL     1      -2.188   1.063  -1.221  0.00  0.00    +0.002 C 
ATOM     16  C   UNL     1      -0.753   1.593  -1.232  0.00  0.00    +0.022 C 
ENDBRANCH   8  11
ENDBRANCH   1   3
BRANCH   1  17
ATOM     17  O   UNL     1       6.850   0.298   1.962  0.00  0.00    -0.451 OA
BRANCH  17  18
ATOM     18  C   UNL     1       8.125   0.242   1.546  0.00  0.00    +0.328 C 
ATOM     19  O   UNL     1       8.501   0.961   0.651  0.00  0.00    -0.249 OA
BRANCH  18  21
ATOM     20  C   UNL     1       9.199  -0.398   3.688  0.00  0.00    +0.040 C 
ATOM     21  C   UNL     1       9.087  -0.719   2.196  0.00  0.00    +0.179 C 
BRANCH  21  22
ATOM     22  N   UNL     1      10.405  -0.589   1.568  0.00  0.00    -0.302 N 
ATOM     23  C   UNL     1      11.269  -1.623   1.594  0.00  0.00    +0.219 C 
ATOM     24  O   UNL     1      10.955  -2.662   2.136  0.00  0.00    -0.275 OA
ATOM     25  H   UNL     1      10.689   0.353   1.077  0.00  0.00    +0.150 HD
BRANCH  23  26
ATOM     26  C   UNL     1      12.624  -1.489   0.949  0.00  0.00    +0.039 C 
ATOM     27  C   UNL     1      13.401  -2.796   1.119  0.00  0.00    +0.020 C 
ATOM     28  C   UNL     1      12.452  -1.188  -0.541  0.00  0.00    +0.020 C 
ATOM     29  C   UNL     1      13.395  -0.347   1.614  0.00  0.00    +0.020 C 
ENDBRANCH  23  26
ENDBRANCH  21  22
ENDBRANCH  18  21
ENDBRANCH  17  18
ENDBRANCH   1  17
TORSDOF 7
