REMARK  Name = ZINC50661414
REMARK  7 active torsions:
REMARK  status: ('A' for Active; 'I' for Inactive)
REMARK    1  A    between atoms: C_1  and  O_2
REMARK    2  A    between atoms: O_2  and  C_3
REMARK    3  A    between atoms: C_8  and  N_10
REMARK    4  A    between atoms: N_10  and  S_11
REMARK    5  A    between atoms: S_11  and  C_14
REMARK    6  A    between atoms: C_17  and  N_23
REMARK    7  A    between atoms: C_19  and  N_20
REMARK                            x       y       z     vdW  Elec       q    Type
REMARK                         _______ _______ _______ _____ _____    ______ ____
ROOT
ATOM      1  S   UNL     1       3.846  -2.655   0.090  0.00  0.00    +0.061 S 
ATOM      2  O   UNL     1       5.211  -2.441  -0.239  0.00  0.00    -0.153 OA
ATOM      3  O   UNL     1       3.295  -2.271   1.343  0.00  0.00    -0.153 OA
ENDROOT
BRANCH   1   4
ATOM      4  C   UNL     1       3.552  -4.384  -0.080  0.00  0.00    +0.135 A 
ATOM      5  C   UNL     1       2.951  -5.086   0.949  0.00  0.00    +0.032 A 
ATOM      6  C   UNL     1       2.719  -6.441   0.819  0.00  0.00    +0.025 A 
ATOM      7  C   UNL     1       3.091  -7.099  -0.347  0.00  0.00    +0.027 A 
ATOM      8  C   UNL     1       3.694  -6.391  -1.378  0.00  0.00    +0.057 A 
ATOM      9  C   UNL     1       3.918  -5.035  -1.244  0.00  0.00    +0.154 A 
BRANCH   9  10
ATOM     10  N   UNL     1       4.556  -4.278  -2.344  0.00  0.00    +0.058 N 
ATOM     11  O   UNL     1       4.995  -4.864  -3.306  0.00  0.00    -0.126 OA
ATOM     12  O   UNL     1       4.638  -3.073  -2.281  0.00  0.00    -0.126 OA
ENDBRANCH   9  10
BRANCH   7  13
ATOM     13  N   UNL     1       2.858  -8.470  -0.482  0.00  0.00    -0.358 N 
ATOM     14  H   UNL     1       2.437  -8.963   0.239  0.00  0.00    +0.142 HD
ATOM     15  H   UNL     1       3.118  -8.928  -1.297  0.00  0.00    +0.142 HD
ENDBRANCH   7  13
ENDBRANCH   1   4
BRANCH   1  16
ATOM     16  N   UNL     1       2.952  -1.890  -1.075  0.00  0.00    -0.184 NA
ATOM     17  H   UNL     1       3.396  -1.386  -1.775  0.00  0.00    +0.148 HD
BRANCH  16  22
ATOM     18  C   UNL     1       0.877  -0.630  -1.483  0.00  0.00    +0.136 C 
ATOM     19  C   UNL     1       0.039  -0.915  -2.747  0.00  0.00    +0.033 C 
ATOM     20  C   UNL     1       0.661  -2.207  -3.332  0.00  0.00    +0.004 C 
ATOM     21  C   UNL     1       1.000  -3.028  -2.063  0.00  0.00    +0.023 C 
ATOM     22  C   UNL     1       1.489  -1.973  -1.048  0.00  0.00    +0.105 C 
BRANCH  18  24
ATOM     23  C   UNL     1      -0.040   1.312  -0.418  0.00  0.00    +0.194 C 
ATOM     24  O   UNL     1       0.040  -0.115  -0.446  0.00  0.00    -0.378 OA
ENDBRANCH  18  24
ENDBRANCH  16  22
ENDBRANCH   1  16
TORSDOF 6
