REMARK  Name = ZINC65266030
REMARK  5 active torsions:
REMARK  status: ('A' for Active; 'I' for Inactive)
REMARK    1  A    between atoms: C_1  and  C_2
REMARK    2  A    between atoms: C_2  and  C_3
REMARK    3  A    between atoms: C_2  and  C_4
REMARK    4  A    between atoms: C_2  and  N_5
REMARK    5  A    between atoms: N_23  and  C_24
REMARK                            x       y       z     vdW  Elec       q    Type
REMARK                         _______ _______ _______ _____ _____    ______ ____
ROOT
ATOM      1  N   UNL     1       0.285  -0.473  -0.906  0.00  0.00    -0.370 N 
ATOM      2  C   UNL     1       1.564  -0.620  -1.032  0.00  0.00    +0.095 C 
ATOM      3  N   UNL     1       2.440  -0.196  -0.062  0.00  0.00    -0.303 N 
ATOM      4  C   UNL     1       2.809  -1.083   0.945  0.00  0.00    +0.037 A 
ATOM      5  C   UNL     1       2.829  -0.661   2.267  0.00  0.00    +0.023 A 
ATOM      6  C   UNL     1       3.208  -1.534   3.268  0.00  0.00    +0.002 A 
ATOM      7  C   UNL     1       3.569  -2.828   2.940  0.00  0.00    +0.000 A 
ATOM      8  C   UNL     1       3.544  -3.248   1.627  0.00  0.00    +0.007 A 
ATOM      9  C   UNL     1       3.156  -2.385   0.607  0.00  0.00    -0.012 A 
ATOM     10  C   UNL     1       3.127  -2.951  -0.789  0.00  0.00    +0.119 C 
ATOM     11  N   UNL     1       3.409  -1.940  -1.817  0.00  0.00    -0.299 NA
ATOM     12  C   UNL     1       2.164  -1.264  -2.234  0.00  0.00    +0.091 C 
ATOM     13  C   UNL     1       2.455  -0.246  -3.350  0.00  0.00    +0.050 C 
ATOM     14  C   UNL     1       2.428  -1.118  -4.625  0.00  0.00    +0.111 C 
ATOM     15  N   UNL     1       1.668  -2.337  -4.307  0.00  0.00    -0.283 N 
ATOM     16  C   UNL     1       1.204  -2.255  -2.907  0.00  0.00    +0.139 C 
ATOM     17  C   UNL     1       1.434  -3.360  -5.152  0.00  0.00    +0.307 C 
ATOM     18  O   UNL     1       0.789  -4.321  -4.780  0.00  0.00    -0.252 OA
ATOM     19  N   UNL     1       1.914  -3.317  -6.411  0.00  0.00    -0.269 N 
ATOM     20  H   UNL     1      -0.315  -0.875  -1.552  0.00  0.00    +0.161 HD
ATOM     21  H   UNL     1       4.093  -1.274  -1.492  0.00  0.00    +0.123 HD
ATOM     22  H   UNL     1       2.376  -2.525  -6.727  0.00  0.00    +0.156 HD
ATOM     23  H   UNL     1       2.795   0.706  -0.079  0.00  0.00    +0.153 HD
ENDROOT
BRANCH  19  24
ATOM     24  C   UNL     1       1.745  -4.415  -7.262  0.00  0.00    +0.035 A 
ATOM     25  C   UNL     1       2.744  -4.756  -8.164  0.00  0.00    +0.023 A 
ATOM     26  C   UNL     1       2.575  -5.840  -9.002  0.00  0.00    +0.002 A 
ATOM     27  C   UNL     1       1.412  -6.586  -8.944  0.00  0.00    +0.000 A 
ATOM     28  C   UNL     1       0.415  -6.248  -8.048  0.00  0.00    +0.002 A 
ATOM     29  C   UNL     1       0.580  -5.168  -7.203  0.00  0.00    +0.023 A 
ENDBRANCH  19  24
BRANCH   1  31
ATOM     30  C   UNL     1       0.468   1.647   0.300  0.00  0.00    +0.033 C 
ATOM     31  C   UNL     1      -0.256   0.302   0.214  0.00  0.00    +0.031 C 
ATOM     32  C   UNL     1      -0.050  -0.473   1.517  0.00  0.00    +0.033 C 
ATOM     33  C   UNL     1      -1.751   0.540  -0.006  0.00  0.00    +0.033 C 
ENDBRANCH   1  31
TORSDOF 2
