REMARK  Name = ZINC04309167
REMARK  7 active torsions:
REMARK  status: ('A' for Active; 'I' for Inactive)
REMARK    1  A    between atoms: C_1  and  C_2
REMARK    2  A    between atoms: C_5  and  N_9
REMARK    3  A    between atoms: C_6  and  C_8
REMARK    4  A    between atoms: C_13  and  C_15
REMARK    5  A    between atoms: C_15  and  N_16
REMARK    6  A    between atoms: C_19  and  C_23
REMARK    7  A    between atoms: C_19  and  C_24
REMARK                            x       y       z     vdW  Elec       q    Type
REMARK                         _______ _______ _______ _____ _____    ______ ____
ROOT
ATOM      1  N   UNL     1       0.059  -4.170  -0.021  0.00  0.00    -0.269 N 
ATOM      2  C   UNL     1      -0.040  -4.839  -1.187  0.00  0.00    +0.310 C 
ATOM      3  O   UNL     1      -0.054  -4.229  -2.238  0.00  0.00    -0.252 OA
ATOM      4  N   UNL     1      -0.124  -6.184  -1.187  0.00  0.00    -0.239 N 
ATOM      5  C   UNL     1      -0.223  -6.853  -2.353  0.00  0.00    +0.238 C 
ATOM      6  O   UNL     1      -0.237  -6.244  -3.401  0.00  0.00    -0.274 OA
ATOM      7  H   UNL     1       0.135  -4.658   0.814  0.00  0.00    +0.156 HD
ATOM      8  H   UNL     1      -0.113  -6.671  -0.348  0.00  0.00    +0.159 HD
ENDROOT
BRANCH   1  13
ATOM      9  C   UNL     1       0.025   1.503   0.005  0.00  0.00    +0.044 C 
ATOM     10  C   UNL     1       0.034  -0.004  -0.002  0.00  0.00    -0.050 A 
ATOM     11  C   UNL     1       0.632  -0.685  -1.046  0.00  0.00    +0.005 A 
ATOM     12  C   UNL     1       0.641  -2.066  -1.055  0.00  0.00    +0.024 A 
ATOM     13  C   UNL     1       0.051  -2.771  -0.014  0.00  0.00    +0.038 A 
ATOM     14  C   UNL     1      -0.548  -2.083   1.033  0.00  0.00    -0.029 A 
ATOM     15  C   UNL     1      -0.551  -0.702   1.039  0.00  0.00    +0.008 A 
ATOM     16  C   UNL     1      -1.191  -2.843   2.165  0.00  0.00    +0.045 C 
ENDBRANCH   1  13
BRANCH   5  17
ATOM     17  C   UNL     1      -0.317  -8.357  -2.353  0.00  0.00    +0.214 C 
BRANCH  17  18
ATOM     18  N   UNL     1      -0.415  -8.840  -3.733  0.00  0.00    -0.215 N 
ATOM     19  C   UNL     1      -1.576  -9.015  -4.393  0.00  0.00    +0.246 C 
ATOM     20  O   UNL     1      -2.695  -8.811  -3.973  0.00  0.00    -0.273 OA
ATOM     21  C   UNL     1      -1.193  -9.520  -5.770  0.00  0.00    +0.107 C 
ATOM     22  N   UNL     1       0.278  -9.576  -5.721  0.00  0.00    -0.285 N 
ATOM     23  C   UNL     1       0.639  -9.156  -4.495  0.00  0.00    +0.310 C 
ATOM     24  O   UNL     1       1.792  -9.075  -4.120  0.00  0.00    -0.252 OA
ATOM     25  C   UNL     1      -1.659  -8.543  -6.851  0.00  0.00    +0.041 C 
ATOM     26  C   UNL     1      -1.777 -10.913  -6.014  0.00  0.00    +0.041 C 
ATOM     27  H   UNL     1       0.871  -9.858  -6.435  0.00  0.00    +0.151 HD
ENDBRANCH  17  18
ENDBRANCH   5  17
TORSDOF 3
