REMARK  Name = ZINC11768389
REMARK  8 active torsions:
REMARK  status: ('A' for Active; 'I' for Inactive)
REMARK    1  A    between atoms: C_1  and  C_2
REMARK    2  A    between atoms: C_2  and  O_3
REMARK    3  A    between atoms: O_3  and  C_4
REMARK    4  A    between atoms: C_4  and  C_6
REMARK    5  A    between atoms: N_8  and  C_9
REMARK    6  A    between atoms: C_10  and  C_21
REMARK    7  A    between atoms: C_16  and  C_20
REMARK    8  A    between atoms: C_17  and  C_19
REMARK                            x       y       z     vdW  Elec       q    Type
REMARK                         _______ _______ _______ _____ _____    ______ ____
ROOT
ATOM      1  C   UNL     1      -0.900  -2.221  -0.002  0.00  0.00    +0.121 A 
ATOM      2  C   UNL     1       0.385  -2.735  -0.022  0.00  0.00    +0.068 A 
ATOM      3  N   UNL     1       1.412  -1.890  -0.030  0.00  0.00    -0.226 NA
ATOM      4  C   UNL     1       1.225  -0.594  -0.021  0.00  0.00    +0.181 A 
ATOM      5  N   UNL     1      -0.008   0.003  -0.001  0.00  0.00    -0.257 N 
ATOM      6  C   UNL     1      -1.090  -0.832   0.007  0.00  0.00    +0.281 A 
ATOM      7  O   UNL     1      -2.220  -0.369   0.024  0.00  0.00    -0.265 OA
ATOM      8  C   UNL     1      -0.031   1.377   0.007  0.00  0.00    +0.036 A 
ATOM      9  C   UNL     1       1.098   2.084  -0.003  0.00  0.00    +0.010 A 
ATOM     10  S   UNL     1       2.336   0.797  -0.027  0.00  0.00    -0.054 S 
ATOM     11  C   UNL     1       1.283   3.580   0.004  0.00  0.00    +0.053 C 
ATOM     12  C   UNL     1      -1.355   2.096   0.022  0.00  0.00    +0.065 C 
ATOM     13  C   UNL     1       0.615  -4.224  -0.033  0.00  0.00    +0.068 C 
ENDROOT
BRANCH   1  16
ATOM     14  C   UNL     1      -2.885  -3.040   1.027  0.00  0.00    +0.326 C 
ATOM     15  O   UNL     1      -2.770  -2.197   1.893  0.00  0.00    -0.263 OA
ATOM     16  N   UNL     1      -2.005  -3.083   0.007  0.00  0.00    -0.270 N 
ATOM     17  H   UNL     1      -2.135  -3.712  -0.720  0.00  0.00    +0.156 HD
BRANCH  14  18
ATOM     18  C   UNL     1      -4.001  -4.029   1.091  0.00  0.00    +0.395 C 
ATOM     19  O   UNL     1      -4.116  -4.871   0.226  0.00  0.00    -0.240 OA
BRANCH  18  20
ATOM     20  O   UNL     1      -4.880  -3.985   2.110  0.00  0.00    -0.458 OA
BRANCH  20  22
ATOM     21  C   UNL     1      -6.833  -4.772   3.333  0.00  0.00    +0.048 C 
ATOM     22  C   UNL     1      -5.940  -4.978   2.108  0.00  0.00    +0.229 C 
ENDBRANCH  20  22
ENDBRANCH  18  20
ENDBRANCH  14  18
ENDBRANCH   1  16
TORSDOF 4
