REMARK  Name = ZINC40486471
REMARK  3 active torsions:
REMARK  status: ('A' for Active; 'I' for Inactive)
REMARK    1  A    between atoms: C_3  and  C_18
REMARK    2  A    between atoms: C_4  and  N_8
REMARK    3  A    between atoms: C_9  and  C_11
REMARK                            x       y       z     vdW  Elec       q    Type
REMARK                         _______ _______ _______ _____ _____    ______ ____
ROOT
ATOM      1  N   UNL     1       3.564  -0.665  -0.025  0.00  0.00    -0.286 N 
ATOM      2  C   UNL     1       3.551  -2.010  -0.118  0.00  0.00    +0.203 C 
ATOM      3  O   UNL     1       2.503  -2.596  -0.283  0.00  0.00    -0.277 OA
ATOM      4  H   UNL     1       4.408  -0.190   0.030  0.00  0.00    +0.155 HD
ENDROOT
BRANCH   2   5
ATOM      5  C   UNL     1       4.840  -2.784  -0.018  0.00  0.00    +0.016 C 
ATOM      6  C   UNL     1       5.493  -2.511   1.339  0.00  0.00    -0.007 C 
ATOM      7  C   UNL     1       6.803  -3.300   1.437  0.00  0.00    -0.003 C 
ATOM      8  C   UNL     1       6.508  -4.787   1.222  0.00  0.00    -0.019 C 
ATOM      9  C   UNL     1       5.818  -4.975  -0.130  0.00  0.00    -0.082 C 
ATOM     10  N   UNL     1       4.560  -4.218  -0.150  0.00  0.00    +0.387 N 
ATOM     11  H   UNL     1       3.976  -4.518   0.616  0.00  0.00    -0.085 HD
ATOM     12  H   UNL     1       4.081  -4.387  -1.022  0.00  0.00    -0.085 HD
ENDBRANCH   2   5
BRANCH   1  16
ATOM     13  C   UNL     1      -0.029   1.454   0.026  0.00  0.00    +0.016 A 
ATOM     14  C   UNL     1       1.070   2.004  -0.596  0.00  0.00    +0.018 A 
ATOM     15  C   UNL     1       2.281   1.304  -0.621  0.00  0.00    +0.084 A 
ATOM     16  C   UNL     1       2.365   0.042  -0.008  0.00  0.00    +0.049 A 
ATOM     17  C   UNL     1       1.247  -0.495   0.615  0.00  0.00    +0.039 A 
ATOM     18  C   UNL     1       0.059   0.209   0.631  0.00  0.00    +0.020 A 
ATOM     19 BR   UNL     1      -1.460  -0.530   1.482  0.00  0.00    -0.050 Br
BRANCH  15  20
ATOM     20  C   UNL     1       3.458   1.884  -1.285  0.00  0.00    +0.388 C 
ATOM     21  O   UNL     1       3.357   2.939  -1.896  0.00  0.00    -0.241 OA
ATOM     22  O   UNL     1       4.537   1.312  -1.226  0.00  0.00    -0.241 OA
ENDBRANCH  15  20
ENDBRANCH   1  16
TORSDOF 3
