REMARK  Name = ZINC15752506
REMARK  8 active torsions:
REMARK  status: ('A' for Active; 'I' for Inactive)
REMARK    1  A    between atoms: C_1  and  C_2
REMARK    2  A    between atoms: C_2  and  C_4
REMARK    3  A    between atoms: C_2  and  N_23
REMARK    4  A    between atoms: C_4  and  O_6
REMARK    5  A    between atoms: O_6  and  C_7
REMARK    6  A    between atoms: C_7  and  C_9
REMARK    7  A    between atoms: C_7  and  C_10
REMARK    8  A    between atoms: N_12  and  C_13
REMARK                            x       y       z     vdW  Elec       q    Type
REMARK                         _______ _______ _______ _____ _____    ______ ____
ROOT
ATOM      1  C   UNL     1      -3.723  -0.793   0.278  0.00  0.00    +0.328 C 
ATOM      2  O   UNL     1      -3.312  -1.831   0.741  0.00  0.00    -0.249 OA
ENDROOT
BRANCH   1   4
ATOM      3  C   UNL     1      -3.326   0.286  -1.919  0.00  0.00    +0.040 C 
ATOM      4  C   UNL     1      -2.795   0.107  -0.495  0.00  0.00    +0.178 C 
BRANCH   4   5
ATOM      5  N   UNL     1      -1.460  -0.494  -0.544  0.00  0.00    -0.315 N 
ATOM      6  C   UNL     1      -0.350   0.304  -0.717  0.00  0.00    +0.150 C 
ATOM      7  N   UNL     1      -0.479   1.587  -0.836  0.00  0.00    -0.113 NA
ATOM      8  S   UNL     1       1.073   2.187  -1.024  0.00  0.00    +0.101 S 
ATOM      9  O   UNL     1       1.183   2.694  -2.347  0.00  0.00    -0.146 OA
ATOM     10  O   UNL     1       1.388   2.945   0.135  0.00  0.00    -0.146 OA
ATOM     11  C   UNL     1       1.994   0.675  -0.948  0.00  0.00    +0.123 A 
ATOM     12  C   UNL     1       0.994  -0.292  -0.768  0.00  0.00    +0.043 A 
ATOM     13  C   UNL     1       1.401  -1.630  -0.666  0.00  0.00    +0.013 A 
ATOM     14  C   UNL     1       2.737  -1.958  -0.743  0.00  0.00    +0.001 A 
ATOM     15  C   UNL     1       3.700  -0.982  -0.922  0.00  0.00    +0.002 A 
ATOM     16  C   UNL     1       3.316   0.347  -1.024  0.00  0.00    +0.030 A 
ATOM     17  H   UNL     1      -1.357  -1.455  -0.456  0.00  0.00    +0.148 HD
ENDBRANCH   4   5
ENDBRANCH   1   4
BRANCH   1  18
ATOM     18  O   UNL     1      -5.007  -0.442   0.453  0.00  0.00    -0.451 OA
BRANCH  18  19
ATOM     19  C   UNL     1      -5.843  -1.357   1.209  0.00  0.00    +0.259 C 
ATOM     20  C   UNL     1      -6.491  -2.363   0.254  0.00  0.00    +0.062 C 
BRANCH  19  21
ATOM     21  C   UNL     1      -6.918  -0.581   1.925  0.00  0.00    +0.258 C 
ATOM     22  O   UNL     1      -7.030   0.613   1.739  0.00  0.00    -0.271 OA
ATOM     23  N   UNL     1      -7.755  -1.212   2.772  0.00  0.00    -0.282 N 
ATOM     24  H   UNL     1      -7.716  -2.177   2.863  0.00  0.00    +0.155 HD
BRANCH  23  25
ATOM     25  C   UNL     1      -8.680  -0.476   3.520  0.00  0.00    +0.034 A 
ATOM     26  C   UNL     1      -8.345   0.807   3.966  0.00  0.00    +0.024 A 
ATOM     27  C   UNL     1      -9.226   1.547   4.690  0.00  0.00    +0.010 A 
ATOM     28  C   UNL     1     -10.489   1.019   5.008  0.00  0.00    -0.018 A 
ATOM     29  C   UNL     1     -11.418   1.758   5.761  0.00  0.00    +0.008 A 
ATOM     30  C   UNL     1     -12.633   1.218   6.052  0.00  0.00    +0.001 A 
ATOM     31  C   UNL     1     -12.972  -0.062   5.616  0.00  0.00    +0.001 A 
ATOM     32  C   UNL     1     -12.099  -0.807   4.886  0.00  0.00    +0.008 A 
ATOM     33  C   UNL     1     -10.835  -0.283   4.565  0.00  0.00    -0.016 A 
ATOM     34  C   UNL     1      -9.909  -1.024   3.813  0.00  0.00    +0.031 A 
ENDBRANCH  23  25
ENDBRANCH  19  21
ENDBRANCH  18  19
ENDBRANCH   1  18
TORSDOF 6
