REMARK  Name = ZINC39469681
REMARK  7 active torsions:
REMARK  status: ('A' for Active; 'I' for Inactive)
REMARK    1  A    between atoms: C_1  and  S_2
REMARK    2  A    between atoms: S_2  and  C_3
REMARK    3  A    between atoms: P_12  and  S_23
REMARK    4  A    between atoms: C_20  and  S_21
REMARK    5  A    between atoms: S_21  and  C_22
REMARK    6  A    between atoms: S_23  and  O_26
REMARK    7  A    between atoms: O_26  and  C_27
REMARK                            x       y       z     vdW  Elec       q    Type
REMARK                         _______ _______ _______ _____ _____    ______ ____
ROOT
ATOM      1  C   UNL     1      -1.702  -0.454   0.016  0.00  0.00    +0.017 C 
ATOM      2  C   UNL     1      -2.650   0.491   0.024  0.00  0.00    -0.007 C 
ATOM      3  C   UNL     1      -4.099   0.085   0.047  0.00  0.00    +0.017 C 
ATOM      4  C   UNL     1      -4.961   1.208   0.609  0.00  0.00    -0.003 C 
ATOM      5  C   UNL     1      -4.620   1.470   2.081  0.00  0.00    -0.020 C 
ATOM      6  C   UNL     1      -5.553   2.588   2.567  0.00  0.00    +0.158 C 
ATOM      7  O   UNL     1      -5.244   2.912   3.934  0.00  0.00    -0.301 OA
ATOM      8  P   UNL     1      -5.152   1.685   4.999  0.00  0.00    +0.431 P 
ATOM      9  O   UNL     1      -6.507   1.280   5.435  0.00  0.00    -0.246 OA
ATOM     10  N   UNL     1      -4.423   0.453   4.177  0.00  0.00    -0.271 NA
ATOM     11  N   UNL     1      -4.800   0.247   2.866  0.00  0.00    +0.398 N 
ATOM     12  C   UNL     1      -3.924  -0.821   2.358  0.00  0.00    -0.046 C 
ATOM     13  C   UNL     1      -4.270  -1.158   0.926  0.00  0.00    +0.005 C 
ATOM     14  C   UNL     1      -3.314  -2.227   0.453  0.00  0.00    -0.009 C 
ATOM     15  C   UNL     1      -2.099  -1.880   0.012  0.00  0.00    +0.017 C 
ATOM     16  H   UNL     1      -3.754  -0.106   4.602  0.00  0.00    +0.113 HD
ATOM     17  H   UNL     1      -5.766  -0.043   2.829  0.00  0.00    -0.055 HD
ENDROOT
BRANCH   8  18
ATOM     18  S   UNL     1      -3.981   2.251   6.673  0.00  0.00    +0.209 S 
ATOM     19  O   UNL     1      -4.070   1.186   7.610  0.00  0.00    -0.126 OA
ATOM     20  O   UNL     1      -2.738   2.713   6.162  0.00  0.00    -0.126 OA
BRANCH  18  21
ATOM     21  O   UNL     1      -4.662   3.451   7.314  0.00  0.00    -0.339 OA
BRANCH  21  22
ATOM     22  C   UNL     1      -5.781   3.141   8.019  0.00  0.00    +0.157 A 
ATOM     23  C   UNL     1      -7.018   3.126   7.390  0.00  0.00    +0.048 A 
ATOM     24  C   UNL     1      -8.154   2.809   8.110  0.00  0.00    +0.004 A 
ATOM     25  C   UNL     1      -8.059   2.508   9.456  0.00  0.00    +0.000 A 
ATOM     26  C   UNL     1      -6.829   2.522  10.085  0.00  0.00    +0.004 A 
ATOM     27  C   UNL     1      -5.689   2.832   9.369  0.00  0.00    +0.048 A 
ENDBRANCH  21  22
ENDBRANCH  18  21
ENDBRANCH   8  18
BRANCH   1  29
ATOM     28  C   UNL     1      -0.022   1.810   0.012  0.00  0.00    +0.090 C 
ATOM     29  S   UNL     1       0.002  -0.004   0.002  0.00  0.00    -0.128 S 
ENDBRANCH   1  29
BRANCH  15  30
ATOM     30  S   UNL     1      -0.977  -3.111  -0.563  0.00  0.00    -0.128 S 
ATOM     31  C   UNL     1      -1.896  -4.664  -0.377  0.00  0.00    +0.090 C 
ENDBRANCH  15  30
TORSDOF 5
