REMARK  Name = ZINC15411301
REMARK  7 active torsions:
REMARK  status: ('A' for Active; 'I' for Inactive)
REMARK    1  A    between atoms: C_1  and  C_2
REMARK    2  A    between atoms: C_5  and  N_25
REMARK    3  A    between atoms: C_7  and  N_8
REMARK    4  A    between atoms: C_9  and  C_11
REMARK    5  A    between atoms: C_11  and  O_12
REMARK    6  A    between atoms: O_12  and  C_13
REMARK    7  A    between atoms: C_17  and  C_24
REMARK                            x       y       z     vdW  Elec       q    Type
REMARK                         _______ _______ _______ _____ _____    ______ ____
ROOT
ATOM      1  N   UNL     1       2.088   4.346   0.005  0.00  0.00    -0.282 N 
ATOM      2  C   UNL     1       1.030   3.510   0.008  0.00  0.00    +0.255 C 
ATOM      3  O   UNL     1      -0.097   3.958   0.028  0.00  0.00    -0.272 OA
ATOM      4  H   UNL     1       2.988   3.990   0.070  0.00  0.00    +0.155 HD
ENDROOT
BRANCH   1  11
ATOM      5  C   UNL     1       4.101   6.071   1.039  0.00  0.00    +0.045 C 
ATOM      6  C   UNL     1       2.845   6.605   0.401  0.00  0.00    -0.029 A 
ATOM      7  C   UNL     1       2.644   7.968   0.303  0.00  0.00    +0.007 A 
ATOM      8  C   UNL     1       1.492   8.459  -0.282  0.00  0.00    +0.033 A 
ATOM      9  C   UNL     1       0.537   7.588  -0.773  0.00  0.00    +0.128 A 
ATOM     10  C   UNL     1       0.734   6.224  -0.683  0.00  0.00    +0.056 A 
ATOM     11  C   UNL     1       1.887   5.727  -0.091  0.00  0.00    +0.039 A 
BRANCH   9  12
ATOM     12  N   UNL     1      -0.695   8.117  -1.400  0.00  0.00    +0.056 N 
ATOM     13  O   UNL     1      -0.867   9.320  -1.484  0.00  0.00    -0.126 OA
ATOM     14  O   UNL     1      -1.537   7.350  -1.832  0.00  0.00    -0.126 OA
ENDBRANCH   9  12
ENDBRANCH   1  11
BRANCH   2  15
ATOM     15  C   UNL     1       1.248   2.019  -0.014  0.00  0.00    +0.324 C 
BRANCH  15  16
ATOM     16  O   UNL     1      -0.016   1.353  -0.007  0.00  0.00    -0.483 OA
BRANCH  16  17
ATOM     17  C   UNL     1       0.003  -0.004  -0.025  0.00  0.00    +0.125 A 
ATOM     18  C   UNL     1       1.222  -0.678  -0.054  0.00  0.00    +0.046 A 
ATOM     19  C   UNL     1       1.258  -2.042  -0.068  0.00  0.00    +0.015 A 
ATOM     20  C   UNL     1       0.061  -2.769  -0.062  0.00  0.00    +0.021 A 
ATOM     21  C   UNL     1       0.069  -4.234  -0.081  0.00  0.00    -0.033 A 
ATOM     22  C   UNL     1      -1.125  -4.882  -0.074  0.00  0.00    +0.096 A 
ATOM     23  C   UNL     1      -2.324  -4.141  -0.049  0.00  0.00    +0.337 A 
ATOM     24  O   UNL     1      -3.388  -4.735  -0.043  0.00  0.00    -0.245 OA
ATOM     25  O   UNL     1      -2.325  -2.799  -0.032  0.00  0.00    -0.422 OA
ATOM     26  C   UNL     1      -1.173  -2.094  -0.037  0.00  0.00    +0.143 A 
ATOM     27  C   UNL     1      -1.190  -0.708  -0.019  0.00  0.00    +0.092 A 
ATOM     28  C   UNL     1       1.366  -5.001  -0.106  0.00  0.00    +0.045 C 
ENDBRANCH  16  17
ENDBRANCH  15  16
ENDBRANCH   2  15
TORSDOF 5
