REMARK  Name = ZINC05231763
REMARK  6 active torsions:
REMARK  status: ('A' for Active; 'I' for Inactive)
REMARK    1  A    between atoms: C_1  and  C_2
REMARK    2  A    between atoms: C_13  and  C_14
REMARK    3  A    between atoms: C_13  and  O_15
REMARK    4  A    between atoms: C_19  and  C_29
REMARK    5  A    between atoms: C_26  and  C_27
REMARK    6  A    between atoms: C_26  and  C_28
REMARK                            x       y       z     vdW  Elec       q    Type
REMARK                         _______ _______ _______ _____ _____    ______ ____
ROOT
ATOM      1  C   UNL     1      -0.019   1.532   0.011  0.00  0.00    +0.014 C 
ATOM      2  C   UNL     1       0.002  -0.004   0.002  0.00  0.00    -0.000 C 
ATOM      3  C   UNL     1       0.496  -0.518  -1.321  0.00  0.00    +0.010 C 
ATOM      4  C   UNL     1       2.030  -0.467  -1.417  0.00  0.00    +0.005 C 
ATOM      5  C   UNL     1       2.679   0.308  -0.294  0.00  0.00    +0.003 C 
ATOM      6  C   UNL     1       2.289  -0.211   1.083  0.00  0.00    +0.000 C 
ATOM      7  C   UNL     1       0.840  -0.582   1.160  0.00  0.00    +0.001 C 
ATOM      8  C   UNL     1       0.061  -0.098   2.392  0.00  0.00    +0.007 C 
ATOM      9  C   UNL     1      -1.423  -0.222   1.957  0.00  0.00    +0.035 C 
ATOM     10  C   UNL     1      -1.416  -0.438   0.421  0.00  0.00    +0.069 C 
ATOM     11  C   UNL     1      -1.695  -1.898   0.092  0.00  0.00    +0.042 C 
ATOM     12  C   UNL     1       2.697   0.847   2.111  0.00  0.00    +0.031 C 
ATOM     13  C   UNL     1       4.174   1.095   1.954  0.00  0.00    -0.026 C 
ATOM     14  C   UNL     1       4.833   0.931   0.836  0.00  0.00    -0.054 C 
ATOM     15  C   UNL     1       4.201   0.388  -0.419  0.00  0.00    -0.003 C 
ATOM     16  C   UNL     1       4.526   1.302  -1.610  0.00  0.00    +0.051 C 
ATOM     17  C   UNL     1       6.017   1.513  -1.657  0.00  0.00    +0.016 A 
ATOM     18  C   UNL     1       6.817   1.791  -2.772  0.00  0.00    +0.160 A 
ATOM     19  N   UNL     1       8.054   1.876  -2.366  0.00  0.00    -0.086 NA
ATOM     20  O   UNL     1       8.072   1.647  -0.967  0.00  0.00    -0.359 OA
ATOM     21  C   UNL     1       6.808   1.471  -0.566  0.00  0.00    +0.150 A 
ATOM     22  C   UNL     1       6.310   1.286   0.845  0.00  0.00    +0.047 C 
ATOM     23  C   UNL     1       7.114   0.182   1.537  0.00  0.00    +0.024 C 
ATOM     24  C   UNL     1       6.527   2.607   1.599  0.00  0.00    +0.024 C 
ATOM     25  C   UNL     1       4.760  -1.006  -0.699  0.00  0.00    +0.016 C 
ENDROOT
BRANCH  10  26
ATOM     26  O   UNL     1      -2.381   0.413  -0.199  0.00  0.00    -0.388 OA
ATOM     27  H   UNL     1      -3.297   0.196   0.022  0.00  0.00    +0.210 HD
ENDBRANCH  10  26
TORSDOF 1
