REMARK  Name = ZINC01056557
REMARK  2 active torsions:
REMARK  status: ('A' for Active; 'I' for Inactive)
REMARK    1  A    between atoms: C_11  and  N_46
REMARK    2  A    between atoms: N_16  and  C_19
REMARK                            x       y       z     vdW  Elec       q    Type
REMARK                         _______ _______ _______ _____ _____    ______ ____
ROOT
ATOM      1  C   UNL     1      -6.179  -0.494  -1.047  0.00  0.00    +0.029 C 
ATOM      2  C   UNL     1      -6.326  -1.412  -2.278  0.00  0.00    +0.090 C 
ATOM      3  C   UNL     1      -7.562  -0.882  -2.970  0.00  0.00    +0.225 C 
ATOM      4  O   UNL     1      -8.038  -1.325  -3.994  0.00  0.00    -0.275 OA
ATOM      5  N   UNL     1      -8.048   0.153  -2.273  0.00  0.00    -0.212 N 
ATOM      6  C   UNL     1      -7.348   0.458  -1.174  0.00  0.00    +0.213 C 
ATOM      7  O   UNL     1      -7.610   1.355  -0.402  0.00  0.00    -0.277 OA
ENDROOT
BRANCH   1  20
ATOM      8  C   UNL     1       1.231   1.761  -0.236  0.00  0.00    +0.005 A 
ATOM      9  C   UNL     1       1.180   3.148  -0.272  0.00  0.00    +0.018 A 
ATOM     10  C   UNL     1      -0.047   3.780  -0.253  0.00  0.00    +0.084 A 
ATOM     11  C   UNL     1      -1.160   1.760  -0.171  0.00  0.00    +0.099 A 
ATOM     12  C   UNL     1       0.041   1.058  -0.182  0.00  0.00    +0.042 A 
ATOM     13  N   UNL     1      -2.364   1.066  -0.123  0.00  0.00    -0.320 N 
ATOM     14  C   UNL     1      -2.466   0.112  -1.236  0.00  0.00    +0.088 C 
ATOM     15  C   UNL     1      -3.765  -0.686  -1.102  0.00  0.00    -0.058 C 
ATOM     16  C   UNL     1      -4.804   1.194   0.015  0.00  0.00    -0.058 C 
ATOM     17  C   UNL     1      -3.505   1.991  -0.119  0.00  0.00    +0.088 C 
ATOM     18  N   UNL     1      -1.236   3.122  -0.200  0.00  0.00    -0.350 N 
ATOM     19  H   UNL     1      -2.134   3.619  -0.183  0.00  0.00    +0.166 HD
ATOM     20  N   UNL     1      -4.906   0.254  -1.122  0.00  0.00    +0.390 N 
ATOM     21  H   UNL     1      -4.883   0.787  -1.999  0.00  0.00    -0.081 HD
ENDBRANCH   1  20
BRANCH   5  22
ATOM     22  C   UNL     1      -9.195   0.859  -2.663  0.00  0.00    +0.044 A 
ATOM     23  C   UNL     1     -10.350   0.787  -1.897  0.00  0.00    +0.025 A 
ATOM     24  C   UNL     1     -11.476   1.488  -2.280  0.00  0.00    +0.017 A 
ATOM     25  C   UNL     1     -11.458   2.253  -3.433  0.00  0.00    +0.018 A 
ATOM     26  C   UNL     1     -10.309   2.321  -4.202  0.00  0.00    +0.017 A 
ATOM     27  C   UNL     1      -9.179   1.626  -3.820  0.00  0.00    +0.025 A 
ATOM     28 BR   UNL     1     -13.004   3.205  -3.959  0.00  0.00    -0.050 Br
ENDBRANCH   5  22
TORSDOF 2
