REMARK  Name = ZINC46521016
REMARK  6 active torsions:
REMARK  status: ('A' for Active; 'I' for Inactive)
REMARK    1  A    between atoms: C_1  and  O_2
REMARK    2  A    between atoms: O_2  and  C_3
REMARK    3  A    between atoms: N_5  and  C_6
REMARK    4  A    between atoms: C_9  and  N_12
REMARK    5  A    between atoms: C_13  and  C_15
REMARK    6  A    between atoms: C_17  and  N_22
REMARK                            x       y       z     vdW  Elec       q    Type
REMARK                         _______ _______ _______ _____ _____    ______ ____
ROOT
ATOM      1  N   UNL     1      -6.051  -4.762   0.395  0.00  0.00    -0.281 N 
ATOM      2  C   UNL     1      -7.142  -4.319  -0.260  0.00  0.00    +0.250 C 
ATOM      3  O   UNL     1      -7.102  -3.263  -0.863  0.00  0.00    -0.270 OA
ATOM      4  H   UNL     1      -6.101  -5.569   0.931  0.00  0.00    +0.155 HD
ENDROOT
BRANCH   2   5
ATOM      5  C   UNL     1      -8.386  -5.114  -0.246  0.00  0.00    +0.057 A 
ATOM      6  C   UNL     1      -8.438  -6.324   0.450  0.00  0.00    +0.047 A 
ATOM      7  C   UNL     1      -9.603  -7.062   0.460  0.00  0.00    +0.127 A 
ATOM      8  C   UNL     1     -10.720  -6.607  -0.219  0.00  0.00    +0.034 A 
ATOM      9  C   UNL     1     -10.678  -5.410  -0.910  0.00  0.00    +0.023 A 
ATOM     10  C   UNL     1      -9.519  -4.658  -0.924  0.00  0.00    +0.053 A 
ATOM     11 CL   UNL     1      -9.469  -3.152  -1.787  0.00  0.00    -0.083 Cl
BRANCH   7  12
ATOM     12  N   UNL     1      -9.658  -8.344   1.197  0.00  0.00    +0.056 N 
ATOM     13  O   UNL     1      -8.683  -8.743   1.790  0.00  0.00    -0.126 OA
ATOM     14  O   UNL     1     -10.678  -8.992   1.206  0.00  0.00    -0.126 OA
ENDBRANCH   7  12
ENDBRANCH   2   5
BRANCH   1  18
ATOM     15  C   UNL     1      -2.457  -2.666   0.120  0.00  0.00    +0.037 A 
ATOM     16  C   UNL     1      -3.663  -1.978   0.126  0.00  0.00    +0.025 A 
ATOM     17  C   UNL     1      -4.853  -2.672   0.218  0.00  0.00    +0.025 A 
ATOM     18  C   UNL     1      -4.844  -4.058   0.302  0.00  0.00    +0.034 A 
ATOM     19  C   UNL     1      -3.638  -4.746   0.295  0.00  0.00    +0.025 A 
ATOM     20  C   UNL     1      -2.448  -4.052   0.199  0.00  0.00    +0.025 A 
BRANCH  15  23
ATOM     21  C   UNL     1      -1.123  -0.760   0.626  0.00  0.00    +0.404 C 
ATOM     22  O   UNL     1      -2.080  -0.250   1.173  0.00  0.00    -0.226 OA
ATOM     23  N   UNL     1      -1.249  -1.962   0.028  0.00  0.00    -0.251 N 
ATOM     24  H   UNL     1      -0.505  -2.338  -0.467  0.00  0.00    +0.158 HD
BRANCH  21  26
ATOM     25  C   UNL     1       0.127   1.143   1.270  0.00  0.00    +0.282 C 
ATOM     26  O   UNL     1       0.065  -0.126   0.617  0.00  0.00    -0.453 OA
ENDBRANCH  21  26
ENDBRANCH  15  23
ENDBRANCH   1  18
TORSDOF 5
