REMARK  Name = ZINC33812578
REMARK  10 active torsions:
REMARK  status: ('A' for Active; 'I' for Inactive)
REMARK    1  A    between atoms: C_1  and  C_2
REMARK    2  A    between atoms: C_2  and  C_3
REMARK    3  A    between atoms: C_3  and  N_4
REMARK    4  A    between atoms: C_5  and  N_27
REMARK    5  A    between atoms: C_6  and  C_14
REMARK    6  A    between atoms: C_7  and  C_13
REMARK    7  A    between atoms: C_8  and  C_11
REMARK    8  A    between atoms: N_18  and  C_22
REMARK    9  A    between atoms: N_30  and  C_33
REMARK   10  A    between atoms: C_33  and  C_34
REMARK                            x       y       z     vdW  Elec       q    Type
REMARK                         _______ _______ _______ _____ _____    ______ ____
ROOT
ATOM      1  N   UNL     1      -1.342  -2.364   0.424  0.00  0.00    -0.295 N 
ATOM      2  C   UNL     1      -1.350  -2.858  -0.840  0.00  0.00    +0.112 A 
ATOM      3  C   UNL     1      -1.682  -4.202  -1.080  0.00  0.00    +0.019 A 
ATOM      4  C   UNL     1      -2.007  -5.037   0.003  0.00  0.00    -0.017 A 
ATOM      5  C   UNL     1      -1.991  -4.506   1.290  0.00  0.00    +0.120 A 
ATOM      6  C   UNL     1      -1.644  -3.144   1.478  0.00  0.00    +0.270 A 
ATOM      7  O   UNL     1      -1.624  -2.676   2.603  0.00  0.00    -0.266 OA
ATOM      8  C   UNL     1      -2.367  -6.482  -0.226  0.00  0.00    +0.046 C 
ENDROOT
BRANCH   3   9
ATOM      9  C   UNL     1      -1.689  -4.728  -2.446  0.00  0.00    +0.032 C 
ATOM     10  C   UNL     1      -0.786  -5.676  -2.815  0.00  0.00    +0.077 C 
ATOM     11  C   UNL     1       0.312  -6.220  -2.081  0.00  0.00    +0.259 C 
ATOM     12  O   UNL     1       0.557  -5.843  -0.949  0.00  0.00    -0.269 OA
ATOM     13  N   UNL     1       1.053  -7.144  -2.666  0.00  0.00    -0.252 N 
ATOM     14  C   UNL     1       0.781  -7.561  -3.923  0.00  0.00    +0.121 C 
ATOM     15  S   UNL     1       1.600  -8.733  -4.865  0.00  0.00    -0.027 S 
ATOM     16  S   UNL     1      -0.654  -6.586  -4.348  0.00  0.00    -0.061 S 
BRANCH  13  17
ATOM     17  C   UNL     1       2.188  -7.724  -1.943  0.00  0.00    +0.083 C 
ATOM     18  C   UNL     1       3.488  -7.521  -2.748  0.00  0.00    +0.023 C 
ATOM     19  C   UNL     1       4.290  -8.824  -2.510  0.00  0.00    +0.002 C 
ATOM     20  C   UNL     1       3.186  -9.911  -2.514  0.00  0.00    +0.002 C 
ATOM     21  C   UNL     1       1.996  -9.243  -1.794  0.00  0.00    +0.023 C 
ENDBRANCH  13  17
ENDBRANCH   3   9
BRANCH   2  22
ATOM     22  N   UNL     1      -1.033  -2.042  -1.887  0.00  0.00    -0.320 N 
ATOM     23  C   UNL     1       0.337  -1.992  -2.420  0.00  0.00    +0.088 C 
ATOM     24  C   UNL     1       0.274  -2.173  -3.940  0.00  0.00    -0.060 C 
ATOM     25  N   UNL     1      -0.636  -1.174  -4.514  0.00  0.00    +0.382 N 
ATOM     26  C   UNL     1      -2.003  -1.407  -4.031  0.00  0.00    -0.060 C 
ATOM     27  C   UNL     1      -2.054  -1.192  -2.519  0.00  0.00    +0.088 C 
ATOM     28  H   UNL     1      -0.336  -0.250  -4.238  0.00  0.00    -0.082 HD
BRANCH  25  29
ATOM     29  C   UNL     1      -0.612  -1.276  -5.979  0.00  0.00    -0.082 C 
ATOM     30  C   UNL     1      -1.461  -0.156  -6.582  0.00  0.00    -0.017 C 
ENDBRANCH  25  29
ENDBRANCH   2  22
BRANCH   5  31
ATOM     31  C   UNL     1      -2.318  -5.331   2.414  0.00  0.00    +0.105 C 
ATOM     32  N   UNL     1      -2.577  -5.984   3.306  0.00  0.00    -0.191 NA
ENDBRANCH   5  31
BRANCH   1  33
ATOM     33  C   UNL     1      -0.993  -0.959   0.646  0.00  0.00    +0.126 C 
BRANCH  33  35
ATOM     34  C   UNL     1       0.862   0.618   1.208  0.00  0.00    +0.005 C 
ATOM     35  C   UNL     1       0.497  -0.850   0.976  0.00  0.00    +0.018 C 
ENDBRANCH  33  35
ENDBRANCH   1  33
TORSDOF 7
