REMARK  Name = ZINC64678730
REMARK  9 active torsions:
REMARK  status: ('A' for Active; 'I' for Inactive)
REMARK    1  A    between atoms: C_1  and  C_2
REMARK    2  A    between atoms: C_2  and  C_3
REMARK    3  A    between atoms: N_5  and  C_6
REMARK    4  A    between atoms: N_5  and  C_7
REMARK    5  A    between atoms: C_7  and  C_8
REMARK    6  A    between atoms: C_8  and  C_9
REMARK    7  A    between atoms: C_12  and  C_15
REMARK    8  A    between atoms: C_17  and  C_26
REMARK    9  A    between atoms: C_20  and  C_25
REMARK                            x       y       z     vdW  Elec       q    Type
REMARK                         _______ _______ _______ _____ _____    ______ ____
ROOT
ATOM      1  C   UNL     1      -4.920  -3.051  -1.410  0.00  0.00    +0.139 C 
ATOM      2  N   UNL     1      -5.590  -3.302  -0.344  0.00  0.00    -0.072 NA
ATOM      3  O   UNL     1      -6.885  -3.778  -0.657  0.00  0.00    -0.367 OA
ATOM      4  C   UNL     1      -6.970  -3.804  -2.091  0.00  0.00    +0.318 C 
ATOM      5  N   UNL     1      -5.657  -3.313  -2.541  0.00  0.00    -0.291 N 
ATOM      6  H   UNL     1      -5.367  -3.198  -3.460  0.00  0.00    +0.151 HD
ENDROOT
BRANCH   4   7
ATOM      7  C   UNL     1      -7.214  -5.230  -2.587  0.00  0.00    +0.168 C 
ATOM      8  C   UNL     1      -8.571  -5.716  -2.127  0.00  0.00    -0.036 C 
ATOM      9  C   UNL     1      -8.337  -6.801  -1.353  0.00  0.00    -0.001 A 
ATOM     10  C   UNL     1      -9.227  -7.709  -0.620  0.00  0.00    +0.013 A 
ATOM     11  C   UNL     1      -8.687  -8.730   0.084  0.00  0.00    -0.050 A 
ATOM     12  C   UNL     1      -7.302  -8.941   0.132  0.00  0.00    +0.005 A 
ATOM     13  C   UNL     1      -6.421  -8.149  -0.515  0.00  0.00    +0.026 A 
ATOM     14  C   UNL     1      -6.879  -7.045  -1.287  0.00  0.00    +0.043 A 
ATOM     15  N   UNL     1      -6.234  -6.147  -1.994  0.00  0.00    -0.373 N 
ATOM     16  C   UNL     1      -9.598  -9.664   0.838  0.00  0.00    +0.044 C 
ATOM     17  C   UNL     1      -9.911  -5.115  -2.463  0.00  0.00    +0.042 C 
ATOM     18  H   UNL     1      -5.272  -6.097  -2.106  0.00  0.00    +0.160 HD
ENDBRANCH   4   7
BRANCH   1  19
ATOM     19  C   UNL     1      -3.507  -2.530  -1.421  0.00  0.00    +0.094 C 
BRANCH  19  20
ATOM     20  C   UNL     1      -3.014  -2.361   0.018  0.00  0.00    +0.115 C 
BRANCH  20  23
ATOM     21  C   UNL     1      -1.412  -0.526   0.013  0.00  0.00    +0.215 C 
ATOM     22  O   UNL     1      -2.344   0.250   0.026  0.00  0.00    -0.276 OA
ATOM     23  N   UNL     1      -1.640  -1.854   0.008  0.00  0.00    -0.304 N 
ATOM     24  C   UNL     1      -0.514  -2.791  -0.008  0.00  0.00    +0.132 C 
BRANCH  21  26
ATOM     25  C   UNL     1      -0.019   1.526   0.010  0.00  0.00    +0.013 C 
ATOM     26  C   UNL     1       0.002  -0.004   0.002  0.00  0.00    +0.092 C 
ENDBRANCH  21  26
ENDBRANCH  20  23
ENDBRANCH  19  20
ENDBRANCH   1  19
TORSDOF 5
