REMARK  Name = ZINC16926028
REMARK  7 active torsions:
REMARK  status: ('A' for Active; 'I' for Inactive)
REMARK    1  A    between atoms: C_1  and  C_2
REMARK    2  A    between atoms: C_4  and  O_27
REMARK    3  A    between atoms: C_7  and  N_8
REMARK    4  A    between atoms: C_9  and  C_11
REMARK    5  A    between atoms: C_11  and  C_12
REMARK    6  A    between atoms: N_16  and  C_20
REMARK    7  A    between atoms: C_24  and  O_26
REMARK                            x       y       z     vdW  Elec       q    Type
REMARK                         _______ _______ _______ _____ _____    ______ ____
ROOT
ATOM      1  C   UNL     1      -3.602  -0.888   0.130  0.00  0.00    +0.151 C 
ATOM      2  C   UNL     1      -2.325  -0.059   0.121  0.00  0.00    +0.241 C 
ATOM      3  O   UNL     1      -2.337   1.151   0.198  0.00  0.00    -0.274 OA
ATOM      4  N   UNL     1      -1.202  -0.750   0.018  0.00  0.00    -0.200 N 
ATOM      5  C   UNL     1      -1.164  -2.092  -0.064  0.00  0.00    +0.286 C 
ATOM      6  O   UNL     1      -0.187  -2.811  -0.155  0.00  0.00    -0.262 OA
ATOM      7  S   UNL     1      -2.884  -2.574  -0.006  0.00  0.00    -0.054 S 
ENDROOT
BRANCH   4   8
ATOM      8  C   UNL     1       0.011  -0.047   0.000  0.00  0.00    +0.048 A 
ATOM      9  C   UNL     1       0.309   0.799  -1.060  0.00  0.00    +0.024 A 
ATOM     10  C   UNL     1       1.504   1.492  -1.078  0.00  0.00    +0.005 A 
ATOM     11  C   UNL     1       2.406   1.344  -0.042  0.00  0.00    +0.045 A 
ATOM     12  C   UNL     1       2.115   0.500   1.020  0.00  0.00    +0.119 A 
ATOM     13  C   UNL     1       0.916  -0.197   1.041  0.00  0.00    +0.069 A 
BRANCH  12  14
ATOM     14  O   UNL     1       3.003   0.356   2.038  0.00  0.00    -0.507 OA
ATOM     15  H   UNL     1       3.642  -0.357   1.905  0.00  0.00    +0.292 HD
ENDBRANCH  12  14
ENDBRANCH   4   8
BRANCH   1  16
ATOM     16  C   UNL     1      -4.491  -0.563  -1.071  0.00  0.00    +0.120 C 
BRANCH  16  18
ATOM     17  N   UNL     1      -6.633  -1.350  -2.025  0.00  0.00    -0.285 N 
ATOM     18  C   UNL     1      -5.704  -1.458  -1.056  0.00  0.00    +0.219 C 
ATOM     19  O   UNL     1      -5.843  -2.275  -0.170  0.00  0.00    -0.275 OA
ATOM     20  H   UNL     1      -6.495  -0.737  -2.764  0.00  0.00    +0.155 HD
BRANCH  17  27
ATOM     21  C   UNL     1      -8.955  -0.382  -3.353  0.00  0.00    +0.046 C 
ATOM     22  C   UNL     1      -8.955  -1.688  -2.601  0.00  0.00    -0.026 A 
ATOM     23  C   UNL     1     -10.105  -2.451  -2.543  0.00  0.00    +0.050 A 
ATOM     24  C   UNL     1     -10.105  -3.653  -1.850  0.00  0.00    +0.117 A 
ATOM     25  C   UNL     1      -8.951  -4.089  -1.216  0.00  0.00    +0.047 A 
ATOM     26  C   UNL     1      -7.800  -3.330  -1.278  0.00  0.00    +0.027 A 
ATOM     27  C   UNL     1      -7.800  -2.124  -1.966  0.00  0.00    +0.037 A 
BRANCH  24  28
ATOM     28  O   UNL     1     -11.237  -4.404  -1.794  0.00  0.00    -0.507 OA
ATOM     29  H   UNL     1     -11.320  -5.045  -2.513  0.00  0.00    +0.292 HD
ENDBRANCH  24  28
ENDBRANCH  17  27
ENDBRANCH  16  18
ENDBRANCH   1  16
TORSDOF 6
