REMARK  Name = ZINC50416729
REMARK  9 active torsions:
REMARK  status: ('A' for Active; 'I' for Inactive)
REMARK    1  A    between atoms: C_1  and  C_2
REMARK    2  A    between atoms: C_2  and  C_4
REMARK    3  A    between atoms: C_2  and  N_10
REMARK    4  A    between atoms: N_8  and  C_9
REMARK    5  A    between atoms: C_11  and  C_13
REMARK    6  A    between atoms: C_15  and  N_22
REMARK    7  A    between atoms: C_18  and  N_19
REMARK    8  A    between atoms: N_19  and  C_20
REMARK    9  A    between atoms: N_19  and  C_21
REMARK                            x       y       z     vdW  Elec       q    Type
REMARK                         _______ _______ _______ _____ _____    ______ ____
ROOT
ATOM      1  N   UNL     1       0.711  -0.489   1.189  0.00  0.00    -0.302 N 
ATOM      2  C   UNL     1       2.054  -0.600   1.174  0.00  0.00    +0.246 C 
ATOM      3  O   UNL     1       2.678  -0.297   0.175  0.00  0.00    -0.270 OA
ATOM      4  H   UNL     1       0.213  -0.731   1.986  0.00  0.00    +0.150 HD
ENDROOT
BRANCH   2   5
ATOM      5  C   UNL     1       2.767  -1.088   2.368  0.00  0.00    +0.059 A 
ATOM      6  C   UNL     1       2.053  -1.443   3.516  0.00  0.00    +0.037 A 
ATOM      7  C   UNL     1       2.729  -1.901   4.633  0.00  0.00    +0.025 A 
ATOM      8  C   UNL     1       4.117  -2.009   4.616  0.00  0.00    +0.024 A 
ATOM      9  C   UNL     1       4.829  -1.661   3.488  0.00  0.00    +0.025 A 
ATOM     10  C   UNL     1       4.165  -1.205   2.356  0.00  0.00    +0.042 A 
BRANCH  10  11
ATOM     11  N   UNL     1       4.884  -0.859   1.216  0.00  0.00    -0.335 N 
ATOM     12  C   UNL     1       5.160  -1.868   0.191  0.00  0.00    +0.129 C 
ATOM     13  C   UNL     1       5.366   0.513   1.042  0.00  0.00    +0.129 C 
ENDBRANCH  10  11
BRANCH   7  14
ATOM     14  N   UNL     1       2.015  -2.257   5.784  0.00  0.00    -0.358 N 
ATOM     15  H   UNL     1       1.048  -2.182   5.797  0.00  0.00    +0.142 HD
ATOM     16  H   UNL     1       2.488  -2.578   6.568  0.00  0.00    +0.142 HD
ENDBRANCH   7  14
ENDBRANCH   2   5
BRANCH   1  18
ATOM     17  C   UNL     1      -0.019   1.526   0.010  0.00  0.00    +0.036 C 
ATOM     18  C   UNL     1       0.002  -0.004   0.002  0.00  0.00    +0.138 C 
BRANCH  18  19
ATOM     19  C   UNL     1      -1.412  -0.526   0.013  0.00  0.00    +0.153 A 
ATOM     20  N   UNL     1      -2.224  -0.538   1.034  0.00  0.00    -0.133 NA
ATOM     21  N   UNL     1      -3.349  -1.054   0.686  0.00  0.00    -0.138 NA
ATOM     22  C   UNL     1      -3.307  -1.393  -0.573  0.00  0.00    +0.224 A 
ATOM     23  N   UNL     1      -2.077  -1.063  -1.038  0.00  0.00    -0.319 N 
ATOM     24  C   UNL     1      -1.570  -1.252  -2.399  0.00  0.00    +0.151 C 
ENDBRANCH  18  19
ENDBRANCH   1  18
TORSDOF 5
