REMARK  Name = ZINC51168255
REMARK  3 active torsions:
REMARK  status: ('A' for Active; 'I' for Inactive)
REMARK    1  A    between atoms: C_5  and  C_6
REMARK    2  A    between atoms: C_10  and  N_12
REMARK    3  A    between atoms: N_12  and  N_13
REMARK                            x       y       z     vdW  Elec       q    Type
REMARK                         _______ _______ _______ _____ _____    ______ ____
ROOT
ATOM      1  C   UNL     1      -1.131  -0.949   0.009  0.00  0.00    +0.169 A 
ATOM      2  N   UNL     1      -0.885  -2.255   0.004  0.00  0.00    -0.231 NA
ATOM      3  C   UNL     1      -1.877  -3.134   0.010  0.00  0.00    +0.050 A 
ATOM      4  C   UNL     1      -3.180  -2.679   0.021  0.00  0.00    +0.015 A 
ATOM      5  C   UNL     1      -3.410  -1.301   0.024  0.00  0.00    +0.139 A 
ATOM      6  N   UNL     1      -2.371  -0.474   0.024  0.00  0.00    -0.211 NA
ATOM      7  C   UNL     1      -4.135  -3.850   0.026  0.00  0.00    +0.041 C 
ATOM      8  C   UNL     1      -3.288  -5.062  -0.419  0.00  0.00    +0.011 C 
ATOM      9  C   UNL     1      -1.864  -4.646   0.008  0.00  0.00    +0.056 C 
ENDROOT
BRANCH   1  14
ATOM     10  C   UNL     1      -0.017   1.367   0.010  0.00  0.00    +0.034 A 
ATOM     11  C   UNL     1       1.181   2.045   0.002  0.00  0.00    +0.026 A 
ATOM     12  C   UNL     1       2.342   1.337  -0.013  0.00  0.00    +0.061 A 
ATOM     13  S   UNL     1       1.754  -0.348  -0.017  0.00  0.00    -0.092 S 
ATOM     14  C   UNL     1       0.002  -0.004   0.002  0.00  0.00    +0.057 A 
ATOM     15 BR   UNL     1       1.211   3.935   0.011  0.00  0.00    -0.050 Br
ENDBRANCH   1  14
BRANCH   5  16
ATOM     16  N   UNL     1      -4.704  -0.804   0.035  0.00  0.00    -0.267 N 
ATOM     17  H   UNL     1      -5.458  -1.414   0.040  0.00  0.00    +0.167 HD
BRANCH  16  18
ATOM     18  N   UNL     1      -4.917   0.545   0.038  0.00  0.00    -0.255 NA
ATOM     19  H   UNL     1      -5.904   0.755   0.046  0.00  0.00    +0.140 HD
ATOM     20  H   UNL     1      -4.448   0.984   0.817  0.00  0.00    +0.140 HD
ENDBRANCH  16  18
ENDBRANCH   5  16
TORSDOF 3
