REMARK  Name = ZINC49549818
REMARK  2 active torsions:
REMARK  status: ('A' for Active; 'I' for Inactive)
REMARK    1  A    between atoms: C_5  and  C_7
REMARK    2  A    between atoms: C_13  and  C_15
REMARK                            x       y       z     vdW  Elec       q    Type
REMARK                         _______ _______ _______ _____ _____    ______ ____
ROOT
ATOM      1  C   UNL     1       1.271  -2.141  -0.022  0.00  0.00    +0.204 A 
ATOM      2  N   UNL     1       0.230  -2.943  -0.022  0.00  0.00    -0.125 NA
ATOM      3  N   UNL     1       0.622  -4.170  -0.031  0.00  0.00    -0.120 NA
ATOM      4  C   UNL     1       1.923  -4.212  -0.037  0.00  0.00    +0.219 A 
ATOM      5  N   UNL     1       2.413  -2.930  -0.038  0.00  0.00    -0.184 N 
ATOM      6  N   UNL     1       3.795  -2.793  -0.050  0.00  0.00    -0.154 NA
ATOM      7  C   UNL     1       4.579  -3.841  -0.064  0.00  0.00    +0.153 A 
ATOM      8  S   UNL     1       3.406  -5.188  -0.049  0.00  0.00    -0.025 S 
ENDROOT
BRANCH   7   9
ATOM      9  C   UNL     1       6.058  -3.896  -0.079  0.00  0.00    +0.133 A 
ATOM     10  C   UNL     1       6.845  -5.066  -0.099  0.00  0.00    +0.065 A 
ATOM     11  C   UNL     1       8.143  -4.692  -0.107  0.00  0.00    +0.120 A 
ATOM     12  N   UNL     1       8.188  -3.341  -0.093  0.00  0.00    -0.283 N 
ATOM     13  H   UNL     1       8.992  -2.799  -0.095  0.00  0.00    +0.188 HD
ATOM     14  N   UNL     1       6.872  -2.861  -0.081  0.00  0.00    -0.171 NA
ATOM     15 BR   UNL     1       6.198  -6.843  -0.111  0.00  0.00    -0.046 Br
ENDBRANCH   7   9
BRANCH   1  20
ATOM     16  C   UNL     1      -0.017   1.378   0.010  0.00  0.00    +0.004 A 
ATOM     17  C   UNL     1       1.194   2.059   0.002  0.00  0.00    +0.020 A 
ATOM     18  C   UNL     1       2.376   1.342  -0.013  0.00  0.00    +0.111 A 
ATOM     19  N   UNL     1       2.368   0.024  -0.020  0.00  0.00    -0.252 NA
ATOM     20  C   UNL     1       1.232  -0.665  -0.013  0.00  0.00    +0.110 A 
ATOM     21  C   UNL     1       0.002  -0.004   0.002  0.00  0.00    +0.031 A 
ENDBRANCH   1  20
TORSDOF 2
