REMARK  Name = ZINC08926310
REMARK  10 active torsions:
REMARK  status: ('A' for Active; 'I' for Inactive)
REMARK    1  A    between atoms: C_1  and  C_2
REMARK    2  A    between atoms: C_2  and  C_3
REMARK    3  A    between atoms: C_2  and  C_4
REMARK    4  A    between atoms: C_2  and  O_5
REMARK    5  A    between atoms: O_5  and  C_6
REMARK    6  A    between atoms: C_15  and  C_27
REMARK    7  A    between atoms: C_17  and  C_23
REMARK    8  A    between atoms: C_17  and  C_25
REMARK    9  A    between atoms: C_18  and  N_22
REMARK   10  A    between atoms: C_19  and  C_20
REMARK                            x       y       z     vdW  Elec       q    Type
REMARK                         _______ _______ _______ _____ _____    ______ ____
ROOT
ATOM      1  C   UNL     1      -3.153   4.577  -3.336  0.00  0.00    +0.404 C 
ATOM      2  O   UNL     1      -2.327   4.387  -4.206  0.00  0.00    -0.226 OA
ATOM      3  N   UNL     1      -3.478   3.583  -2.485  0.00  0.00    -0.263 N 
ATOM      4  C   UNL     1      -4.476   3.779  -1.418  0.00  0.00    +0.138 C 
ATOM      5  C   UNL     1      -3.807   3.426  -0.114  0.00  0.00    -0.003 C 
ATOM      6  C   UNL     1      -2.807   2.591  -0.080  0.00  0.00    -0.026 C 
ATOM      7  C   UNL     1      -2.261   1.836  -1.256  0.00  0.00    +0.048 C 
ATOM      8  C   UNL     1      -2.852   2.260  -2.582  0.00  0.00    +0.120 C 
ATOM      9  C   UNL     1      -0.737   1.964  -1.245  0.00  0.00    +0.068 C 
ATOM     10  C   UNL     1      -0.194   1.301   0.021  0.00  0.00    +0.188 C 
ATOM     11  C   UNL     1      -0.904   1.790   1.248  0.00  0.00    +0.054 C 
ATOM     12  C   UNL     1      -2.123   2.381   1.225  0.00  0.00    +0.074 C 
ENDROOT
BRANCH   9  13
ATOM     13  C   UNL     1      -0.164   1.279  -2.459  0.00  0.00    -0.041 A 
ATOM     14  C   UNL     1      -0.635   0.035  -2.836  0.00  0.00    +0.005 A 
ATOM     15  C   UNL     1      -0.114  -0.592  -3.953  0.00  0.00    +0.020 A 
ATOM     16  C   UNL     1       0.886   0.021  -4.686  0.00  0.00    +0.041 A 
ATOM     17  C   UNL     1       1.361   1.263  -4.304  0.00  0.00    +0.020 A 
ATOM     18  C   UNL     1       0.836   1.891  -3.191  0.00  0.00    +0.005 A 
ATOM     19 CL   UNL     1       1.546  -0.769  -6.084  0.00  0.00    -0.084 Cl
ENDBRANCH   9  13
BRANCH  11  20
ATOM     20  N   UNL     1      -0.289   1.629   2.457  0.00  0.00    -0.358 N 
ATOM     21  H   UNL     1      -0.784   1.977   3.376  0.00  0.00    +0.142 HD
ATOM     22  H   UNL     1       0.701   1.152   2.512  0.00  0.00    +0.142 HD
ENDBRANCH  11  20
BRANCH  12  23
ATOM     23  C   UNL     1      -2.747   2.800   2.443  0.00  0.00    +0.101 C 
ATOM     24  N   UNL     1      -3.242   3.133   3.410  0.00  0.00    -0.191 NA
ENDBRANCH  12  23
BRANCH  10  25
ATOM     25  C   UNL     1      -0.368  -0.157  -0.087  0.00  0.00    +0.091 C 
ATOM     26  N   UNL     1      -0.503  -1.281  -0.170  0.00  0.00    -0.194 NA
ENDBRANCH  10  25
BRANCH  10  27
ATOM     27  C   UNL     1       1.242   1.605   0.145  0.00  0.00    +0.091 C 
ATOM     28  N   UNL     1       2.349   1.839   0.240  0.00  0.00    -0.194 NA
ENDBRANCH  10  27
BRANCH   1  29
ATOM     29  O   UNL     1      -3.746   5.781  -3.221  0.00  0.00    -0.445 OA
BRANCH  29  31
ATOM     30  C   UNL     1      -3.655   6.328  -5.593  0.00  0.00    +0.055 C 
ATOM     31  C   UNL     1      -3.348   6.804  -4.172  0.00  0.00    +0.107 C 
ATOM     32  C   UNL     1      -4.122   8.093  -3.887  0.00  0.00    +0.055 C 
ATOM     33  C   UNL     1      -1.847   7.070  -4.037  0.00  0.00    +0.055 C 
ENDBRANCH  29  31
ENDBRANCH   1  29
TORSDOF 7
