REMARK  Name = ZINC65329788
REMARK  3 active torsions:
REMARK  status: ('A' for Active; 'I' for Inactive)
REMARK    1  A    between atoms: C_1  and  C_2
REMARK    2  A    between atoms: C_3  and  C_13
REMARK    3  A    between atoms: N_15  and  C_16
REMARK                            x       y       z     vdW  Elec       q    Type
REMARK                         _______ _______ _______ _____ _____    ______ ____
ROOT
ATOM      1  C   UNL     1      -0.010   1.490   0.015  0.00  0.00    +0.087 C 
ATOM      2  C   UNL     1       0.004  -0.017   0.004  0.00  0.00    +0.117 A 
ATOM      3  C   UNL     1      -1.102  -0.812   0.003  0.00  0.00    +0.092 A 
ATOM      4  C   UNL     1      -0.595  -2.194  -0.009  0.00  0.00    +0.116 A 
ATOM      5  C   UNL     1      -1.188  -3.475  -0.016  0.00  0.00    +0.263 A 
ATOM      6  O   UNL     1      -2.400  -3.605  -0.013  0.00  0.00    -0.267 OA
ATOM      7  N   UNL     1      -0.372  -4.554  -0.028  0.00  0.00    -0.313 N 
ATOM      8  H   UNL     1      -0.750  -5.447  -0.033  0.00  0.00    +0.170 HD
ATOM      9  C   UNL     1       0.974  -4.387  -0.032  0.00  0.00    +0.203 A 
ATOM     10  N   UNL     1       1.532  -3.209  -0.025  0.00  0.00    -0.202 NA
ATOM     11  C   UNL     1       0.796  -2.087  -0.015  0.00  0.00    +0.235 A 
ATOM     12  O   UNL     1       1.105  -0.780  -0.012  0.00  0.00    -0.441 OA
ENDROOT
BRANCH   3  13
ATOM     13  C   UNL     1      -2.509  -0.380   0.012  0.00  0.00    +0.252 C 
ATOM     14  O   UNL     1      -3.095  -0.194  -1.037  0.00  0.00    -0.270 OA
ATOM     15  N   UNL     1      -3.148  -0.190   1.184  0.00  0.00    -0.280 N 
ATOM     16  H   UNL     1      -2.703  -0.403   2.019  0.00  0.00    +0.155 HD
BRANCH  15  17
ATOM     17  C   UNL     1      -4.453   0.314   1.195  0.00  0.00    +0.052 A 
ATOM     18  C   UNL     1      -5.353  -0.032   0.190  0.00  0.00    +0.026 A 
ATOM     19  C   UNL     1      -6.634   0.493   0.244  0.00  0.00    +0.021 A 
ATOM     20  C   UNL     1      -6.974   1.335   1.286  0.00  0.00    +0.111 A 
ATOM     21  N   UNL     1      -6.099   1.643   2.223  0.00  0.00    -0.261 NA
ATOM     22  C   UNL     1      -4.872   1.162   2.212  0.00  0.00    +0.134 A 
ENDBRANCH  15  17
ENDBRANCH   3  13
TORSDOF 2
