REMARK  Name = ZINC65385392
REMARK  3 active torsions:
REMARK  status: ('A' for Active; 'I' for Inactive)
REMARK    1  A    between atoms: C_1  and  C_2
REMARK    2  A    between atoms: C_2  and  C_24
REMARK    3  A    between atoms: C_6  and  C_11
REMARK                            x       y       z     vdW  Elec       q    Type
REMARK                         _______ _______ _______ _____ _____    ______ ____
ROOT
ATOM      1  C   UNL     1      -2.358  -5.105   2.403  0.00  0.00    +0.066 C 
ATOM      2  C   UNL     1      -1.649  -6.352   1.900  0.00  0.00    +0.109 C 
ATOM      3  C   UNL     1      -2.522  -7.558   2.064  0.00  0.00    +0.214 C 
ATOM      4  O   UNL     1      -2.954  -8.107   1.073  0.00  0.00    -0.276 OA
ATOM      5  N   UNL     1      -2.839  -8.050   3.258  0.00  0.00    -0.310 N 
ATOM      6  C   UNL     1      -2.199  -7.587   4.478  0.00  0.00    +0.160 C 
ATOM      7  C   UNL     1      -2.544  -6.142   4.780  0.00  0.00    +0.071 A 
ATOM      8  C   UNL     1      -2.619  -5.158   3.873  0.00  0.00    +0.024 A 
ATOM      9  S   UNL     1      -3.143  -3.768   4.862  0.00  0.00    -0.057 S 
ATOM     10  C   UNL     1      -3.151  -4.546   6.353  0.00  0.00    +0.156 A 
ATOM     11  N   UNL     1      -2.807  -5.766   6.044  0.00  0.00    -0.228 NA
ATOM     12  N   UNL     1      -3.453  -4.022   7.600  0.00  0.00    -0.338 N 
ATOM     13  H   UNL     1      -3.519  -8.739   3.316  0.00  0.00    +0.149 HD
ATOM     14  H   UNL     1      -3.699  -3.088   7.687  0.00  0.00    +0.144 HD
ATOM     15  H   UNL     1      -3.418  -4.589   8.386  0.00  0.00    +0.144 HD
ENDROOT
BRANCH   1  21
ATOM     16  C   UNL     1      -0.019   1.526   0.010  0.00  0.00    +0.056 C 
ATOM     17  C   UNL     1       0.002  -0.004   0.002  0.00  0.00    +0.109 C 
ATOM     18  C   UNL     1      -1.430  -0.572   0.143  0.00  0.00    +0.086 C 
ATOM     19  C   UNL     1      -1.196  -1.802   1.000  0.00  0.00    -0.002 A 
ATOM     20  C   UNL     1      -1.980  -2.901   1.273  0.00  0.00    +0.011 A 
ATOM     21  C   UNL     1      -1.503  -3.901   2.102  0.00  0.00    -0.038 A 
ATOM     22  C   UNL     1      -0.240  -3.792   2.653  0.00  0.00    +0.008 A 
ATOM     23  C   UNL     1       0.545  -2.690   2.384  0.00  0.00    +0.046 A 
ATOM     24  C   UNL     1       0.072  -1.677   1.553  0.00  0.00    +0.125 A 
ATOM     25  O   UNL     1       0.663  -0.511   1.174  0.00  0.00    -0.486 OA
ATOM     26  C   UNL     1       0.675  -0.528  -1.268  0.00  0.00    +0.056 C 
ENDBRANCH   1  21
TORSDOF 1
