REMARK  Name = ZINC65217034
REMARK  7 active torsions:
REMARK  status: ('A' for Active; 'I' for Inactive)
REMARK    1  A    between atoms: C_1  and  C_2
REMARK    2  A    between atoms: C_2  and  N_3
REMARK    3  A    between atoms: C_6  and  C_8
REMARK    4  A    between atoms: N_10  and  C_11
REMARK    5  A    between atoms: C_11  and  C_12
REMARK    6  A    between atoms: C_13  and  C_21
REMARK    7  A    between atoms: C_18  and  C_20
REMARK                            x       y       z     vdW  Elec       q    Type
REMARK                         _______ _______ _______ _____ _____    ______ ____
ROOT
ATOM      1  C   UNL     1      -4.654  -0.724   1.381  0.00  0.00    +0.264 C 
ATOM      2  O   UNL     1      -5.631  -1.354   1.026  0.00  0.00    -0.268 OA
ATOM      3  N   UNL     1      -4.719   0.062   2.474  0.00  0.00    -0.304 N 
ATOM      4  H   UNL     1      -3.939   0.564   2.757  0.00  0.00    +0.149 HD
ENDROOT
BRANCH   1   8
ATOM      5  N   UNL     1      -1.372  -0.511   0.012  0.00  0.00    -0.271 N 
ATOM      6  C   UNL     1      -1.884  -1.374  -0.892  0.00  0.00    +0.109 A 
ATOM      7  C   UNL     1      -3.173  -1.600  -0.545  0.00  0.00    +0.054 A 
ATOM      8  C   UNL     1      -3.395  -0.821   0.615  0.00  0.00    +0.147 A 
ATOM      9  N   UNL     1      -2.262  -0.203   0.886  0.00  0.00    -0.167 NA
BRANCH   5  11
ATOM     10  C   UNL     1      -0.019   1.526   0.010  0.00  0.00    +0.029 C 
ATOM     11  C   UNL     1       0.002  -0.004   0.002  0.00  0.00    +0.140 C 
ENDBRANCH   5  11
ENDBRANCH   1   8
BRANCH   3  12
ATOM     12  C   UNL     1      -5.968   0.158   3.234  0.00  0.00    +0.162 C 
BRANCH  12  13
ATOM     13  C   UNL     1      -5.777   1.095   4.399  0.00  0.00    +0.084 A 
ATOM     14  C   UNL     1      -5.357   0.753   5.630  0.00  0.00    +0.064 A 
ATOM     15  N   UNL     1      -5.315   1.861   6.384  0.00  0.00    -0.225 NA
ATOM     16  C   UNL     1      -5.693   2.877   5.663  0.00  0.00    +0.196 A 
ATOM     17  N   UNL     1      -5.996   2.467   4.392  0.00  0.00    -0.209 N 
ATOM     18  N   UNL     1      -6.411   3.454   3.505  0.00  0.00    -0.162 NA
ATOM     19  C   UNL     1      -6.502   4.698   3.870  0.00  0.00    +0.099 A 
ATOM     20  S   UNL     1      -6.001   4.625   5.582  0.00  0.00    -0.033 S 
ATOM     21  C   UNL     1      -6.929   5.893   3.058  0.00  0.00    +0.075 C 
ATOM     22  C   UNL     1      -4.997  -0.638   6.085  0.00  0.00    +0.067 C 
ENDBRANCH  12  13
ENDBRANCH   3  12
TORSDOF 4
