REMARK  Name = ZINC45623063
REMARK  4 active torsions:
REMARK  status: ('A' for Active; 'I' for Inactive)
REMARK    1  A    between atoms: C_1  and  C_2
REMARK    2  A    between atoms: C_5  and  N_9
REMARK    3  A    between atoms: C_10  and  C_12
REMARK    4  A    between atoms: C_14  and  N_19
REMARK                            x       y       z     vdW  Elec       q    Type
REMARK                         _______ _______ _______ _____ _____    ______ ____
ROOT
ATOM      1  N   UNL     1       0.057  -4.170  -0.023  0.00  0.00    -0.280 N 
ATOM      2  C   UNL     1      -0.042  -4.838  -1.190  0.00  0.00    +0.249 C 
ATOM      3  O   UNL     1      -0.055  -4.228  -2.241  0.00  0.00    -0.270 OA
ATOM      4  H   UNL     1       0.149  -4.659   0.809  0.00  0.00    +0.155 HD
ENDROOT
BRANCH   1   9
ATOM      5  C   UNL     1      -0.064   1.502   0.016  0.00  0.00    +0.044 C 
ATOM      6  C   UNL     1      -0.031  -0.005   0.006  0.00  0.00    -0.049 A 
ATOM      7  C   UNL     1      -0.622  -0.701  -1.033  0.00  0.00    +0.005 A 
ATOM      8  C   UNL     1      -0.595  -2.082  -1.045  0.00  0.00    +0.025 A 
ATOM      9  C   UNL     1       0.028  -2.772  -0.014  0.00  0.00    +0.052 A 
ATOM     10  C   UNL     1       0.621  -2.070   1.029  0.00  0.00    +0.062 A 
ATOM     11  C   UNL     1       0.595  -0.688   1.032  0.00  0.00    +0.025 A 
ATOM     12 CL   UNL     1       1.401  -2.927   2.321  0.00  0.00    -0.082 Cl
ENDBRANCH   1   9
BRANCH   2  13
ATOM     13  C   UNL     1      -0.134  -6.313  -1.191  0.00  0.00    +0.053 A 
ATOM     14  C   UNL     1      -0.125  -7.016   0.015  0.00  0.00    +0.037 A 
ATOM     15  C   UNL     1      -0.212  -8.399   0.005  0.00  0.00    +0.025 A 
ATOM     16  C   UNL     1      -0.309  -9.082  -1.202  0.00  0.00    +0.024 A 
ATOM     17  C   UNL     1      -0.318  -8.387  -2.396  0.00  0.00    +0.018 A 
ATOM     18  C   UNL     1      -0.237  -7.008  -2.398  0.00  0.00    +0.030 A 
ATOM     19 BR   UNL     1      -0.258  -6.062  -4.035  0.00  0.00    -0.050 Br
BRANCH  15  20
ATOM     20  N   UNL     1      -0.203  -9.108   1.210  0.00  0.00    -0.358 N 
ATOM     21  H   UNL     1      -0.135  -8.632   2.052  0.00  0.00    +0.142 HD
ATOM     22  H   UNL     1      -0.264 -10.076   1.204  0.00  0.00    +0.142 HD
ENDBRANCH  15  20
ENDBRANCH   2  13
TORSDOF 3
