REMARK  Name = ZINC65396578
REMARK  3 active torsions:
REMARK  status: ('A' for Active; 'I' for Inactive)
REMARK    1  A    between atoms: C_1  and  N_2
REMARK    2  A    between atoms: C_6  and  C_11
REMARK    3  A    between atoms: C_19  and  C_23
REMARK                            x       y       z     vdW  Elec       q    Type
REMARK                         _______ _______ _______ _____ _____    ______ ____
ROOT
ATOM      1  C   UNL     1       0.038  -4.101  -3.840  0.00  0.00    +0.063 C 
ATOM      2  C   UNL     1       1.273  -4.004  -4.740  0.00  0.00    +0.109 C 
ATOM      3  C   UNL     1       1.121  -2.926  -5.774  0.00  0.00    +0.219 C 
ATOM      4  O   UNL     1       2.082  -2.238  -6.044  0.00  0.00    -0.275 OA
ATOM      5  N   UNL     1      -0.043  -2.694  -6.415  0.00  0.00    -0.269 N 
ATOM      6  C   UNL     1      -1.194  -3.349  -5.947  0.00  0.00    +0.151 A 
ATOM      7  C   UNL     1      -1.190  -4.037  -4.714  0.00  0.00    +0.028 A 
ATOM      8  C   UNL     1      -2.420  -4.568  -4.525  0.00  0.00    +0.071 A 
ATOM      9  N   UNL     1      -3.183  -4.215  -5.604  0.00  0.00    -0.275 N 
ATOM     10  H   UNL     1      -4.112  -4.454  -5.748  0.00  0.00    +0.189 HD
ATOM     11  N   UNL     1      -2.382  -3.445  -6.467  0.00  0.00    -0.158 NA
ATOM     12  H   UNL     1      -0.085  -2.092  -7.175  0.00  0.00    +0.156 HD
ENDROOT
BRANCH   1  18
ATOM     13  C   UNL     1      -0.018   1.461   0.010  0.00  0.00    +0.175 C 
ATOM     14  N   UNL     1       0.002  -0.004   0.002  0.00  0.00    -0.247 N 
ATOM     15  C   UNL     1       0.008  -0.821  -1.104  0.00  0.00    +0.089 A 
ATOM     16  C   UNL     1      -0.001  -0.590  -2.475  0.00  0.00    +0.030 A 
ATOM     17  C   UNL     1       0.009  -1.647  -3.342  0.00  0.00    +0.006 A 
ATOM     18  C   UNL     1       0.028  -2.951  -2.865  0.00  0.00    -0.037 A 
ATOM     19  C   UNL     1       0.038  -3.204  -1.525  0.00  0.00    +0.036 A 
ATOM     20  C   UNL     1       0.028  -2.138  -0.615  0.00  0.00    +0.113 A 
ATOM     21  N   UNL     1       0.033  -2.075   0.731  0.00  0.00    -0.129 NA
ATOM     22  N   UNL     1       0.025  -0.850   1.121  0.00  0.00    -0.065 NA
ENDBRANCH   1  18
BRANCH   8  23
ATOM     23  C   UNL     1      -2.858  -5.378  -3.368  0.00  0.00    +0.000 A 
ATOM     24  C   UNL     1      -2.042  -6.397  -2.877  0.00  0.00    +0.010 A 
ATOM     25  C   UNL     1      -2.456  -7.149  -1.796  0.00  0.00    +0.001 A 
ATOM     26  C   UNL     1      -3.678  -6.895  -1.201  0.00  0.00    +0.000 A 
ATOM     27  C   UNL     1      -4.493  -5.886  -1.683  0.00  0.00    +0.001 A 
ATOM     28  C   UNL     1      -4.088  -5.123  -2.759  0.00  0.00    +0.010 A 
ENDBRANCH   8  23
TORSDOF 2
