REMARK  Name = ZINC39769362
REMARK  11 active torsions:
REMARK  status: ('A' for Active; 'I' for Inactive)
REMARK    1  A    between atoms: C_1  and  C_2
REMARK    2  A    between atoms: C_2  and  N_3
REMARK    3  A    between atoms: C_4  and  N_29
REMARK    4  A    between atoms: C_5  and  C_13
REMARK    5  A    between atoms: C_6  and  C_12
REMARK    6  A    between atoms: C_7  and  C_10
REMARK    7  A    between atoms: N_17  and  C_21
REMARK    8  A    between atoms: C_21  and  C_22
REMARK    9  A    between atoms: C_22  and  C_23
REMARK   10  A    between atoms: C_31  and  C_38
REMARK   11  A    between atoms: C_34  and  C_37
REMARK                            x       y       z     vdW  Elec       q    Type
REMARK                         _______ _______ _______ _____ _____    ______ ____
ROOT
ATOM      1  N   UNL     1      -1.739  -0.577  -0.407  0.00  0.00    -0.295 N 
ATOM      2  C   UNL     1      -2.196  -0.759   0.858  0.00  0.00    +0.112 A 
ATOM      3  C   UNL     1      -3.330  -1.551   1.101  0.00  0.00    +0.019 A 
ATOM      4  C   UNL     1      -3.994  -2.156   0.020  0.00  0.00    -0.017 A 
ATOM      5  C   UNL     1      -3.506  -1.954  -1.268  0.00  0.00    +0.120 A 
ATOM      6  C   UNL     1      -2.360  -1.141  -1.459  0.00  0.00    +0.270 A 
ATOM      7  O   UNL     1      -1.931  -0.956  -2.584  0.00  0.00    -0.266 OA
ATOM      8  C   UNL     1      -5.213  -3.011   0.252  0.00  0.00    +0.046 C 
ENDROOT
BRANCH   3   9
ATOM      9  C   UNL     1      -3.817  -1.744   2.468  0.00  0.00    +0.032 C 
ATOM     10  C   UNL     1      -5.027  -1.240   2.837  0.00  0.00    +0.077 C 
ATOM     11  C   UNL     1      -5.929  -0.413   2.102  0.00  0.00    +0.258 C 
ATOM     12  O   UNL     1      -5.667  -0.051   0.969  0.00  0.00    -0.269 OA
ATOM     13  N   UNL     1      -7.057  -0.052   2.688  0.00  0.00    -0.255 N 
ATOM     14  C   UNL     1      -7.348  -0.454   3.945  0.00  0.00    +0.121 C 
ATOM     15  S   UNL     1      -8.734  -0.109   4.888  0.00  0.00    -0.027 S 
ATOM     16  S   UNL     1      -5.921  -1.441   4.371  0.00  0.00    -0.061 S 
BRANCH  13  17
ATOM     17  C   UNL     1      -8.007   0.797   1.964  0.00  0.00    +0.119 C 
BRANCH  17  18
ATOM     18  C   UNL     1      -8.987  -0.084   1.186  0.00  0.00    +0.054 C 
BRANCH  18  19
ATOM     19  C   UNL     1      -9.964   0.789   0.441  0.00  0.00    -0.046 A 
ATOM     20  C   UNL     1     -11.145   1.177   1.046  0.00  0.00    +0.004 A 
ATOM     21  C   UNL     1     -12.041   1.978   0.363  0.00  0.00    +0.000 A 
ATOM     22  C   UNL     1     -11.756   2.391  -0.925  0.00  0.00    +0.000 A 
ATOM     23  C   UNL     1     -10.575   2.003  -1.530  0.00  0.00    +0.000 A 
ATOM     24  C   UNL     1      -9.677   1.206  -0.845  0.00  0.00    +0.004 A 
ENDBRANCH  18  19
ENDBRANCH  17  18
ENDBRANCH  13  17
ENDBRANCH   3   9
BRANCH   2  25
ATOM     25  N   UNL     1      -1.547  -0.168   1.903  0.00  0.00    -0.315 N 
ATOM     26  C   UNL     1      -1.998   1.128   2.428  0.00  0.00    +0.109 C 
ATOM     27  C   UNL     1      -2.224   0.998   3.937  0.00  0.00    +0.004 C 
ATOM     28  C   UNL     1      -0.951   0.462   4.596  0.00  0.00    +0.009 C 
ATOM     29  C   UNL     1      -0.630  -0.925   4.034  0.00  0.00    +0.004 C 
ATOM     30  C   UNL     1      -0.389  -0.820   2.530  0.00  0.00    +0.109 C 
ATOM     31  C   UNL     1       0.624  -1.475   4.717  0.00  0.00    +0.009 C 
ATOM     32  C   UNL     1      -2.564   2.370   4.523  0.00  0.00    +0.009 C 
ENDBRANCH   2  25
BRANCH   1  34
ATOM     33  C   UNL     1      -0.987   1.683  -0.964  0.00  0.00    +0.027 C 
ATOM     34  C   UNL     1      -0.553   0.254  -0.632  0.00  0.00    +0.123 C 
ENDBRANCH   1  34
BRANCH   5  35
ATOM     35  C   UNL     1      -4.159  -2.557  -2.390  0.00  0.00    +0.105 C 
ATOM     36  N   UNL     1      -4.677  -3.035  -3.281  0.00  0.00    -0.191 NA
ENDBRANCH   5  35
TORSDOF 7
