REMARK  Name = ZINC51506166
REMARK  10 active torsions:
REMARK  status: ('A' for Active; 'I' for Inactive)
REMARK    1  A    between atoms: C_1  and  N_2
REMARK    2  A    between atoms: N_2  and  C_3
REMARK    3  A    between atoms: N_2  and  C_15
REMARK    4  A    between atoms: C_3  and  C_4
REMARK    5  A    between atoms: C_15  and  C_16
REMARK    6  A    between atoms: N_18  and  C_19
REMARK    7  A    between atoms: C_19  and  C_20
REMARK    8  A    between atoms: C_23  and  N_26
REMARK    9  A    between atoms: C_27  and  O_29
REMARK   10  A    between atoms: O_29  and  C_30
REMARK                            x       y       z     vdW  Elec       q    Type
REMARK                         _______ _______ _______ _____ _____    ______ ____
ROOT
ATOM      1  C   UNL     1       2.141   0.166   1.220  0.00  0.00    +0.197 C 
ATOM      2  O   UNL     1       2.567   0.689   0.212  0.00  0.00    -0.278 OA
ATOM      3  N   UNL     1       2.993  -0.209   2.195  0.00  0.00    -0.313 N 
ATOM      4  H   UNL     1       2.653  -0.627   3.001  0.00  0.00    +0.149 HD
ENDROOT
BRANCH   1   5
ATOM      5  C   UNL     1       0.661  -0.067   1.381  0.00  0.00    +0.018 C 
BRANCH   5   7
ATOM      6  C   UNL     1       0.112   1.883   0.095  0.00  0.00    -0.095 C 
ATOM      7  N   UNL     1      -0.045   0.425   0.191  0.00  0.00    +0.386 N 
ATOM      8  H   UNL     1       0.343  -0.009  -0.633  0.00  0.00    -0.081 HD
BRANCH   7   9
ATOM      9  C   UNL     1      -1.472   0.092   0.294  0.00  0.00    -0.030 C 
BRANCH   9  10
ATOM     10  C   UNL     1      -2.184   0.492  -0.999  0.00  0.00    +0.194 C 
ATOM     11  C   UNL     1      -3.693   0.248  -0.855  0.00  0.00    +0.271 C 
ATOM     12  O   UNL     1      -4.326   0.619  -2.085  0.00  0.00    -0.485 OA
ATOM     13  C   UNL     1      -3.745   0.170  -3.231  0.00  0.00    +0.162 A 
ATOM     14  C   UNL     1      -4.475   0.173  -4.410  0.00  0.00    +0.049 A 
ATOM     15  C   UNL     1      -3.898  -0.276  -5.583  0.00  0.00    +0.004 A 
ATOM     16  C   UNL     1      -2.591  -0.729  -5.584  0.00  0.00    +0.004 A 
ATOM     17  C   UNL     1      -1.859  -0.736  -4.412  0.00  0.00    +0.049 A 
ATOM     18  C   UNL     1      -2.433  -0.288  -3.231  0.00  0.00    +0.162 A 
ATOM     19  O   UNL     1      -1.701  -0.308  -2.084  0.00  0.00    -0.484 OA
ENDBRANCH   9  10
ENDBRANCH   7   9
ENDBRANCH   5   7
ENDBRANCH   1   5
BRANCH   3  20
ATOM     20  C   UNL     1       4.432   0.017   2.038  0.00  0.00    +0.139 C 
BRANCH  20  21
ATOM     21  C   UNL     1       5.156  -0.487   3.260  0.00  0.00    -0.030 A 
ATOM     22  C   UNL     1       5.369   0.358   4.333  0.00  0.00    +0.007 A 
ATOM     23  C   UNL     1       6.033  -0.101   5.454  0.00  0.00    +0.024 A 
ATOM     24  C   UNL     1       6.485  -1.413   5.503  0.00  0.00    +0.036 A 
ATOM     25  C   UNL     1       6.269  -2.260   4.423  0.00  0.00    +0.024 A 
ATOM     26  C   UNL     1       5.600  -1.796   3.307  0.00  0.00    +0.007 A 
BRANCH  24  27
ATOM     27  N   UNL     1       7.159  -1.881   6.637  0.00  0.00    -0.251 N 
ATOM     28  C   UNL     1       6.829  -1.413   7.857  0.00  0.00    +0.404 C 
ATOM     29  O   UNL     1       5.885  -0.659   7.984  0.00  0.00    -0.226 OA
ATOM     30  H   UNL     1       7.862  -2.542   6.545  0.00  0.00    +0.158 HD
BRANCH  28  31
ATOM     31  O   UNL     1       7.546  -1.782   8.935  0.00  0.00    -0.453 OA
ATOM     32  C   UNL     1       7.141  -1.248  10.197  0.00  0.00    +0.282 C 
ENDBRANCH  28  31
ENDBRANCH  24  27
ENDBRANCH  20  21
ENDBRANCH   3  20
TORSDOF 8
