REMARK  Name = ZINC38604007
REMARK  8 active torsions:
REMARK  status: ('A' for Active; 'I' for Inactive)
REMARK    1  A    between atoms: C_1  and  C_2
REMARK    2  A    between atoms: N_5  and  C_11
REMARK    3  A    between atoms: C_7  and  C_10
REMARK    4  A    between atoms: C_11  and  C_12
REMARK    5  A    between atoms: N_14  and  C_15
REMARK    6  A    between atoms: C_23  and  C_25
REMARK    7  A    between atoms: C_25  and  O_27
REMARK    8  A    between atoms: O_27  and  C_28
REMARK                            x       y       z     vdW  Elec       q    Type
REMARK                         _______ _______ _______ _____ _____    ______ ____
ROOT
ATOM      1  C   UNL     1       6.246   0.674  -3.640  0.00  0.00    +0.053 C 
ATOM      2  C   UNL     1       7.183   0.681  -4.659  0.00  0.00    +0.019 A 
ATOM      3  C   UNL     1       7.266  -0.024  -5.884  0.00  0.00    +0.026 A 
ATOM      4  C   UNL     1       8.323   0.185  -6.709  0.00  0.00    +0.019 A 
ATOM      5  C   UNL     1       9.342   1.085  -6.381  0.00  0.00    +0.017 A 
ATOM      6  C   UNL     1       9.327   1.793  -5.226  0.00  0.00    +0.027 A 
ATOM      7  C   UNL     1       8.254   1.629  -4.311  0.00  0.00    +0.045 A 
ATOM      8  N   UNL     1       8.011   2.189  -3.143  0.00  0.00    -0.367 N 
ATOM      9  C   UNL     1       6.749   1.664  -2.614  0.00  0.00    +0.234 C 
ATOM     10 BR   UNL     1       8.421  -0.764  -8.341  0.00  0.00    -0.050 Br
ATOM     11  H   UNL     1       8.575   2.846  -2.706  0.00  0.00    +0.161 HD
ENDROOT
BRANCH   1  14
ATOM     12  C   UNL     1       4.158   0.229  -2.665  0.00  0.00    +0.231 C 
ATOM     13  O   UNL     1       4.348   1.114  -1.859  0.00  0.00    -0.274 OA
ATOM     14  N   UNL     1       5.104  -0.068  -3.578  0.00  0.00    -0.285 N 
ATOM     15  H   UNL     1       4.973  -0.808  -4.190  0.00  0.00    +0.155 HD
BRANCH  12  16
ATOM     16  C   UNL     1       2.862  -0.541  -2.647  0.00  0.00    +0.181 C 
BRANCH  16  20
ATOM     17  C   UNL     1      -0.345   1.524  -0.771  0.00  0.00    +0.039 C 
ATOM     18  C   UNL     1      -0.225   0.014  -0.561  0.00  0.00    +0.130 C 
ATOM     19  C   UNL     1       0.648  -0.588  -1.665  0.00  0.00    +0.116 C 
ATOM     20  N   UNL     1       2.005  -0.031  -1.568  0.00  0.00    -0.289 NA
ATOM     21  C   UNL     1       2.592  -0.315  -0.250  0.00  0.00    +0.116 C 
ATOM     22  C   UNL     1       1.699   0.284   0.840  0.00  0.00    +0.130 C 
ATOM     23  O   UNL     1       0.376  -0.245   0.711  0.00  0.00    -0.371 OA
ATOM     24  C   UNL     1       2.262  -0.076   2.216  0.00  0.00    +0.039 C 
ENDBRANCH  16  20
ENDBRANCH  12  16
ENDBRANCH   1  14
BRANCH   9  25
ATOM     25  C   UNL     1       6.990   0.971  -1.298  0.00  0.00    +0.335 C 
ATOM     26  O   UNL     1       8.115   0.685  -0.962  0.00  0.00    -0.248 OA
BRANCH  25  27
ATOM     27  O   UNL     1       5.954   0.670  -0.498  0.00  0.00    -0.466 OA
ATOM     28  C   UNL     1       6.256   0.012   0.734  0.00  0.00    +0.280 C 
ENDBRANCH  25  27
ENDBRANCH   9  25
TORSDOF 5
