REMARK  Name = ZINC67414918
REMARK  3 active torsions:
REMARK  status: ('A' for Active; 'I' for Inactive)
REMARK    1  A    between atoms: C_7  and  C_9
REMARK    2  A    between atoms: N_11  and  C_12
REMARK    3  A    between atoms: N_21  and  C_23
REMARK                            x       y       z     vdW  Elec       q    Type
REMARK                         _______ _______ _______ _____ _____    ______ ____
ROOT
ATOM      1  C   UNL     1       4.771  -2.425  -0.057  0.00  0.00    +0.300 C 
ATOM      2  O   UNL     1       4.253  -3.522  -0.059  0.00  0.00    -0.265 OA
ATOM      3  N   UNL     1       6.114  -2.313  -0.069  0.00  0.00    -0.304 N 
ATOM      4  H   UNL     1       6.527  -1.436  -0.068  0.00  0.00    +0.149 HD
ENDROOT
BRANCH   3   5
ATOM      5  C   UNL     1       6.947  -3.514  -0.084  0.00  0.00    +0.076 C 
ATOM      6  C   UNL     1       7.166  -3.992  -1.522  0.00  0.00    -0.007 C 
ATOM      7  C   UNL     1       7.939  -5.306  -1.504  0.00  0.00    +0.003 C 
ATOM      8  C   UNL     1       9.258  -5.202  -0.755  0.00  0.00    +0.001 C 
ATOM      9  C   UNL     1       9.133  -4.503   0.589  0.00  0.00    +0.003 C 
ATOM     10  C   UNL     1       8.325  -3.213   0.511  0.00  0.00    -0.007 C 
ATOM     11  C   UNL     1       9.037  -2.154  -0.316  0.00  0.00    -0.073 C 
ATOM     12  N   UNL     1       9.150  -2.502  -1.728  0.00  0.00    +0.382 N 
ATOM     13  C   UNL     1       7.890  -2.925  -2.328  0.00  0.00    -0.073 C 
ATOM     14  H   UNL     1       9.855  -3.212  -1.858  0.00  0.00    -0.081 HD
BRANCH  12  15
ATOM     15  C   UNL     1       9.623  -1.315  -2.453  0.00  0.00    -0.069 C 
ATOM     16  C   UNL     1      10.835  -1.484  -3.371  0.00  0.00    -0.017 C 
ATOM     17  C   UNL     1      10.978  -0.733  -2.046  0.00  0.00    -0.017 C 
ENDBRANCH  12  15
ENDBRANCH   3   5
BRANCH   1  24
ATOM     18  C   UNL     1      -0.022   1.786   0.012  0.00  0.00    +0.183 A 
ATOM     19  N   UNL     1       1.273   2.034   0.001  0.00  0.00    -0.148 NA
ATOM     20  N   UNL     1       2.133   1.111  -0.012  0.00  0.00    -0.126 NA
ATOM     21  C   UNL     1       1.785  -0.169  -0.016  0.00  0.00    +0.188 A 
ATOM     22  S   UNL     1       0.002  -0.004   0.002  0.00  0.00    -0.039 S 
ATOM     23  N   UNL     1       2.576  -1.310  -0.030  0.00  0.00    -0.255 N 
ATOM     24  C   UNL     1       3.919  -1.198  -0.042  0.00  0.00    +0.305 C 
ATOM     25  O   UNL     1       4.437  -0.100  -0.041  0.00  0.00    -0.265 OA
ATOM     26  H   UNL     1       2.163  -2.187  -0.031  0.00  0.00    +0.157 HD
ENDBRANCH   1  24
TORSDOF 3
