REMARK  Name = ZINC63280070
REMARK  7 active torsions:
REMARK  status: ('A' for Active; 'I' for Inactive)
REMARK    1  A    between atoms: C_1  and  O_2
REMARK    2  A    between atoms: O_2  and  C_3
REMARK    3  A    between atoms: C_6  and  S_9
REMARK    4  A    between atoms: S_9  and  N_12
REMARK    5  A    between atoms: N_12  and  C_13
REMARK    6  A    between atoms: C_19  and  C_23
REMARK    7  A    between atoms: N_25  and  C_26
REMARK                            x       y       z     vdW  Elec       q    Type
REMARK                         _______ _______ _______ _____ _____    ______ ____
ROOT
ATOM      1  C   UNL     1      -4.860  -3.853  -2.408  0.00  0.00    +0.224 C 
ATOM      2  N   UNL     1      -5.685  -4.416  -3.485  0.00  0.00    -0.318 N 
ATOM      3  C   UNL     1      -5.341  -4.103  -4.792  0.00  0.00    +0.043 A 
ATOM      4  C   UNL     1      -6.016  -4.553  -5.945  0.00  0.00    +0.025 A 
ATOM      5  C   UNL     1      -5.604  -4.192  -7.201  0.00  0.00    +0.015 A 
ATOM      6  C   UNL     1      -4.495  -3.361  -7.382  0.00  0.00    +0.038 A 
ATOM      7  C   UNL     1      -3.808  -2.902  -6.252  0.00  0.00    +0.029 A 
ATOM      8  C   UNL     1      -4.232  -3.271  -5.000  0.00  0.00    +0.033 A 
ATOM      9  S   UNL     1      -3.624  -2.894  -3.371  0.00  0.00    -0.084 S 
ATOM     10  H   UNL     1      -6.444  -4.988  -3.289  0.00  0.00    +0.148 HD
ENDROOT
BRANCH   6  11
ATOM     11  C   UNL     1      -4.056  -2.977  -8.737  0.00  0.00    +0.247 C 
ATOM     12  O   UNL     1      -3.089  -2.254  -8.881  0.00  0.00    -0.270 OA
ATOM     13  N   UNL     1      -4.727  -3.428  -9.816  0.00  0.00    -0.274 N 
ATOM     14  H   UNL     1      -5.498  -4.005  -9.701  0.00  0.00    +0.153 HD
BRANCH  13  15
ATOM     15  C   UNL     1      -4.291  -3.046 -11.161  0.00  0.00    +0.269 C 
ATOM     16  N   UNL     1      -4.731  -1.679 -11.465  0.00  0.00    -0.348 N 
ATOM     17  C   UNL     1      -5.515  -1.742 -12.502  0.00  0.00    +0.061 A 
ATOM     18  C   UNL     1      -6.250  -0.721 -13.262  0.00  0.00    +0.027 A 
ATOM     19  C   UNL     1      -7.002  -1.091 -14.318  0.00  0.00    +0.002 A 
ATOM     20  C   UNL     1      -7.117  -2.430 -14.735  0.00  0.00    +0.002 A 
ATOM     21  C   UNL     1      -6.485  -3.443 -14.108  0.00  0.00    +0.027 A 
ATOM     22  C   UNL     1      -5.636  -3.158 -12.943  0.00  0.00    +0.061 A 
ATOM     23  N   UNL     1      -4.923  -3.916 -12.161  0.00  0.00    -0.348 N 
ATOM     24  H   UNL     1      -4.483  -0.875 -10.981  0.00  0.00    +0.163 HD
ATOM     25  H   UNL     1      -4.827  -4.879 -12.227  0.00  0.00    +0.163 HD
ENDBRANCH  13  15
ENDBRANCH   6  11
BRANCH   1  26
ATOM     26  N   UNL     1      -5.651  -2.974  -1.542  0.00  0.00    -0.160 NA
ATOM     27  H   UNL     1      -6.436  -2.525  -1.895  0.00  0.00    +0.151 HD
BRANCH  26  28
ATOM     28  S   UNL     1      -5.207  -2.748   0.036  0.00  0.00    +0.061 S 
ATOM     29  O   UNL     1      -4.982  -4.040   0.584  0.00  0.00    -0.153 OA
ATOM     30  O   UNL     1      -6.142  -1.836   0.595  0.00  0.00    -0.153 OA
BRANCH  28  34
ATOM     31  C   UNL     1      -1.200  -0.637   0.010  0.00  0.00    +0.120 A 
ATOM     32  C   UNL     1      -2.375   0.101   0.019  0.00  0.00    +0.047 A 
ATOM     33  C   UNL     1      -3.596  -0.545   0.027  0.00  0.00    +0.032 A 
ATOM     34  C   UNL     1      -3.648  -1.927   0.026  0.00  0.00    +0.106 A 
ATOM     35  C   UNL     1      -2.479  -2.665   0.017  0.00  0.00    +0.032 A 
ATOM     36  C   UNL     1      -1.255  -2.024   0.003  0.00  0.00    +0.047 A 
BRANCH  31  38
ATOM     37  C   UNL     1      -0.017   1.425   0.010  0.00  0.00    +0.277 C 
ATOM     38  O   UNL     1       0.002  -0.004   0.002  0.00  0.00    -0.495 OA
ENDBRANCH  31  38
ENDBRANCH  28  34
ENDBRANCH  26  28
ENDBRANCH   1  26
TORSDOF 6
