REMARK  Name = ZINC13857144
REMARK  6 active torsions:
REMARK  status: ('A' for Active; 'I' for Inactive)
REMARK    1  A    between atoms: C_1  and  C_2
REMARK    2  A    between atoms: C_4  and  O_24
REMARK    3  A    between atoms: C_7  and  N_8
REMARK    4  A    between atoms: O_24  and  C_25
REMARK    5  A    between atoms: C_25  and  C_27
REMARK    6  A    between atoms: N_32  and  C_34
REMARK                            x       y       z     vdW  Elec       q    Type
REMARK                         _______ _______ _______ _____ _____    ______ ____
ROOT
ATOM      1  C   UNL     1      -0.163   1.545  -0.074  0.00  0.00    +0.046 C 
ATOM      2  C   UNL     1      -0.087   0.040  -0.058  0.00  0.00    -0.025 A 
ATOM      3  C   UNL     1      -0.072  -0.663  -1.246  0.00  0.00    +0.051 A 
ATOM      4  C   UNL     1      -0.002  -2.048  -1.232  0.00  0.00    +0.132 A 
ATOM      5  C   UNL     1       0.054  -2.728  -0.023  0.00  0.00    +0.048 A 
ATOM      6  C   UNL     1       0.040  -2.026   1.165  0.00  0.00    +0.028 A 
ATOM      7  C   UNL     1      -0.025  -0.639   1.151  0.00  0.00    +0.047 A 
ENDROOT
BRANCH   7   8
ATOM      8  N   UNL     1      -0.033   0.075   2.358  0.00  0.00    -0.210 N 
ATOM      9  C   UNL     1      -1.179   0.402   3.045  0.00  0.00    +0.231 C 
ATOM     10  O   UNL     1      -2.283  -0.083   2.918  0.00  0.00    -0.274 OA
ATOM     11  C   UNL     1      -0.756   1.494   3.988  0.00  0.00    +0.095 C 
ATOM     12  C   UNL     1      -1.290   1.594   5.421  0.00  0.00    +0.025 C 
ATOM     13  C   UNL     1      -0.061   2.452   5.971  0.00  0.00    +0.016 C 
ATOM     14  C   UNL     1       0.987   1.296   5.696  0.00  0.00    +0.025 C 
ATOM     15  C   UNL     1       0.627   0.799   4.320  0.00  0.00    +0.095 C 
ATOM     16  C   UNL     1       1.112   0.526   2.995  0.00  0.00    +0.231 C 
ATOM     17  O   UNL     1       2.233   0.657   2.550  0.00  0.00    -0.274 OA
ATOM     18  C   UNL     1       0.250   0.187   6.511  0.00  0.00    -0.027 C 
ATOM     19  C   UNL     1      -1.054   0.345   6.246  0.00  0.00    -0.027 C 
ENDBRANCH   7   8
BRANCH   4  20
ATOM     20  O   UNL     1       0.011  -2.740  -2.402  0.00  0.00    -0.426 OA
BRANCH  20  21
ATOM     21  C   UNL     1       1.077  -2.597  -3.207  0.00  0.00    +0.317 C 
ATOM     22  O   UNL     1       2.027  -1.946  -2.841  0.00  0.00    -0.250 OA
BRANCH  21  23
ATOM     23  C   UNL     1       1.087  -3.248  -4.566  0.00  0.00    +0.125 C 
ATOM     24  C   UNL     1       1.058  -4.790  -4.441  0.00  0.00    +0.112 C 
ATOM     25  C   UNL     1       1.953  -5.269  -5.563  0.00  0.00    +0.221 C 
ATOM     26  O   UNL     1       1.982  -6.404  -5.991  0.00  0.00    -0.275 OA
ATOM     27  N   UNL     1       2.709  -4.255  -6.017  0.00  0.00    -0.271 N 
ATOM     28  C   UNL     1       2.437  -3.015  -5.280  0.00  0.00    +0.128 C 
BRANCH  27  29
ATOM     29  C   UNL     1       3.637  -4.367  -7.059  0.00  0.00    +0.036 A 
ATOM     30  C   UNL     1       3.730  -5.548  -7.784  0.00  0.00    +0.025 A 
ATOM     31  C   UNL     1       4.646  -5.656  -8.811  0.00  0.00    +0.022 A 
ATOM     32  C   UNL     1       5.472  -4.588  -9.118  0.00  0.00    +0.041 A 
ATOM     33  C   UNL     1       5.382  -3.411  -8.397  0.00  0.00    +0.022 A 
ATOM     34  C   UNL     1       4.463  -3.296  -7.372  0.00  0.00    +0.025 A 
ATOM     35 CL   UNL     1       6.623  -4.727 -10.410  0.00  0.00    -0.084 Cl
ENDBRANCH  27  29
ENDBRANCH  21  23
ENDBRANCH  20  21
ENDBRANCH   4  20
TORSDOF 5
