REMARK  Name = ZINC56977226
REMARK  3 active torsions:
REMARK  status: ('A' for Active; 'I' for Inactive)
REMARK    1  A    between atoms: C_1  and  C_2
REMARK    2  A    between atoms: C_12  and  C_16
REMARK    3  A    between atoms: N_18  and  C_19
REMARK                            x       y       z     vdW  Elec       q    Type
REMARK                         _______ _______ _______ _____ _____    ______ ____
ROOT
ATOM      1  C   UNL     1       0.315   1.585  -0.051  0.00  0.00    +0.008 C 
ATOM      2  C   UNL     1       0.299   0.055  -0.065  0.00  0.00    -0.009 C 
ATOM      3  C   UNL     1       1.064  -0.453  -1.291  0.00  0.00    +0.009 C 
ATOM      4  C   UNL     1       0.839  -1.961  -1.444  0.00  0.00    +0.054 C 
ATOM      5  C   UNL     1       1.117  -2.626  -0.116  0.00  0.00    +0.020 A 
ATOM      6  C   UNL     1       1.175  -1.962   1.058  0.00  0.00    -0.019 A 
ATOM      7  C   UNL     1       1.461  -2.941   2.086  0.00  0.00    +0.004 A 
ATOM      8  C   UNL     1       1.633  -2.841   3.470  0.00  0.00    +0.010 A 
ATOM      9  C   UNL     1       1.904  -4.012   4.159  0.00  0.00    +0.001 A 
ATOM     10  C   UNL     1       2.003  -5.234   3.522  0.00  0.00    +0.015 A 
ATOM     11  C   UNL     1       1.836  -5.366   2.139  0.00  0.00    +0.061 A 
ATOM     12  C   UNL     1       1.560  -4.189   1.419  0.00  0.00    +0.059 A 
ATOM     13  N   UNL     1       1.346  -3.961   0.096  0.00  0.00    -0.357 N 
ATOM     14  H   UNL     1       1.354  -4.641  -0.596  0.00  0.00    +0.166 HD
ATOM     15  C   UNL     1       0.969  -0.476   1.208  0.00  0.00    +0.040 C 
ENDROOT
BRANCH  11  16
ATOM     16  C   UNL     1       1.944  -6.675   1.469  0.00  0.00    +0.247 C 
ATOM     17  O   UNL     1       1.794  -6.756   0.265  0.00  0.00    -0.270 OA
ATOM     18  N   UNL     1       2.210  -7.782   2.191  0.00  0.00    -0.300 N 
ATOM     19  H   UNL     1       2.330  -7.717   3.151  0.00  0.00    +0.150 HD
BRANCH  18  20
ATOM     20  C   UNL     1       2.318  -9.082   1.525  0.00  0.00    +0.159 C 
ATOM     21  C   UNL     1       2.220 -10.202   2.564  0.00  0.00    +0.032 C 
ATOM     22  C   UNL     1       2.872  -9.782   3.869  0.00  0.00    +0.004 C 
ATOM     23  C   UNL     1       4.376  -9.601   3.772  0.00  0.00    +0.019 C 
ATOM     24  C   UNL     1       4.726  -8.411   2.877  0.00  0.00    +0.104 C 
ATOM     25  N   UNL     1       4.779  -8.872   1.480  0.00  0.00    -0.314 N 
ATOM     26  C   UNL     1       3.657  -9.186   0.826  0.00  0.00    +0.233 C 
ATOM     27  O   UNL     1       3.709  -9.560  -0.327  0.00  0.00    -0.274 OA
ATOM     28  H   UNL     1       5.635  -8.946   1.030  0.00  0.00    +0.149 HD
ENDBRANCH  18  20
ENDBRANCH  11  16
TORSDOF 2
