REMARK  Name = ZINC62877046
REMARK  5 active torsions:
REMARK  status: ('A' for Active; 'I' for Inactive)
REMARK    1  A    between atoms: C_1  and  C_2
REMARK    2  A    between atoms: C_8  and  C_10
REMARK    3  A    between atoms: C_10  and  N_11
REMARK    4  A    between atoms: C_15  and  C_17
REMARK    5  A    between atoms: C_15  and  C_18
REMARK                            x       y       z     vdW  Elec       q    Type
REMARK                         _______ _______ _______ _____ _____    ______ ____
ROOT
ATOM      1  C   UNL     1      -3.646  -4.389  -0.006  0.00  0.00    +0.019 C 
ENDROOT
BRANCH   1   9
ATOM      2  C   UNL     1      -0.018   1.503   0.010  0.00  0.00    +0.089 C 
ATOM      3  C   UNL     1       0.002  -0.004   0.002  0.00  0.00    +0.136 A 
ATOM      4  C   UNL     1      -1.076  -0.808   0.003  0.00  0.00    +0.091 A 
ATOM      5  C   UNL     1      -0.625  -2.147  -0.007  0.00  0.00    +0.168 A 
ATOM      6  N   UNL     1       0.683  -2.130  -0.013  0.00  0.00    -0.063 NA
ATOM      7  O   UNL     1       1.100  -0.776  -0.013  0.00  0.00    -0.358 OA
ATOM      8  N   UNL     1      -1.432  -3.285  -0.010  0.00  0.00    -0.269 N 
ATOM      9  C   UNL     1      -2.774  -3.159  -0.003  0.00  0.00    +0.202 C 
ATOM     10  O   UNL     1      -3.280  -2.057   0.006  0.00  0.00    -0.278 OA
ATOM     11  H   UNL     1      -1.027  -4.166  -0.017  0.00  0.00    +0.156 HD
ENDBRANCH   1   9
BRANCH   1  12
ATOM     12  N   UNL     1      -5.059  -3.987   0.003  0.00  0.00    +0.386 N 
ATOM     13  C   UNL     1      -5.372  -3.276  -1.242  0.00  0.00    -0.078 C 
ATOM     14  C   UNL     1      -6.820  -2.785  -1.203  0.00  0.00    -0.018 C 
ATOM     15  C   UNL     1      -7.757  -3.987  -1.050  0.00  0.00    +0.014 C 
ATOM     16  C   UNL     1      -7.373  -4.764   0.213  0.00  0.00    +0.055 C 
ATOM     17  C   UNL     1      -5.904  -5.181   0.121  0.00  0.00    -0.060 C 
ATOM     18  C   UNL     1      -7.576  -3.874   1.441  0.00  0.00    +0.021 C 
ATOM     19  H   UNL     1      -5.229  -3.377   0.789  0.00  0.00    -0.081 HD
BRANCH  16  20
ATOM     20  C   UNL     1      -8.239  -5.991   0.331  0.00  0.00    +0.360 C 
ATOM     21  O   UNL     1      -9.085  -6.225  -0.515  0.00  0.00    -0.246 OA
ATOM     22  O   UNL     1      -8.094  -6.751   1.274  0.00  0.00    -0.246 OA
ENDBRANCH  16  20
ENDBRANCH   1  12
TORSDOF 3
