REMARK  Name = ZINC00624149
REMARK  8 active torsions:
REMARK  status: ('A' for Active; 'I' for Inactive)
REMARK    1  A    between atoms: C_1  and  C_2
REMARK    2  A    between atoms: C_3  and  C_4
REMARK    3  A    between atoms: C_7  and  O_12
REMARK    4  A    between atoms: C_8  and  O_10
REMARK    5  A    between atoms: O_10  and  C_11
REMARK    6  A    between atoms: O_12  and  C_13
REMARK    7  A    between atoms: N_17  and  C_18
REMARK    8  A    between atoms: C_21  and  C_24
REMARK                            x       y       z     vdW  Elec       q    Type
REMARK                         _______ _______ _______ _____ _____    ______ ____
ROOT
ATOM      1  C   UNL     1      -0.017  -6.912  -0.033  0.00  0.00    +0.347 A 
ATOM      2  N   UNL     1      -0.627  -6.349  -1.051  0.00  0.00    -0.070 NA
ATOM      3  N   UNL     1      -1.177  -7.239  -1.795  0.00  0.00    -0.019 NA
ATOM      4  N   UNL     1      -0.964  -8.417  -1.318  0.00  0.00    -0.036 NA
ATOM      5  N   UNL     1      -0.194  -8.250  -0.153  0.00  0.00    -0.162 N 
ENDROOT
BRANCH   5   6
ATOM      6  C   UNL     1       0.283  -9.250   0.701  0.00  0.00    +0.072 A 
ATOM      7  C   UNL     1       1.517  -9.100   1.324  0.00  0.00    +0.029 A 
ATOM      8  C   UNL     1       1.990 -10.082   2.166  0.00  0.00    +0.015 A 
ATOM      9  C   UNL     1       1.228 -11.231   2.393  0.00  0.00    +0.037 A 
ATOM     10  C   UNL     1      -0.011 -11.379   1.764  0.00  0.00    +0.015 A 
ATOM     11  C   UNL     1      -0.480 -10.390   0.928  0.00  0.00    +0.029 A 
BRANCH   9  12
ATOM     12  C   UNL     1       1.732 -12.287   3.294  0.00  0.00    +0.242 C 
ATOM     13  O   UNL     1       2.811 -12.157   3.839  0.00  0.00    -0.270 OA
ATOM     14  N   UNL     1       0.997 -13.395   3.511  0.00  0.00    -0.325 N 
ATOM     15  H   UNL     1       0.136 -13.499   3.076  0.00  0.00    +0.145 HD
ATOM     16  H   UNL     1       1.328 -14.089   4.103  0.00  0.00    +0.145 HD
ENDBRANCH   9  12
ENDBRANCH   5   6
BRANCH   1  17
ATOM     17  O   UNL     1       0.666  -6.275   0.948  0.00  0.00    -0.419 OA
BRANCH  17  21
ATOM     18  C   UNL     1       0.533  -2.145   1.038  0.00  0.00    -0.022 A 
ATOM     19  C   UNL     1      -0.281  -2.854   0.154  0.00  0.00    +0.012 A 
ATOM     20  C   UNL     1      -0.234  -4.232   0.127  0.00  0.00    +0.051 A 
ATOM     21  C   UNL     1       0.622  -4.917   0.978  0.00  0.00    +0.173 A 
ATOM     22  C   UNL     1       1.438  -4.214   1.863  0.00  0.00    +0.163 A 
ATOM     23  C   UNL     1       1.399  -2.832   1.889  0.00  0.00    +0.057 A 
BRANCH  18  26
ATOM     24  C   UNL     1      -0.390   1.490   0.287  0.00  0.00    +0.035 C 
ATOM     25  C   UNL     1      -0.339  -0.016   0.257  0.00  0.00    -0.030 C 
ATOM     26  C   UNL     1       0.484  -0.668   1.067  0.00  0.00    +0.003 C 
ENDBRANCH  18  26
BRANCH  22  27
ATOM     27  O   UNL     1       2.276  -4.888   2.696  0.00  0.00    -0.491 OA
ATOM     28  C   UNL     1       3.083  -4.104   3.576  0.00  0.00    +0.277 C 
ENDBRANCH  22  27
ENDBRANCH  17  21
ENDBRANCH   1  17
TORSDOF 6
