REMARK  Name = ZINC35171284
REMARK  11 active torsions:
REMARK  status: ('A' for Active; 'I' for Inactive)
REMARK    1  A    between atoms: C_1  and  C_2
REMARK    2  A    between atoms: C_2  and  O_3
REMARK    3  A    between atoms: O_3  and  C_4
REMARK    4  A    between atoms: C_4  and  C_6
REMARK    5  A    between atoms: C_8  and  C_35
REMARK    6  A    between atoms: C_15  and  C_26
REMARK    7  A    between atoms: C_17  and  C_21
REMARK    8  A    between atoms: C_18  and  C_20
REMARK    9  A    between atoms: C_21  and  O_23
REMARK   10  A    between atoms: O_23  and  C_24
REMARK   11  A    between atoms: C_24  and  C_25
REMARK                            x       y       z     vdW  Elec       q    Type
REMARK                         _______ _______ _______ _____ _____    ______ ____
ROOT
ATOM      1  C   UNL     1       1.400  -2.686  -2.448  0.00  0.00    +0.179 C 
ATOM      2  C   UNL     1       1.082  -4.184  -2.475  0.00  0.00    +0.082 C 
ATOM      3  C   UNL     1       1.690  -4.787  -3.743  0.00  0.00    +0.063 C 
ATOM      4  C   UNL     1       1.131  -4.085  -4.956  0.00  0.00    +0.016 C 
ATOM      5  C   UNL     1       0.757  -2.789  -4.899  0.00  0.00    +0.025 C 
ATOM      6  C   UNL     1       0.877  -2.050  -3.707  0.00  0.00    +0.176 C 
ATOM      7  O   UNL     1       0.551  -0.879  -3.694  0.00  0.00    -0.291 OA
ATOM      8  C   UNL     1       0.195  -2.095  -6.114  0.00  0.00    +0.092 C 
ATOM      9  C   UNL     1       0.519  -2.855  -7.366  0.00  0.00    +0.065 C 
ATOM     10  C   UNL     1       0.902  -4.143  -7.321  0.00  0.00    +0.016 C 
ATOM     11  N   UNL     1       1.012  -4.791  -6.123  0.00  0.00    -0.321 N 
ATOM     12  C   UNL     1       1.211  -4.877  -8.600  0.00  0.00    +0.061 C 
ATOM     13  H   UNL     1       1.006  -5.761  -6.099  0.00  0.00    +0.152 HD
ENDROOT
BRANCH   8  14
ATOM     14  C   UNL     1      -1.301  -1.987  -5.975  0.00  0.00    -0.032 A 
ATOM     15  C   UNL     1      -2.066  -3.132  -5.848  0.00  0.00    +0.008 A 
ATOM     16  C   UNL     1      -3.440  -3.038  -5.720  0.00  0.00    +0.050 A 
ATOM     17  C   UNL     1      -4.053  -1.796  -5.719  0.00  0.00    +0.166 A 
ATOM     18  C   UNL     1      -3.282  -0.643  -5.846  0.00  0.00    +0.167 A 
ATOM     19  C   UNL     1      -1.906  -0.744  -5.969  0.00  0.00    +0.054 A 
ATOM     20  O   UNL     1      -4.111   0.441  -5.817  0.00  0.00    -0.453 OA
ATOM     21  C   UNL     1      -5.429  -0.075  -6.081  0.00  0.00    +0.466 C 
ATOM     22  O   UNL     1      -5.364  -1.434  -5.609  0.00  0.00    -0.453 OA
ENDBRANCH   8  14
BRANCH   2  23
ATOM     23  C   UNL     1      -0.411  -4.385  -2.480  0.00  0.00    +0.109 A 
ATOM     24  C   UNL     1      -1.120  -5.043  -1.544  0.00  0.00    +0.045 A 
ATOM     25  C   UNL     1      -2.475  -4.988  -1.943  0.00  0.00    +0.041 A 
ATOM     26  C   UNL     1      -2.514  -4.301  -3.099  0.00  0.00    +0.195 A 
ATOM     27  O   UNL     1      -1.262  -3.933  -3.416  0.00  0.00    -0.467 OA
ENDBRANCH   2  23
BRANCH   1  28
ATOM     28  C   UNL     1       0.740  -2.051  -1.251  0.00  0.00    +0.318 C 
ATOM     29  O   UNL     1       0.085  -2.727  -0.493  0.00  0.00    -0.250 OA
BRANCH  28  30
ATOM     30  O   UNL     1       0.880  -0.735  -1.026  0.00  0.00    -0.464 OA
BRANCH  30  32
ATOM     31  C   UNL     1       0.498   1.302   0.216  0.00  0.00    +0.048 C 
ATOM     32  C   UNL     1       0.227  -0.201   0.127  0.00  0.00    +0.229 C 
ENDBRANCH  30  32
ENDBRANCH  28  30
ENDBRANCH   1  28
BRANCH   9  33
ATOM     33  C   UNL     1       0.420  -2.204  -8.618  0.00  0.00    +0.338 C 
ATOM     34  O   UNL     1       0.796  -2.769  -9.629  0.00  0.00    -0.245 OA
BRANCH  33  35
ATOM     35  O   UNL     1      -0.091  -0.958  -8.692  0.00  0.00    -0.462 OA
BRANCH  35  36
ATOM     36  C   UNL     1      -0.161  -0.361  -9.989  0.00  0.00    +0.229 C 
ATOM     37  C   UNL     1      -0.763   1.041  -9.873  0.00  0.00    +0.048 C 
ENDBRANCH  35  36
ENDBRANCH  33  35
ENDBRANCH   9  33
TORSDOF 8
