REMARK  Name = ZINC55272141
REMARK  4 active torsions:
REMARK  status: ('A' for Active; 'I' for Inactive)
REMARK    1  A    between atoms: C_3  and  N_11
REMARK    2  A    between atoms: C_4  and  N_8
REMARK    3  A    between atoms: C_12  and  C_14
REMARK    4  A    between atoms: C_14  and  C_15
REMARK                            x       y       z     vdW  Elec       q    Type
REMARK                         _______ _______ _______ _____ _____    ______ ____
ROOT
ATOM      1  N   UNL     1       3.421   2.037  -0.041  0.00  0.00    -0.283 N 
ATOM      2  C   UNL     1       3.342   3.376  -0.177  0.00  0.00    +0.223 C 
ATOM      3  O   UNL     1       2.259   3.921  -0.190  0.00  0.00    -0.275 OA
ATOM      4  H   UNL     1       4.287   1.609   0.052  0.00  0.00    +0.155 HD
ENDROOT
BRANCH   1   7
ATOM      5  C   UNL     1      -0.043   0.967  -0.652  0.00  0.00    +0.017 A 
ATOM      6  C   UNL     1       1.107   1.731  -0.661  0.00  0.00    +0.027 A 
ATOM      7  C   UNL     1       2.254   1.265  -0.033  0.00  0.00    +0.064 A 
ATOM      8  C   UNL     1       2.241   0.030   0.604  0.00  0.00    +0.148 A 
ATOM      9  C   UNL     1       1.088  -0.730   0.609  0.00  0.00    +0.050 A 
ATOM     10  C   UNL     1      -0.053  -0.263  -0.018  0.00  0.00    +0.020 A 
ATOM     11 BR   UNL     1      -1.630  -1.306  -0.007  0.00  0.00    -0.050 Br
BRANCH   8  12
ATOM     12  N   UNL     1       3.462  -0.470   1.274  0.00  0.00    +0.058 N 
ATOM     13  O   UNL     1       3.480  -1.584   1.744  0.00  0.00    -0.126 OA
ATOM     14  O   UNL     1       4.441   0.234   1.352  0.00  0.00    -0.126 OA
ENDBRANCH   8  12
ENDBRANCH   1   7
BRANCH   2  15
ATOM     15  C   UNL     1       4.600   4.194  -0.312  0.00  0.00    +0.152 C 
BRANCH  15  16
ATOM     16  C   UNL     1       4.239   5.651  -0.449  0.00  0.00    +0.059 A 
ATOM     17  C   UNL     1       4.754   6.589   0.382  0.00  0.00    +0.072 A 
ATOM     18  S   UNL     1       3.981   8.064  -0.260  0.00  0.00    -0.061 S 
ATOM     19  C   UNL     1       3.097   7.345  -1.499  0.00  0.00    +0.156 A 
ATOM     20  N   UNL     1       3.411   6.071  -1.389  0.00  0.00    -0.230 NA
ATOM     21  N   UNL     1       2.250   7.947  -2.415  0.00  0.00    -0.338 N 
ATOM     22  H   UNL     1       2.109   8.906  -2.388  0.00  0.00    +0.144 HD
ATOM     23  H   UNL     1       1.798   7.410  -3.084  0.00  0.00    +0.144 HD
ENDBRANCH  15  16
ENDBRANCH   2  15
TORSDOF 4
