REMARK  Name = ZINC64507227
REMARK  12 active torsions:
REMARK  status: ('A' for Active; 'I' for Inactive)
REMARK    1  A    between atoms: C_1  and  C_2
REMARK    2  A    between atoms: C_2  and  C_3
REMARK    3  A    between atoms: C_3  and  C_5
REMARK    4  A    between atoms: C_3  and  N_21
REMARK    5  A    between atoms: N_7  and  C_8
REMARK    6  A    between atoms: C_8  and  C_9
REMARK    7  A    between atoms: C_9  and  C_10
REMARK    8  A    between atoms: C_13  and  O_19
REMARK    9  A    between atoms: O_19  and  C_20
REMARK   10  A    between atoms: C_25  and  C_38
REMARK   11  A    between atoms: N_26  and  C_32
REMARK   12  A    between atoms: C_29  and  C_31
REMARK                            x       y       z     vdW  Elec       q    Type
REMARK                         _______ _______ _______ _____ _____    ______ ____
ROOT
ATOM      1  C   UNL     1      -1.056   0.072   0.090  0.00  0.00    +0.196 C 
ENDROOT
BRANCH   1   2
ATOM      2  N   UNL     1      -1.812   0.273   1.329  0.00  0.00    -0.217 N 
ATOM      3  C   UNL     1      -3.008   0.895   1.266  0.00  0.00    +0.279 A 
ATOM      4  O   UNL     1      -3.451   1.282   0.200  0.00  0.00    -0.265 OA
ATOM      5  C   UNL     1      -3.763   1.096   2.506  0.00  0.00    +0.091 A 
ATOM      6  C   UNL     1      -4.967   1.661   2.844  0.00  0.00    +0.055 A 
ATOM      7  N   UNL     1      -5.120   1.540   4.175  0.00  0.00    -0.236 N 
ATOM      8  N   UNL     1      -4.008   0.888   4.722  0.00  0.00    -0.164 NA
ATOM      9  C   UNL     1      -3.165   0.601   3.759  0.00  0.00    +0.121 A 
ATOM     10  C   UNL     1      -1.857  -0.056   3.677  0.00  0.00    +0.086 A 
ATOM     11  N   UNL     1      -1.271  -0.190   2.526  0.00  0.00    -0.171 NA
ATOM     12  C   UNL     1      -1.197  -0.582   4.925  0.00  0.00    +0.070 C 
ATOM     13  C   UNL     1      -5.944   2.305   1.894  0.00  0.00    +0.066 C 
BRANCH   7  14
ATOM     14  C   UNL     1      -6.226   1.996   4.904  0.00  0.00    +0.066 A 
ATOM     15  C   UNL     1      -7.510   1.805   4.412  0.00  0.00    +0.028 A 
ATOM     16  C   UNL     1      -8.598   2.257   5.134  0.00  0.00    +0.002 A 
ATOM     17  C   UNL     1      -8.409   2.898   6.344  0.00  0.00    +0.000 A 
ATOM     18  C   UNL     1      -7.131   3.090   6.836  0.00  0.00    +0.002 A 
ATOM     19  C   UNL     1      -6.039   2.635   6.123  0.00  0.00    +0.028 A 
ENDBRANCH   7  14
ENDBRANCH   1   2
BRANCH   1  20
ATOM     20  C   UNL     1      -0.842  -1.403  -0.133  0.00  0.00    +0.238 C 
ATOM     21  O   UNL     1      -1.277  -2.206   0.664  0.00  0.00    -0.273 OA
ATOM     22  N   UNL     1      -0.166  -1.828  -1.219  0.00  0.00    -0.313 N 
ATOM     23  H   UNL     1       0.182  -1.185  -1.856  0.00  0.00    +0.149 HD
BRANCH  22  24
ATOM     24  C   UNL     1       0.042  -3.262  -1.436  0.00  0.00    +0.108 C 
BRANCH  24  25
ATOM     25  C   UNL     1       0.831  -3.472  -2.730  0.00  0.00    +0.052 C 
BRANCH  25  26
ATOM     26  C   UNL     1       1.046  -4.947  -2.954  0.00  0.00    -0.040 C 
ATOM     27  C   UNL     1       0.290  -5.772  -3.712  0.00  0.00    +0.002 A 
ATOM     28  C   UNL     1      -0.912  -5.556  -4.525  0.00  0.00    +0.055 A 
ATOM     29  C   UNL     1      -1.464  -6.598  -5.191  0.00  0.00    +0.121 A 
ATOM     30  C   UNL     1      -0.925  -7.895  -5.134  0.00  0.00    +0.047 A 
ATOM     31  C   UNL     1       0.177  -8.193  -4.414  0.00  0.00    +0.029 A 
ATOM     32  C   UNL     1       0.857  -7.140  -3.653  0.00  0.00    +0.043 A 
ATOM     33  N   UNL     1       1.921  -7.158  -2.889  0.00  0.00    -0.380 N 
ATOM     34  C   UNL     1       2.154  -5.802  -2.381  0.00  0.00    +0.144 C 
ATOM     35  H   UNL     1       2.465  -7.937  -2.696  0.00  0.00    +0.160 HD
BRANCH  29  36
ATOM     36  O   UNL     1      -2.578  -6.383  -5.939  0.00  0.00    -0.495 OA
ATOM     37  C   UNL     1      -3.127  -7.510  -6.625  0.00  0.00    +0.277 C 
ENDBRANCH  29  36
ENDBRANCH  25  26
ENDBRANCH  24  25
ENDBRANCH  22  24
ENDBRANCH   1  20
BRANCH   1  39
ATOM     38  C   UNL     1       0.084   2.285   0.302  0.00  0.00    +0.006 C 
ATOM     39  C   UNL     1       0.299   0.774   0.200  0.00  0.00    +0.033 C 
ENDBRANCH   1  39
TORSDOF 8
