REMARK  Name = ZINC40151335
REMARK  10 active torsions:
REMARK  status: ('A' for Active; 'I' for Inactive)
REMARK    1  A    between atoms: C_3  and  N_33
REMARK    2  A    between atoms: C_6  and  C_7
REMARK    3  A    between atoms: N_9  and  N_10
REMARK    4  A    between atoms: C_11  and  C_12
REMARK    5  A    between atoms: C_11  and  C_25
REMARK    6  A    between atoms: C_25  and  C_27
REMARK    7  A    between atoms: C_25  and  O_32
REMARK    8  A    between atoms: C_27  and  C_29
REMARK    9  A    between atoms: C_27  and  O_31
REMARK   10  A    between atoms: C_29  and  O_30
REMARK                            x       y       z     vdW  Elec       q    Type
REMARK                         _______ _______ _______ _____ _____    ______ ____
ROOT
ATOM      1  N   UNL     1      -2.592  -2.702  -0.400  0.00  0.00    -0.184 NA
ATOM      2  C   UNL     1      -2.502  -3.972  -0.268  0.00  0.00    +0.099 C 
ENDROOT
BRANCH   2   3
ATOM      3  C   UNL     1      -1.152  -4.615  -0.077  0.00  0.00    +0.215 C 
ATOM      4  C   UNL     1      -0.930  -4.787   1.408  0.00  0.00    +0.245 C 
ATOM      5  O   UNL     1      -0.960  -3.826   2.150  0.00  0.00    -0.273 OA
ATOM      6  N   UNL     1      -0.701  -6.010   1.894  0.00  0.00    -0.282 N 
ATOM      7  C   UNL     1      -0.663  -7.072   1.108  0.00  0.00    +0.057 A 
ATOM      8  C   UNL     1      -0.417  -8.352   1.655  0.00  0.00    +0.027 A 
ATOM      9  C   UNL     1      -0.377  -9.443   0.856  0.00  0.00    +0.022 A 
ATOM     10  C   UNL     1      -0.572  -9.374  -0.535  0.00  0.00    +0.043 A 
ATOM     11  C   UNL     1      -0.814  -8.200  -1.160  0.00  0.00    +0.047 A 
ATOM     12  C   UNL     1      -0.873  -6.967  -0.358  0.00  0.00    +0.059 A 
ATOM     13  N   UNL     1      -1.105  -5.818  -0.924  0.00  0.00    -0.368 N 
ATOM     14 CL   UNL     1      -0.499 -10.833  -1.473  0.00  0.00    -0.083 Cl
ATOM     15  H   UNL     1      -0.558  -6.121   2.846  0.00  0.00    +0.155 HD
ATOM     16  H   UNL     1      -1.242  -5.756  -1.882  0.00  0.00    +0.161 HD
ENDBRANCH   2   3
BRANCH   1  19
ATOM     17  C   UNL     1      -1.570  -0.555  -0.288  0.00  0.00    +0.263 C 
ATOM     18  O   UNL     1      -2.664  -0.040  -0.419  0.00  0.00    -0.268 OA
ATOM     19  N   UNL     1      -1.461  -1.896  -0.217  0.00  0.00    -0.203 N 
ATOM     20  H   UNL     1      -0.599  -2.304  -0.039  0.00  0.00    +0.178 HD
BRANCH  17  26
ATOM     21  C   UNL     1      -0.457   1.671  -0.390  0.00  0.00    +0.015 A 
ATOM     22  C   UNL     1       0.676   2.454  -0.312  0.00  0.00    +0.033 A 
ATOM     23  C   UNL     1       1.905   1.875  -0.051  0.00  0.00    +0.126 A 
ATOM     24  C   UNL     1       2.007   0.507   0.131  0.00  0.00    +0.033 A 
ATOM     25  C   UNL     1       0.883  -0.288   0.055  0.00  0.00    +0.015 A 
ATOM     26  C   UNL     1      -0.361   0.291  -0.206  0.00  0.00    +0.038 A 
BRANCH  23  27
ATOM     27  N   UNL     1       3.117   2.721   0.031  0.00  0.00    +0.056 N 
ATOM     28  O   UNL     1       3.031   3.917  -0.129  0.00  0.00    -0.126 OA
ATOM     29  O   UNL     1       4.192   2.218   0.258  0.00  0.00    -0.126 OA
ENDBRANCH  23  27
ENDBRANCH  17  26
ENDBRANCH   1  19
BRANCH   2  30
ATOM     30  C   UNL     1      -3.744  -4.824  -0.305  0.00  0.00    +0.193 C 
BRANCH  30  31
ATOM     31  O   UNL     1      -3.724  -5.646  -1.474  0.00  0.00    -0.383 OA
ATOM     32  H   UNL     1      -3.071  -6.359  -1.442  0.00  0.00    +0.210 HD
ENDBRANCH  30  31
BRANCH  30  33
ATOM     33  C   UNL     1      -4.980  -3.922  -0.337  0.00  0.00    +0.174 C 
BRANCH  33  34
ATOM     34  O   UNL     1      -5.000  -3.101   0.832  0.00  0.00    -0.387 OA
ATOM     35  H   UNL     1      -5.030  -3.597   1.662  0.00  0.00    +0.210 HD
ENDBRANCH  33  34
BRANCH  33  36
ATOM     36  C   UNL     1      -6.242  -4.787  -0.374  0.00  0.00    +0.190 C 
BRANCH  36  37
ATOM     37  O   UNL     1      -7.390  -3.949  -0.521  0.00  0.00    -0.392 OA
ATOM     38  H   UNL     1      -8.227  -4.431  -0.552  0.00  0.00    +0.210 HD
ENDBRANCH  36  37
ENDBRANCH  33  36
ENDBRANCH  30  33
ENDBRANCH   2  30
TORSDOF 10
