REMARK  Name = ZINC12009032
REMARK  5 active torsions:
REMARK  status: ('A' for Active; 'I' for Inactive)
REMARK    1  A    between atoms: C_1  and  C_2
REMARK    2  A    between atoms: C_2  and  C_3
REMARK    3  A    between atoms: N_5  and  C_6
REMARK    4  A    between atoms: C_8  and  C_25
REMARK    5  A    between atoms: C_17  and  C_19
REMARK                            x       y       z     vdW  Elec       q    Type
REMARK                         _______ _______ _______ _____ _____    ______ ____
ROOT
ATOM      1  C   UNL     1       2.131   0.686  -0.015  0.00  0.00    +0.132 A 
ATOM      2  C   UNL     1       1.319   1.772  -0.001  0.00  0.00    +0.077 A 
ATOM      3  C   UNL     1      -0.016   1.313   0.009  0.00  0.00    +0.130 A 
ATOM      4  N   UNL     1       0.002  -0.004   0.002  0.00  0.00    -0.159 NA
ATOM      5  N   UNL     1       1.338  -0.426  -0.013  0.00  0.00    -0.184 N 
ATOM      6  C   UNL     1       1.775  -1.737  -0.024  0.00  0.00    +0.234 A 
ATOM      7  N   UNL     1       0.861  -2.743  -0.016  0.00  0.00    -0.291 N 
ATOM      8  H   UNL     1      -0.087  -2.536  -0.002  0.00  0.00    +0.172 HD
ATOM      9  C   UNL     1       1.268  -4.030  -0.032  0.00  0.00    +0.253 A 
ATOM     10  O   UNL     1       0.454  -4.939  -0.029  0.00  0.00    -0.268 OA
ATOM     11  C   UNL     1       2.646  -4.303  -0.046  0.00  0.00    +0.098 A 
ATOM     12  C   UNL     1       3.534  -3.239  -0.049  0.00  0.00    +0.080 A 
ATOM     13  N   UNL     1       3.065  -1.982  -0.037  0.00  0.00    -0.212 NA
ENDROOT
BRANCH  12  14
ATOM     14  C   UNL     1       4.994  -3.488  -0.063  0.00  0.00    +0.001 A 
ATOM     15  C   UNL     1       5.481  -4.795  -0.069  0.00  0.00    +0.010 A 
ATOM     16  C   UNL     1       6.842  -5.021  -0.087  0.00  0.00    +0.001 A 
ATOM     17  C   UNL     1       7.723  -3.955  -0.088  0.00  0.00    +0.000 A 
ATOM     18  C   UNL     1       7.247  -2.656  -0.077  0.00  0.00    +0.001 A 
ATOM     19  C   UNL     1       5.888  -2.417  -0.065  0.00  0.00    +0.010 A 
ENDBRANCH  12  14
BRANCH   3  20
ATOM     20  C   UNL     1      -1.225   2.164   0.020  0.00  0.00    +0.155 A 
ATOM     21  C   UNL     1      -2.510   1.722   0.019  0.00  0.00    +0.051 A 
ATOM     22  C   UNL     1      -3.333   2.867   0.035  0.00  0.00    +0.042 A 
ATOM     23  C   UNL     1      -2.516   3.939   0.035  0.00  0.00    +0.196 A 
ATOM     24  O   UNL     1      -1.244   3.510   0.026  0.00  0.00    -0.461 OA
ENDBRANCH   3  20
BRANCH   1  27
ATOM     25  C   UNL     1       4.185   1.876  -0.028  0.00  0.00    +0.218 C 
ATOM     26  O   UNL     1       3.567   2.920  -0.016  0.00  0.00    -0.275 OA
ATOM     27  N   UNL     1       3.524   0.702  -0.028  0.00  0.00    -0.270 N 
ATOM     28  H   UNL     1       4.019  -0.133  -0.037  0.00  0.00    +0.156 HD
BRANCH  25  30
ATOM     29  C   UNL     1       6.186   3.341  -0.039  0.00  0.00    +0.013 C 
ATOM     30  C   UNL     1       5.692   1.893  -0.042  0.00  0.00    +0.093 C 
ENDBRANCH  25  30
ENDBRANCH   1  27
TORSDOF 4
