REMARK  Name = ZINC20205685
REMARK  9 active torsions:
REMARK  status: ('A' for Active; 'I' for Inactive)
REMARK    1  A    between atoms: C_1  and  C_2
REMARK    2  A    between atoms: C_5  and  O_9
REMARK    3  A    between atoms: C_7  and  C_8
REMARK    4  A    between atoms: O_9  and  C_10
REMARK    5  A    between atoms: C_10  and  C_11
REMARK    6  A    between atoms: C_11  and  N_12
REMARK    7  A    between atoms: C_14  and  C_21
REMARK    8  A    between atoms: C_32  and  S_33
REMARK    9  A    between atoms: S_33  and  C_36
REMARK                            x       y       z     vdW  Elec       q    Type
REMARK                         _______ _______ _______ _____ _____    ______ ____
ROOT
ATOM      1  N   UNL     1       0.078  -6.361  -2.492  0.00  0.00    -0.343 N 
ATOM      2  C   UNL     1      -0.936  -6.879  -3.213  0.00  0.00    +0.095 A 
ATOM      3  C   UNL     1      -0.428  -7.672  -4.223  0.00  0.00    +0.001 A 
ATOM      4  C   UNL     1       1.042  -7.619  -4.087  0.00  0.00    +0.007 A 
ATOM      5  C   UNL     1       1.295  -6.779  -2.991  0.00  0.00    +0.050 A 
ATOM      6  C   UNL     1       2.611  -6.527  -2.616  0.00  0.00    +0.026 A 
ATOM      7  C   UNL     1       3.648  -7.099  -3.321  0.00  0.00    +0.002 A 
ATOM      8  C   UNL     1       3.396  -7.925  -4.405  0.00  0.00    +0.001 A 
ATOM      9  C   UNL     1       2.098  -8.193  -4.787  0.00  0.00    +0.010 A 
ENDROOT
BRANCH   3  10
ATOM     10  C   UNL     1      -1.165  -8.391  -5.191  0.00  0.00    +0.026 C 
ATOM     11  C   UNL     1      -2.345  -9.019  -4.836  0.00  0.00    +0.078 C 
ATOM     12  C   UNL     1      -3.244  -9.635  -5.851  0.00  0.00    +0.117 C 
ATOM     13  N   UNL     1      -2.813 -10.184  -6.955  0.00  0.00    -0.386 N 
ATOM     14  N   UNL     1      -4.607  -9.565  -5.500  0.00  0.00    -0.203 N 
ATOM     15  C   UNL     1      -4.935  -9.428  -4.167  0.00  0.00    +0.183 C 
ATOM     16  N   UNL     1      -4.099  -9.254  -3.169  0.00  0.00    -0.152 NA
ATOM     17  C   UNL     1      -2.780  -9.123  -3.424  0.00  0.00    +0.273 C 
ATOM     18  O   UNL     1      -1.966  -9.088  -2.515  0.00  0.00    -0.268 OA
ATOM     19  S   UNL     1      -6.599  -9.521  -4.173  0.00  0.00    +0.049 S 
ATOM     20  N   UNL     1      -6.861  -9.618  -5.825  0.00  0.00    -0.174 NA
ATOM     21  C   UNL     1      -5.669  -9.626  -6.337  0.00  0.00    +0.257 C 
ATOM     22  H   UNL     1      -1.875 -10.120  -7.195  0.00  0.00    +0.157 HD
ATOM     23  H   UNL     1      -3.431 -10.656  -7.536  0.00  0.00    +0.157 HD
BRANCH  21  24
ATOM     24  S   UNL     1      -5.438  -9.713  -8.082  0.00  0.00    +0.026 S 
ATOM     25  O   UNL     1      -6.667  -9.262  -8.634  0.00  0.00    -0.167 OA
ATOM     26  O   UNL     1      -4.231  -9.002  -8.323  0.00  0.00    -0.167 OA
ATOM     27  C   UNL     1      -5.205 -11.477  -8.433  0.00  0.00    +0.203 C 
ENDBRANCH  21  24
ENDBRANCH   3  10
BRANCH   1  28
ATOM     28  C   UNL     1      -0.089  -5.471  -1.340  0.00  0.00    +0.163 C 
BRANCH  28  29
ATOM     29  C   UNL     1       0.010  -4.016  -1.802  0.00  0.00    +0.250 C 
BRANCH  29  30
ATOM     30  O   UNL     1      -0.152  -3.147  -0.678  0.00  0.00    -0.490 OA
BRANCH  30  35
ATOM     31  C   UNL     1       0.101   2.391  -1.669  0.00  0.00    +0.044 C 
ATOM     32  C   UNL     1       0.034   0.909  -1.404  0.00  0.00    -0.047 A 
ATOM     33  C   UNL     1       0.184   0.014  -2.447  0.00  0.00    +0.007 A 
ATOM     34  C   UNL     1       0.122  -1.345  -2.207  0.00  0.00    +0.046 A 
ATOM     35  C   UNL     1      -0.090  -1.811  -0.917  0.00  0.00    +0.121 A 
ATOM     36  C   UNL     1      -0.240  -0.911   0.127  0.00  0.00    +0.049 A 
ATOM     37  C   UNL     1      -0.172   0.447  -0.117  0.00  0.00    -0.044 A 
ATOM     38  C   UNL     1      -0.330   1.426   1.018  0.00  0.00    +0.044 C 
ENDBRANCH  30  35
ENDBRANCH  29  30
ENDBRANCH  28  29
ENDBRANCH   1  28
TORSDOF 6
