REMARK  Name = ZINC08752044
REMARK  5 active torsions:
REMARK  status: ('A' for Active; 'I' for Inactive)
REMARK    1  A    between atoms: C_7  and  C_11
REMARK    2  A    between atoms: C_16  and  C_17
REMARK    3  A    between atoms: C_16  and  N_50
REMARK    4  A    between atoms: C_20  and  C_26
REMARK    5  A    between atoms: C_22  and  N_23
REMARK                            x       y       z     vdW  Elec       q    Type
REMARK                         _______ _______ _______ _____ _____    ______ ____
ROOT
ATOM      1  C   UNL     1      -1.039   6.344   0.019  0.00  0.00    +0.018 C 
ATOM      2  C   UNL     1      -0.838   7.192  -1.240  0.00  0.00    -0.011 C 
ATOM      3  C   UNL     1      -1.711   8.445  -1.150  0.00  0.00    -0.078 C 
ATOM      4  C   UNL     1      -1.571   8.439   1.269  0.00  0.00    -0.078 C 
ATOM      5  C   UNL     1      -0.694   7.185   1.251  0.00  0.00    -0.011 C 
ATOM      6  N   UNL     1      -1.313   9.223   0.043  0.00  0.00    +0.382 N 
ATOM      7  H   UNL     1      -0.309   9.430  -0.015  0.00  0.00    -0.081 HD
ENDROOT
BRANCH   1  14
ATOM      8  C   UNL     1      -1.851   1.728   0.059  0.00  0.00    +0.001 A 
ATOM      9  C   UNL     1      -0.688   0.973  -0.007  0.00  0.00    +0.002 A 
ATOM     10  C   UNL     1       0.543   1.586  -0.082  0.00  0.00    +0.026 A 
ATOM     11  C   UNL     1       0.625   2.975  -0.085  0.00  0.00    +0.047 A 
ATOM     12  C   UNL     1      -0.556   3.735  -0.012  0.00  0.00    +0.003 A 
ATOM     13  C   UNL     1      -1.794   3.093   0.062  0.00  0.00    +0.010 A 
ATOM     14  C   UNL     1      -0.137   5.138  -0.036  0.00  0.00    -0.019 A 
ATOM     15  C   UNL     1       1.203   5.146  -0.118  0.00  0.00    +0.087 A 
ATOM     16  N   UNL     1       1.676   3.863  -0.148  0.00  0.00    -0.360 N 
ATOM     17  H   UNL     1       2.612   3.615  -0.205  0.00  0.00    +0.165 HD
ENDBRANCH   1  14
BRANCH   6  18
ATOM     18  C   UNL     1      -2.063  10.495   0.089  0.00  0.00    -0.041 C 
BRANCH  18  19
ATOM     19  C   UNL     1      -1.884  11.219  -1.220  0.00  0.00    -0.034 A 
ATOM     20  C   UNL     1      -2.931  11.277  -2.124  0.00  0.00    +0.005 A 
ATOM     21  C   UNL     1      -2.774  11.938  -3.324  0.00  0.00    +0.013 A 
ATOM     22  C   UNL     1      -1.556  12.550  -3.626  0.00  0.00    +0.039 A 
ATOM     23  C   UNL     1      -0.505  12.488  -2.711  0.00  0.00    +0.046 A 
ATOM     24  C   UNL     1      -0.676  11.828  -1.512  0.00  0.00    +0.128 A 
BRANCH  22  25
ATOM     25  C   UNL     1      -1.381  13.261  -4.911  0.00  0.00    +0.242 C 
ATOM     26  O   UNL     1      -0.320  13.792  -5.172  0.00  0.00    -0.270 OA
ATOM     27  N   UNL     1      -2.399  13.319  -5.793  0.00  0.00    -0.325 N 
ATOM     28  H   UNL     1      -3.246  12.894  -5.585  0.00  0.00    +0.145 HD
ATOM     29  H   UNL     1      -2.284  13.785  -6.636  0.00  0.00    +0.145 HD
ENDBRANCH  22  25
BRANCH  24  30
ATOM     30  N   UNL     1       0.436  11.766  -0.537  0.00  0.00    +0.057 N 
ATOM     31  O   UNL     1       1.464  12.384  -0.746  0.00  0.00    -0.126 OA
ATOM     32  O   UNL     1       0.323  11.097   0.475  0.00  0.00    -0.126 OA
ENDBRANCH  24  30
ENDBRANCH  18  19
ENDBRANCH   6  18
TORSDOF 5
