REMARK  Name = ZINC18230170
REMARK  8 active torsions:
REMARK  status: ('A' for Active; 'I' for Inactive)
REMARK    1  A    between atoms: C_1  and  C_2
REMARK    2  A    between atoms: C_6  and  N_8
REMARK    3  A    between atoms: N_8  and  C_9
REMARK    4  A    between atoms: N_19  and  C_22
REMARK    5  A    between atoms: C_26  and  S_28
REMARK    6  A    between atoms: S_28  and  N_31
REMARK    7  A    between atoms: N_31  and  C_32
REMARK    8  A    between atoms: C_32  and  C_33
REMARK                            x       y       z     vdW  Elec       q    Type
REMARK                         _______ _______ _______ _____ _____    ______ ____
ROOT
ATOM      1  C   UNL     1      -0.801  -4.077   2.661  0.00  0.00    +0.087 C 
ATOM      2  C   UNL     1      -0.266  -4.728   3.751  0.00  0.00    +0.059 C 
ATOM      3  C   UNL     1       0.176  -3.976   4.944  0.00  0.00    +0.000 A 
ATOM      4  C   UNL     1       0.072  -2.592   5.017  0.00  0.00    +0.009 A 
ATOM      5  C   UNL     1       0.498  -1.936   6.154  0.00  0.00    +0.001 A 
ATOM      6  C   UNL     1       1.029  -2.647   7.221  0.00  0.00    +0.001 A 
ATOM      7  C   UNL     1       1.140  -4.019   7.167  0.00  0.00    +0.014 A 
ATOM      8  C   UNL     1       0.714  -4.702   6.027  0.00  0.00    +0.046 A 
ATOM      9  C   UNL     1       0.814  -6.164   5.929  0.00  0.00    +0.258 C 
ATOM     10  O   UNL     1       1.277  -6.795   6.859  0.00  0.00    -0.269 OA
ATOM     11  N   UNL     1       0.403  -6.815   4.829  0.00  0.00    -0.202 N 
ATOM     12  C   UNL     1      -0.124  -6.188   3.764  0.00  0.00    +0.259 C 
ATOM     13  O   UNL     1      -0.483  -6.838   2.799  0.00  0.00    -0.269 OA
ENDROOT
BRANCH  11  14
ATOM     14  C   UNL     1       0.523  -8.210   4.792  0.00  0.00    +0.046 A 
ATOM     15  C   UNL     1      -0.484  -9.010   5.316  0.00  0.00    +0.024 A 
ATOM     16  C   UNL     1      -0.363 -10.385   5.279  0.00  0.00    +0.004 A 
ATOM     17  C   UNL     1       0.760 -10.966   4.720  0.00  0.00    +0.028 A 
ATOM     18  C   UNL     1       1.765 -10.173   4.197  0.00  0.00    +0.107 A 
ATOM     19  C   UNL     1       1.647  -8.797   4.227  0.00  0.00    +0.052 A 
BRANCH  18  20
ATOM     20  S   UNL     1       3.195 -10.919   3.486  0.00  0.00    +0.059 S 
ATOM     21  O   UNL     1       4.235  -9.954   3.560  0.00  0.00    -0.153 OA
ATOM     22  O   UNL     1       3.310 -12.210   4.067  0.00  0.00    -0.153 OA
BRANCH  20  23
ATOM     23  N   UNL     1       2.877 -11.150   1.877  0.00  0.00    -0.183 NA
ATOM     24  H   UNL     1       2.824 -12.050   1.518  0.00  0.00    +0.148 HD
BRANCH  23  25
ATOM     25  C   UNL     1       2.676  -9.997   0.997  0.00  0.00    +0.180 C 
BRANCH  25  26
ATOM     26  C   UNL     1       2.773 -10.439  -0.440  0.00  0.00    +0.120 A 
ATOM     27  C   UNL     1       1.749 -10.861  -1.204  0.00  0.00    +0.046 A 
ATOM     28  C   UNL     1       2.286 -11.173  -2.474  0.00  0.00    +0.041 A 
ATOM     29  C   UNL     1       3.607 -10.924  -2.410  0.00  0.00    +0.195 A 
ATOM     30  O   UNL     1       3.895 -10.474  -1.178  0.00  0.00    -0.466 OA
ENDBRANCH  25  26
ENDBRANCH  23  25
ENDBRANCH  20  23
ENDBRANCH  18  20
ENDBRANCH  11  14
BRANCH   1  31
ATOM     31  N   UNL     1      -0.441  -2.793   2.391  0.00  0.00    -0.306 N 
ATOM     32  H   UNL     1       0.259  -2.366   2.910  0.00  0.00    +0.153 HD
BRANCH  31  38
ATOM     33  C   UNL     1      -0.861   1.277  -0.096  0.00  0.00    +0.063 C 
ATOM     34  C   UNL     1      -1.301  -0.141   0.157  0.00  0.00    +0.014 A 
ATOM     35  C   UNL     1      -2.304  -0.692  -0.617  0.00  0.00    +0.021 A 
ATOM     36  C   UNL     1      -2.705  -2.000  -0.379  0.00  0.00    +0.005 A 
ATOM     37  C   UNL     1      -2.080  -2.709   0.632  0.00  0.00    +0.042 A 
ATOM     38  C   UNL     1      -1.078  -2.091   1.371  0.00  0.00    +0.100 A 
ATOM     39  N   UNL     1      -0.720  -0.843   1.111  0.00  0.00    -0.347 N 
ATOM     40  H   UNL     1      -0.015  -0.433   1.637  0.00  0.00    +0.167 HD
ENDBRANCH  31  38
ENDBRANCH   1  31
TORSDOF 7
