REMARK  Name = ZINC20218671
REMARK  1 active torsions:
REMARK  status: ('A' for Active; 'I' for Inactive)
REMARK    1  A    between atoms: C_10  and  C_12
REMARK                            x       y       z     vdW  Elec       q    Type
REMARK                         _______ _______ _______ _____ _____    ______ ____
ROOT
ATOM      1  C   UNL     1      -0.017   1.376   0.010  0.00  0.00    +0.000 A 
ATOM      2  C   UNL     1       1.173   2.080   0.002  0.00  0.00    +0.000 A 
ATOM      3  C   UNL     1       2.375   1.401  -0.012  0.00  0.00    +0.002 A 
ATOM      4  C   UNL     1       2.395   0.014  -0.019  0.00  0.00    -0.054 A 
ATOM      5  C   UNL     1       1.208  -0.687  -0.014  0.00  0.00    -0.047 A 
ATOM      6  C   UNL     1       0.002  -0.004   0.002  0.00  0.00    +0.004 A 
ATOM      7  C   UNL     1       1.186  -2.194  -0.030  0.00  0.00    +0.016 C 
ATOM      8  C   UNL     1       2.562  -2.736   0.357  0.00  0.00    -0.077 C 
ATOM      9  N   UNL     1       3.578  -2.074  -0.475  0.00  0.00    +0.387 N 
ATOM     10  C   UNL     1       3.728  -0.686  -0.030  0.00  0.00    +0.001 C 
ATOM     11  H   UNL     1       4.459  -2.557  -0.380  0.00  0.00    -0.085 HD
ATOM     12  H   UNL     1       3.286  -2.090  -1.441  0.00  0.00    -0.085 HD
ENDROOT
BRANCH  10  13
ATOM     13  C   UNL     1       4.662   0.037  -0.966  0.00  0.00    +0.074 A 
ATOM     14  C   UNL     1       5.783   0.652  -0.480  0.00  0.00    +0.198 A 
ATOM     15  C   UNL     1       6.661   1.345  -1.435  0.00  0.00    +0.064 A 
ATOM     16  C   UNL     1       7.822   1.992  -1.008  0.00  0.00    +0.015 A 
ATOM     17  C   UNL     1       8.623   2.631  -1.928  0.00  0.00    +0.001 A 
ATOM     18  C   UNL     1       8.281   2.633  -3.273  0.00  0.00    +0.004 A 
ATOM     19  C   UNL     1       7.137   1.997  -3.708  0.00  0.00    +0.047 A 
ATOM     20  C   UNL     1       6.316   1.347  -2.796  0.00  0.00    +0.143 A 
ATOM     21  O   UNL     1       5.192   0.718  -3.206  0.00  0.00    -0.422 OA
ATOM     22  C   UNL     1       4.388   0.079  -2.342  0.00  0.00    +0.343 A 
ATOM     23  O   UNL     1       3.388  -0.477  -2.764  0.00  0.00    -0.245 OA
ATOM     24  O   UNL     1       6.075   0.624   0.841  0.00  0.00    -0.287 OA
ENDBRANCH  10  13
TORSDOF 1
