REMARK  Name = ZINC63351231
REMARK  12 active torsions:
REMARK  status: ('A' for Active; 'I' for Inactive)
REMARK    1  A    between atoms: C_1  and  O_2
REMARK    2  A    between atoms: O_2  and  C_3
REMARK    3  A    between atoms: C_8  and  O_9
REMARK    4  A    between atoms: O_9  and  C_10
REMARK    5  A    between atoms: C_14  and  N_16
REMARK    6  A    between atoms: C_17  and  C_23
REMARK    7  A    between atoms: N_25  and  C_26
REMARK    8  A    between atoms: C_26  and  C_28
REMARK    9  A    between atoms: C_26  and  C_38
REMARK   10  A    between atoms: C_28  and  C_29
REMARK   11  A    between atoms: C_38  and  O_40
REMARK   12  A    between atoms: O_40  and  C_41
REMARK                            x       y       z     vdW  Elec       q    Type
REMARK                         _______ _______ _______ _____ _____    ______ ____
ROOT
ATOM      1  N   UNL     1       3.484  -2.665   4.765  0.00  0.00    -0.251 N 
ATOM      2  C   UNL     1       4.625  -2.034   5.439  0.00  0.00    +0.166 C 
ATOM      3  C   UNL     1       5.862  -2.409   4.594  0.00  0.00    +0.041 C 
ATOM      4  C   UNL     1       5.232  -2.652   3.203  0.00  0.00    +0.098 C 
ATOM      5  C   UNL     1       3.797  -3.023   3.507  0.00  0.00    +0.219 C 
ATOM      6  O   UNL     1       3.039  -3.561   2.729  0.00  0.00    -0.275 OA
ENDROOT
BRANCH   1  16
ATOM      7  C   UNL     1       1.878  -6.509   7.593  0.00  0.00    +0.162 A 
ATOM      8  C   UNL     1       2.094  -6.650   6.232  0.00  0.00    +0.050 A 
ATOM      9  C   UNL     1       2.206  -5.531   5.422  0.00  0.00    +0.013 A 
ATOM     10  C   UNL     1       2.103  -4.273   5.964  0.00  0.00    +0.029 A 
ATOM     11  C   UNL     1       1.885  -4.111   7.338  0.00  0.00    +0.112 A 
ATOM     12  C   UNL     1       1.767  -5.241   8.155  0.00  0.00    +0.176 A 
ATOM     13  C   UNL     1       1.821  -2.667   7.612  0.00  0.00    +0.345 C 
ATOM     14  O   UNL     1       1.643  -2.173   8.707  0.00  0.00    -0.245 OA
ATOM     15  O   UNL     1       1.991  -1.974   6.473  0.00  0.00    -0.435 OA
ATOM     16  C   UNL     1       2.175  -2.883   5.384  0.00  0.00    +0.302 C 
BRANCH   7  18
ATOM     17  C   UNL     1       1.893  -8.883   7.738  0.00  0.00    +0.277 C 
ATOM     18  O   UNL     1       1.769  -7.612   8.380  0.00  0.00    -0.491 OA
ENDBRANCH   7  18
BRANCH  12  19
ATOM     19  O   UNL     1       1.549  -5.101   9.487  0.00  0.00    -0.491 OA
ATOM     20  C   UNL     1       2.702  -5.013  10.327  0.00  0.00    +0.277 C 
ENDBRANCH  12  19
ENDBRANCH   1  16
BRANCH   2  21
ATOM     21  C   UNL     1       4.448  -0.538   5.473  0.00  0.00    +0.234 C 
ATOM     22  O   UNL     1       3.743   0.008   4.652  0.00  0.00    -0.274 OA
ATOM     23  N   UNL     1       5.073   0.193   6.417  0.00  0.00    -0.301 N 
ATOM     24  H   UNL     1       5.637  -0.244   7.074  0.00  0.00    +0.150 HD
BRANCH  23  25
ATOM     25  C   UNL     1       4.902   1.647   6.450  0.00  0.00    +0.186 C 
BRANCH  25  26
ATOM     26  C   UNL     1       3.652   1.988   7.220  0.00  0.00    +0.328 C 
ATOM     27  O   UNL     1       2.974   1.106   7.693  0.00  0.00    -0.249 OA
BRANCH  26  28
ATOM     28  O   UNL     1       3.291   3.271   7.381  0.00  0.00    -0.467 OA
ATOM     29  C   UNL     1       2.095   3.521   8.122  0.00  0.00    +0.280 C 
ENDBRANCH  26  28
ENDBRANCH  25  26
BRANCH  25  30
ATOM     30  C   UNL     1       6.112   2.288   7.133  0.00  0.00    +0.067 C 
BRANCH  30  31
ATOM     31  C   UNL     1       7.343   2.052   6.297  0.00  0.00    -0.039 C 
ATOM     32  C   UNL     1       7.878   2.890   5.380  0.00  0.00    -0.001 A 
ATOM     33  C   UNL     1       7.486   4.222   4.904  0.00  0.00    +0.010 A 
ATOM     34  C   UNL     1       8.236   4.825   3.954  0.00  0.00    +0.001 A 
ATOM     35  C   UNL     1       9.375   4.212   3.414  0.00  0.00    +0.002 A 
ATOM     36  C   UNL     1       9.798   2.990   3.801  0.00  0.00    +0.026 A 
ATOM     37  C   UNL     1       9.084   2.264   4.795  0.00  0.00    +0.043 A 
ATOM     38  N   UNL     1       9.288   1.084   5.329  0.00  0.00    -0.380 N 
ATOM     39  C   UNL     1       8.236   0.831   6.319  0.00  0.00    +0.144 C 
ATOM     40  H   UNL     1      10.015   0.481   5.109  0.00  0.00    +0.160 HD
ENDBRANCH  30  31
ENDBRANCH  25  30
ENDBRANCH  23  25
ENDBRANCH   2  21
TORSDOF 9
