REMARK  Name = ZINC52402888
REMARK  7 active torsions:
REMARK  status: ('A' for Active; 'I' for Inactive)
REMARK    1  A    between atoms: C_1  and  C_2
REMARK    2  A    between atoms: C_4  and  C_7
REMARK    3  A    between atoms: C_7  and  N_8
REMARK    4  A    between atoms: N_8  and  C_9
REMARK    5  A    between atoms: C_12  and  S_18
REMARK    6  A    between atoms: C_14  and  N_15
REMARK    7  A    between atoms: S_18  and  C_21
REMARK                            x       y       z     vdW  Elec       q    Type
REMARK                         _______ _______ _______ _____ _____    ______ ____
ROOT
ATOM      1  C   UNL     1      -3.699  -3.982   1.645  0.00  0.00    +0.058 A 
ATOM      2  C   UNL     1      -4.405  -4.545   0.590  0.00  0.00    +0.027 A 
ATOM      3  C   UNL     1      -5.290  -5.578   0.826  0.00  0.00    +0.029 A 
ATOM      4  C   UNL     1      -5.474  -6.054   2.111  0.00  0.00    +0.100 A 
ATOM      5  C   UNL     1      -4.772  -5.496   3.164  0.00  0.00    +0.062 A 
ATOM      6  C   UNL     1      -3.881  -4.466   2.935  0.00  0.00    +0.149 A 
ENDROOT
BRANCH   6   7
ATOM      7  N   UNL     1      -3.127  -3.874   4.062  0.00  0.00    +0.058 N 
ATOM      8  O   UNL     1      -1.978  -3.531   3.906  0.00  0.00    -0.126 OA
ATOM      9  O   UNL     1      -3.659  -3.733   5.138  0.00  0.00    -0.126 OA
ENDBRANCH   6   7
BRANCH   4  10
ATOM     10  S   UNL     1      -6.604  -7.372   2.408  0.00  0.00    +0.091 S 
ATOM     11  O   UNL     1      -7.013  -7.202   3.758  0.00  0.00    -0.161 OA
ATOM     12  O   UNL     1      -7.547  -7.287   1.348  0.00  0.00    -0.161 OA
BRANCH  10  13
ATOM     13  C   UNL     1      -5.612  -8.882   2.241  0.00  0.00    +0.526 C 
ATOM     14  F   UNL     1      -4.577  -8.867   3.182  0.00  0.00    -0.150 F 
ATOM     15  F   UNL     1      -6.424 -10.000   2.460  0.00  0.00    -0.150 F 
ATOM     16  F   UNL     1      -5.071  -8.945   0.952  0.00  0.00    -0.150 F 
ENDBRANCH  10  13
ENDBRANCH   4  10
BRANCH   1  17
ATOM     17  N   UNL     1      -2.803  -2.937   1.410  0.00  0.00    -0.336 N 
ATOM     18  H   UNL     1      -2.374  -2.489   2.156  0.00  0.00    +0.147 HD
BRANCH  17  19
ATOM     19  C   UNL     1      -2.510  -2.518   0.037  0.00  0.00    +0.157 C 
BRANCH  19  23
ATOM     20  C   UNL     1      -1.314   2.328   0.393  0.00  0.00    +0.073 C 
ATOM     21  C   UNL     1      -1.048   0.854   0.231  0.00  0.00    +0.076 A 
ATOM     22  N   UNL     1      -1.911  -0.131   0.212  0.00  0.00    -0.248 NA
ATOM     23  C   UNL     1      -1.521  -1.381   0.059  0.00  0.00    +0.066 A 
ATOM     24  C   UNL     1      -0.188  -1.598  -0.076  0.00  0.00    +0.071 A 
ATOM     25  S   UNL     1       0.429   0.075   0.021  0.00  0.00    -0.080 S 
ENDBRANCH  19  23
ENDBRANCH  17  19
ENDBRANCH   1  17
TORSDOF 6
