REMARK  Name = ZINC41117478
REMARK  7 active torsions:
REMARK  status: ('A' for Active; 'I' for Inactive)
REMARK    1  A    between atoms: C_4  and  N_11
REMARK    2  A    between atoms: C_5  and  C_7
REMARK    3  A    between atoms: C_7  and  C_8
REMARK    4  A    between atoms: N_11  and  C_12
REMARK    5  A    between atoms: C_12  and  C_13
REMARK    6  A    between atoms: C_17  and  O_20
REMARK    7  A    between atoms: C_18  and  O_19
REMARK                            x       y       z     vdW  Elec       q    Type
REMARK                         _______ _______ _______ _____ _____    ______ ____
ROOT
ATOM      1  N   UNL     1       3.620  -0.649  -0.036  0.00  0.00    -0.339 N 
ATOM      2  H   UNL     1       3.634  -1.619  -0.042  0.00  0.00    +0.146 HD
ENDROOT
BRANCH   1   6
ATOM      3  C   UNL     1      -0.017   1.378   0.010  0.00  0.00    +0.000 A 
ATOM      4  C   UNL     1       1.170   2.089   0.002  0.00  0.00    +0.002 A 
ATOM      5  C   UNL     1       2.377   1.420  -0.013  0.00  0.00    +0.023 A 
ATOM      6  C   UNL     1       2.400   0.031  -0.021  0.00  0.00    +0.031 A 
ATOM      7  C   UNL     1       1.207  -0.680  -0.013  0.00  0.00    -0.018 A 
ATOM      8  C   UNL     1       0.002  -0.004   0.002  0.00  0.00    +0.006 A 
BRANCH   7   9
ATOM      9  C   UNL     1       1.226  -2.187  -0.022  0.00  0.00    +0.132 C 
BRANCH   9  10
ATOM     10  C   UNL     1       1.370  -2.696   1.389  0.00  0.00    +0.215 C 
ATOM     11  O   UNL     1       1.449  -1.912   2.312  0.00  0.00    -0.276 OA
ATOM     12  N   UNL     1       1.411  -4.021   1.627  0.00  0.00    -0.329 N 
ATOM     13  H   UNL     1       1.348  -4.648   0.889  0.00  0.00    +0.145 HD
ATOM     14  H   UNL     1       1.504  -4.349   2.535  0.00  0.00    +0.145 HD
ENDBRANCH   9  10
ENDBRANCH   7   9
ENDBRANCH   1   6
BRANCH   1  15
ATOM     15  C   UNL     1       4.877   0.102  -0.045  0.00  0.00    +0.140 C 
BRANCH  15  16
ATOM     16  C   UNL     1       6.037  -0.860  -0.061  0.00  0.00    +0.015 A 
ATOM     17  C   UNL     1       6.710  -1.152   1.111  0.00  0.00    +0.009 A 
ATOM     18  C   UNL     1       7.774  -2.034   1.099  0.00  0.00    +0.004 A 
ATOM     19  C   UNL     1       8.171  -2.628  -0.085  0.00  0.00    +0.049 A 
ATOM     20  C   UNL     1       7.501  -2.340  -1.263  0.00  0.00    +0.159 A 
ATOM     21  C   UNL     1       6.426  -1.456  -1.250  0.00  0.00    +0.163 A 
BRANCH  21  22
ATOM     22  O   UNL     1       5.761  -1.175  -2.403  0.00  0.00    -0.503 OA
ATOM     23  H   UNL     1       6.123  -0.423  -2.891  0.00  0.00    +0.292 HD
ENDBRANCH  21  22
BRANCH  20  24
ATOM     24  O   UNL     1       7.890  -2.923  -2.428  0.00  0.00    -0.503 OA
ATOM     25  H   UNL     1       7.448  -3.763  -2.614  0.00  0.00    +0.292 HD
ENDBRANCH  20  24
ENDBRANCH  15  16
ENDBRANCH   1  15
TORSDOF 7
