REMARK  Name = ZINC20235490
REMARK  9 active torsions:
REMARK  status: ('A' for Active; 'I' for Inactive)
REMARK    1  A    between atoms: C_1  and  C_2
REMARK    2  A    between atoms: C_2  and  O_3
REMARK    3  A    between atoms: O_3  and  C_4
REMARK    4  A    between atoms: C_12  and  C_14
REMARK    5  A    between atoms: C_14  and  N_15
REMARK    6  A    between atoms: N_15  and  C_16
REMARK    7  A    between atoms: N_15  and  S_23
REMARK    8  A    between atoms: S_23  and  C_26
REMARK    9  A    between atoms: C_29  and  C_32
REMARK                            x       y       z     vdW  Elec       q    Type
REMARK                         _______ _______ _______ _____ _____    ______ ____
ROOT
ATOM      1  N   UNL     1      -0.343   1.624  -0.033  0.00  0.00    -0.194 N 
ENDROOT
BRANCH   1   2
ATOM      2  C   UNL     1       0.790   2.417  -0.228  0.00  0.00    +0.053 A 
ATOM      3  C   UNL     1       0.660   3.710  -0.717  0.00  0.00    +0.025 A 
ATOM      4  C   UNL     1       1.782   4.492  -0.909  0.00  0.00    +0.003 A 
ATOM      5  C   UNL     1       3.036   3.988  -0.614  0.00  0.00    +0.015 A 
ATOM      6  C   UNL     1       3.170   2.700  -0.127  0.00  0.00    +0.020 A 
ATOM      7  C   UNL     1       2.050   1.915   0.072  0.00  0.00    +0.040 A 
ATOM      8 BR   UNL     1       4.887   2.016   0.275  0.00  0.00    -0.050 Br
ENDBRANCH   1   2
BRANCH   1   9
ATOM      9  S   UNL     1      -0.488   0.177  -0.825  0.00  0.00    +0.075 S 
ATOM     10  O   UNL     1      -1.879  -0.105  -0.903  0.00  0.00    -0.150 OA
ATOM     11  O   UNL     1       0.339   0.260  -1.977  0.00  0.00    -0.150 OA
BRANCH   9  12
ATOM     12  C   UNL     1       0.218  -1.058   0.214  0.00  0.00    +0.109 A 
ATOM     13  C   UNL     1       1.524  -1.466   0.014  0.00  0.00    +0.029 A 
ATOM     14  C   UNL     1       2.079  -2.432   0.832  0.00  0.00    +0.005 A 
ATOM     15  C   UNL     1       1.326  -2.997   1.844  0.00  0.00    -0.050 A 
ATOM     16  C   UNL     1       0.019  -2.593   2.041  0.00  0.00    +0.005 A 
ATOM     17  C   UNL     1      -0.535  -1.624   1.226  0.00  0.00    +0.029 A 
ATOM     18  C   UNL     1       1.930  -4.054   2.733  0.00  0.00    +0.044 C 
ENDBRANCH   9  12
ENDBRANCH   1   9
BRANCH   1  19
ATOM     19  C   UNL     1      -1.407   2.076   0.868  0.00  0.00    +0.227 C 
BRANCH  19  28
ATOM     20  C   UNL     1      -4.856   1.841   5.975  0.00  0.00    +0.403 C 
ATOM     21  O   UNL     1      -4.585   1.521   7.115  0.00  0.00    -0.226 OA
ATOM     22  N   UNL     1      -4.016   1.528   4.969  0.00  0.00    -0.264 N 
ATOM     23  C   UNL     1      -2.768   0.799   5.236  0.00  0.00    +0.130 C 
ATOM     24  C   UNL     1      -1.595   1.611   4.672  0.00  0.00    +0.127 C 
ATOM     25  N   UNL     1      -1.911   1.992   3.288  0.00  0.00    -0.297 N 
ATOM     26  C   UNL     1      -3.155   2.726   3.022  0.00  0.00    +0.127 C 
ATOM     27  C   UNL     1      -4.331   1.909   3.585  0.00  0.00    +0.130 C 
ATOM     28  C   UNL     1      -1.070   1.679   2.282  0.00  0.00    +0.235 C 
ATOM     29  O   UNL     1      -0.043   1.077   2.515  0.00  0.00    -0.274 OA
BRANCH  20  30
ATOM     30  O   UNL     1      -5.996   2.510   5.716  0.00  0.00    -0.451 OA
BRANCH  30  32
ATOM     31  C   UNL     1      -8.091   3.570   6.362  0.00  0.00    +0.048 C 
ATOM     32  C   UNL     1      -6.853   2.813   6.848  0.00  0.00    +0.230 C 
ENDBRANCH  30  32
ENDBRANCH  20  30
ENDBRANCH  19  28
ENDBRANCH   1  19
TORSDOF 7
