REMARK  Name = ZINC10098724
REMARK  12 active torsions:
REMARK  status: ('A' for Active; 'I' for Inactive)
REMARK    1  A    between atoms: C_1  and  C_2
REMARK    2  A    between atoms: C_2  and  C_3
REMARK    3  A    between atoms: C_2  and  N_4
REMARK    4  A    between atoms: N_4  and  C_5
REMARK    5  A    between atoms: N_4  and  S_6
REMARK    6  A    between atoms: S_6  and  C_9
REMARK    7  A    between atoms: C_12  and  C_15
REMARK    8  A    between atoms: C_15  and  N_17
REMARK    9  A    between atoms: N_19  and  C_31
REMARK   10  A    between atoms: C_23  and  S_27
REMARK   11  A    between atoms: S_27  and  C_30
REMARK   12  A    between atoms: C_31  and  C_32
REMARK                            x       y       z     vdW  Elec       q    Type
REMARK                         _______ _______ _______ _____ _____    ______ ____
ROOT
ATOM      1  N   UNL     1       1.247  -1.998   6.362  0.00  0.00    -0.152 NA
ATOM      2  C   UNL     1       1.265  -2.398   7.629  0.00  0.00    +0.167 A 
ATOM      3  N   UNL     1       2.343  -2.637   8.423  0.00  0.00    -0.317 N 
ATOM      4  C   UNL     1       2.162  -3.051   9.729  0.00  0.00    +0.058 A 
ATOM      5  C   UNL     1       3.140  -3.345  10.693  0.00  0.00    +0.029 A 
ATOM      6  C   UNL     1       2.783  -3.747  11.958  0.00  0.00    +0.029 A 
ATOM      7  C   UNL     1       1.452  -3.875  12.321  0.00  0.00    +0.089 A 
ATOM      8  C   UNL     1       0.468  -3.592  11.391  0.00  0.00    +0.044 A 
ATOM      9  C   UNL     1       0.824  -3.190  10.126  0.00  0.00    +0.041 A 
ATOM     10  S   UNL     1      -0.081  -2.732   8.669  0.00  0.00    -0.052 S 
ENDROOT
BRANCH   7  11
ATOM     11  S   UNL     1       1.019  -4.392  13.949  0.00  0.00    -0.006 S 
ATOM     12  O   UNL     1       2.121  -4.004  14.758  0.00  0.00    -0.170 OA
ATOM     13  O   UNL     1      -0.273  -3.844  14.172  0.00  0.00    -0.170 OA
ATOM     14  C   UNL     1       0.921  -6.201  13.853  0.00  0.00    +0.200 C 
ENDBRANCH   7  11
BRANCH   1  15
ATOM     15  C   UNL     1       0.081  -1.813   5.735  0.00  0.00    +0.269 C 
ATOM     16  O   UNL     1      -0.966  -2.010   6.326  0.00  0.00    -0.268 OA
BRANCH  15  20
ATOM     17  C   UNL     1       0.025  -0.534   1.682  0.00  0.00    +0.106 A 
ATOM     18  C   UNL     1       1.234  -0.730   2.326  0.00  0.00    +0.029 A 
ATOM     19  C   UNL     1       1.258  -1.140   3.644  0.00  0.00    +0.015 A 
ATOM     20  C   UNL     1       0.062  -1.367   4.323  0.00  0.00    +0.039 A 
ATOM     21  C   UNL     1      -1.154  -1.173   3.666  0.00  0.00    +0.015 A 
ATOM     22  C   UNL     1      -1.165  -0.757   2.351  0.00  0.00    +0.029 A 
BRANCH  17  23
ATOM     23  S   UNL     1       0.002  -0.004   0.002  0.00  0.00    +0.061 S 
ATOM     24  O   UNL     1      -1.243  -0.424  -0.539  0.00  0.00    -0.153 OA
ATOM     25  O   UNL     1       1.248  -0.390  -0.563  0.00  0.00    -0.153 OA
BRANCH  23  26
ATOM     26  N   UNL     1      -0.020   1.652   0.011  0.00  0.00    -0.177 NA
ATOM     27  C   UNL     1      -1.299   2.367   0.021  0.00  0.00    +0.132 C 
BRANCH  26  29
ATOM     28  C   UNL     1       1.295   3.289  -1.242  0.00  0.00    +0.025 C 
ATOM     29  C   UNL     1       1.238   2.401   0.003  0.00  0.00    +0.073 C 
ATOM     30  C   UNL     1       1.319   3.275   1.256  0.00  0.00    +0.025 C 
ENDBRANCH  26  29
ENDBRANCH  23  26
ENDBRANCH  17  23
ENDBRANCH  15  20
ENDBRANCH   1  15
BRANCH   3  31
ATOM     31  C   UNL     1       3.696  -2.456   7.893  0.00  0.00    +0.151 C 
BRANCH  31  32
ATOM     32  C   UNL     1       3.697  -2.733   6.412  0.00  0.00    -0.013 C 
ATOM     33  C   UNL     1       4.150  -1.831   5.577  0.00  0.00    +0.005 C 
ENDBRANCH  31  32
ENDBRANCH   3  31
TORSDOF 8
