REMARK  Name = ZINC44944173
REMARK  6 active torsions:
REMARK  status: ('A' for Active; 'I' for Inactive)
REMARK    1  A    between atoms: C_4  and  C_7
REMARK    2  A    between atoms: C_7  and  O_8
REMARK    3  A    between atoms: O_8  and  C_9
REMARK    4  A    between atoms: C_15  and  N_17
REMARK    5  A    between atoms: C_18  and  C_20
REMARK    6  A    between atoms: C_26  and  C_28
REMARK                            x       y       z     vdW  Elec       q    Type
REMARK                         _______ _______ _______ _____ _____    ______ ____
ROOT
ATOM      1  C   UNL     1       6.733   2.373   3.757  0.00  0.00    +0.091 C 
ATOM      2  C   UNL     1       8.037   2.626   2.997  0.00  0.00    +0.040 C 
ATOM      3  C   UNL     1       8.475   4.050   3.180  0.00  0.00    -0.030 C 
ATOM      4  C   UNL     1       8.031   4.830   4.112  0.00  0.00    -0.030 C 
ATOM      5  C   UNL     1       7.010   4.424   5.134  0.00  0.00    +0.040 C 
ATOM      6  C   UNL     1       6.891   2.900   5.189  0.00  0.00    +0.091 C 
ENDROOT
BRANCH   6   7
ATOM      7  C   UNL     1       5.687   2.511   6.007  0.00  0.00    +0.220 C 
ATOM      8  O   UNL     1       4.591   2.468   5.491  0.00  0.00    -0.275 OA
ATOM      9  N   UNL     1       5.829   2.210   7.313  0.00  0.00    -0.298 N 
ATOM     10  C   UNL     1       7.126   2.379   7.983  0.00  0.00    +0.126 C 
ATOM     11  C   UNL     1       6.931   3.284   9.206  0.00  0.00    +0.125 C 
ATOM     12  N   UNL     1       5.791   2.781   9.986  0.00  0.00    -0.314 N 
ATOM     13  C   UNL     1       4.494   2.611   9.316  0.00  0.00    +0.125 C 
ATOM     14  C   UNL     1       4.688   1.712   8.094  0.00  0.00    +0.126 C 
ATOM     15  C   UNL     1       5.937   2.470  11.333  0.00  0.00    +0.099 A 
ATOM     16  C   UNL     1       7.137   2.751  11.979  0.00  0.00    +0.042 A 
ATOM     17  C   UNL     1       7.269   2.437  13.319  0.00  0.00    +0.005 A 
ATOM     18  C   UNL     1       6.192   1.850  13.972  0.00  0.00    +0.018 A 
ATOM     19  C   UNL     1       5.031   1.600  13.269  0.00  0.00    +0.084 A 
ATOM     20  N   UNL     1       4.932   1.915  11.991  0.00  0.00    -0.350 N 
ATOM     21  H   UNL     1       4.103   1.732  11.522  0.00  0.00    +0.166 HD
ENDBRANCH   6   7
BRANCH   1  23
ATOM     22  N   UNL     1       6.277   0.214   2.639  0.00  0.00    -0.310 N 
ATOM     23  C   UNL     1       6.445   0.894   3.790  0.00  0.00    +0.217 C 
ATOM     24  O   UNL     1       6.364   0.316   4.853  0.00  0.00    -0.275 OA
ATOM     25  H   UNL     1       6.341   0.677   1.788  0.00  0.00    +0.149 HD
BRANCH  22  31
ATOM     26  C   UNL     1       5.257  -1.627   1.394  0.00  0.00    +0.139 C 
ATOM     27  C   UNL     1       4.964  -3.129   1.428  0.00  0.00    +0.033 C 
ATOM     28  C   UNL     1       6.280  -3.903   1.522  0.00  0.00    +0.003 C 
ATOM     29  C   UNL     1       7.020  -3.499   2.799  0.00  0.00    +0.002 C 
ATOM     30  C   UNL     1       7.312  -1.998   2.765  0.00  0.00    +0.025 C 
ATOM     31  C   UNL     1       5.996  -1.223   2.671  0.00  0.00    +0.102 C 
BRANCH  26  32
ATOM     32  O   UNL     1       4.027  -0.904   1.306  0.00  0.00    -0.370 OA
BRANCH  32  33
ATOM     33  C   UNL     1       3.595  -0.653  -0.032  0.00  0.00    +0.195 C 
BRANCH  33  37
ATOM     34  C   UNL     1      -0.086   1.514   0.041  0.00  0.00    +0.000 A 
ATOM     35  C   UNL     1       1.117   2.195   0.028  0.00  0.00    +0.000 A 
ATOM     36  C   UNL     1       2.308   1.494   0.005  0.00  0.00    +0.006 A 
ATOM     37  C   UNL     1       2.296   0.112  -0.005  0.00  0.00    -0.022 A 
ATOM     38  C   UNL     1       1.094  -0.570   0.008  0.00  0.00    +0.006 A 
ATOM     39  C   UNL     1      -0.098   0.131   0.030  0.00  0.00    +0.000 A 
ENDBRANCH  33  37
ENDBRANCH  32  33
ENDBRANCH  26  32
ENDBRANCH  22  31
ENDBRANCH   1  23
TORSDOF 6
