REMARK  Name = ZINC04648841
REMARK  4 active torsions:
REMARK  status: ('A' for Active; 'I' for Inactive)
REMARK    1  A    between atoms: C_1  and  C_2
REMARK    2  A    between atoms: C_2  and  C_4
REMARK    3  A    between atoms: C_5  and  N_26
REMARK    4  A    between atoms: C_7  and  C_21
REMARK                            x       y       z     vdW  Elec       q    Type
REMARK                         _______ _______ _______ _____ _____    ______ ____
ROOT
ATOM      1  C   UNL     1      -0.036  10.229   0.136  0.00  0.00    +0.077 A 
ATOM      2  C   UNL     1      -0.778   9.056   0.117  0.00  0.00    +0.052 A 
ATOM      3  C   UNL     1      -0.106   7.822   0.080  0.00  0.00    +0.038 A 
ATOM      4  C   UNL     1      -0.677   6.507   0.055  0.00  0.00    +0.010 A 
ATOM      5  C   UNL     1       0.180   5.401   0.018  0.00  0.00    +0.021 A 
ATOM      6  C   UNL     1       1.571   5.597   0.006  0.00  0.00    +0.121 A 
ATOM      7  N   UNL     1       2.074   6.822   0.029  0.00  0.00    -0.236 NA
ATOM      8  C   UNL     1       1.307   7.889   0.064  0.00  0.00    +0.112 A 
ATOM      9  S   UNL     1       1.645   9.634   0.101  0.00  0.00    -0.064 S 
ATOM     10  C   UNL     1       2.216   4.258  -0.035  0.00  0.00    +0.212 C 
ATOM     11  O   UNL     1       3.409   4.031  -0.054  0.00  0.00    -0.285 OA
ATOM     12  C   UNL     1       1.130   3.254  -0.045  0.00  0.00    +0.032 A 
ATOM     13  C   UNL     1      -0.096   3.944  -0.013  0.00  0.00    -0.004 A 
ATOM     14  C   UNL     1      -1.286   3.227  -0.016  0.00  0.00    +0.009 A 
ATOM     15  C   UNL     1      -1.260   1.843  -0.054  0.00  0.00    +0.001 A 
ATOM     16  C   UNL     1      -0.056   1.165  -0.080  0.00  0.00    +0.001 A 
ATOM     17  C   UNL     1       1.139   1.862  -0.078  0.00  0.00    +0.012 A 
ENDROOT
BRANCH   4  18
ATOM     18  C   UNL     1      -2.136   6.323   0.069  0.00  0.00    +0.021 A 
ATOM     19  C   UNL     1      -3.058   6.585  -0.929  0.00  0.00    +0.016 A 
ATOM     20  C   UNL     1      -4.384   6.326  -0.678  0.00  0.00    +0.008 A 
ATOM     21  C   UNL     1      -4.749   5.834   0.535  0.00  0.00    +0.046 A 
ATOM     22  S   UNL     1      -3.182   5.712   1.381  0.00  0.00    -0.097 S 
ENDBRANCH   4  18
BRANCH   1  24
ATOM     23  C   UNL     1       0.490  12.696   0.189  0.00  0.00    +0.092 C 
ATOM     24  C   UNL     1      -0.497  11.558   0.173  0.00  0.00    +0.168 C 
ATOM     25  O   UNL     1      -1.690  11.787   0.193  0.00  0.00    -0.292 OA
ENDBRANCH   1  24
BRANCH   2  26
ATOM     26  N   UNL     1      -2.163   9.100   0.135  0.00  0.00    -0.356 N 
ATOM     27  H   UNL     1      -2.627   9.887  -0.193  0.00  0.00    +0.142 HD
ATOM     28  H   UNL     1      -2.668   8.345   0.475  0.00  0.00    +0.142 HD
ENDBRANCH   2  26
TORSDOF 3
