REMARK  Name = ZINC64277711
REMARK  11 active torsions:
REMARK  status: ('A' for Active; 'I' for Inactive)
REMARK    1  A    between atoms: C_1  and  C_2
REMARK    2  A    between atoms: C_4  and  C_37
REMARK    3  A    between atoms: N_6  and  C_32
REMARK    4  A    between atoms: C_7  and  N_20
REMARK    5  A    between atoms: C_9  and  C_11
REMARK    6  A    between atoms: C_21  and  C_23
REMARK    7  A    between atoms: C_26  and  N_29
REMARK    8  A    between atoms: C_32  and  C_33
REMARK    9  A    between atoms: C_33  and  C_34
REMARK   10  A    between atoms: C_34  and  O_35
REMARK   11  A    between atoms: O_35  and  C_36
REMARK                            x       y       z     vdW  Elec       q    Type
REMARK                         _______ _______ _______ _____ _____    ______ ____
ROOT
ATOM      1  C   UNL     1      -0.412   1.341  -0.087  0.00  0.00    +0.009 C 
ATOM      2  C   UNL     1      -0.191  -0.172  -0.068  0.00  0.00    +0.013 C 
ATOM      3  C   UNL     1       0.695  -0.612  -1.261  0.00  0.00    +0.059 C 
ATOM      4  N   UNL     1       1.294  -1.887  -0.788  0.00  0.00    -0.281 NA
ATOM      5  C   UNL     1       1.607  -1.679   0.642  0.00  0.00    +0.151 C 
ATOM      6  C   UNL     1       0.649  -0.587   1.162  0.00  0.00    +0.071 C 
ATOM      7  C   UNL     1      -0.158  -0.842  -2.510  0.00  0.00    +0.024 C 
ENDROOT
BRANCH   6   8
ATOM      8  C   UNL     1      -0.258  -1.149   2.259  0.00  0.00    +0.180 C 
ATOM      9  N   UNL     1      -1.187  -0.112   2.726  0.00  0.00    -0.363 N 
ATOM     10  C   UNL     1      -0.958   0.076   3.993  0.00  0.00    +0.060 A 
ATOM     11  C   UNL     1      -1.556   0.969   4.995  0.00  0.00    +0.027 A 
ATOM     12  C   UNL     1      -1.103   0.943   6.264  0.00  0.00    +0.002 A 
ATOM     13  C   UNL     1      -0.067   0.089   6.682  0.00  0.00    +0.002 A 
ATOM     14  C   UNL     1       0.550  -0.769   5.845  0.00  0.00    +0.027 A 
ATOM     15  C   UNL     1       0.138  -0.829   4.436  0.00  0.00    +0.060 A 
ATOM     16  N   UNL     1       0.544  -1.541   3.425  0.00  0.00    -0.363 N 
ATOM     17  H   UNL     1      -1.850   0.348   2.188  0.00  0.00    +0.162 HD
ATOM     18  H   UNL     1       1.248  -2.209   3.439  0.00  0.00    +0.162 HD
ENDBRANCH   6   8
BRANCH   5  19
ATOM     19  N   UNL     1       1.397  -2.924   1.385  0.00  0.00    -0.295 N 
ATOM     20  C   UNL     1       2.455  -3.631   1.828  0.00  0.00    +0.245 C 
ATOM     21  O   UNL     1       3.584  -3.281   1.541  0.00  0.00    -0.270 OA
ATOM     22  H   UNL     1       0.496  -3.239   1.558  0.00  0.00    +0.151 HD
BRANCH  20  23
ATOM     23  C   UNL     1       2.244  -4.832   2.663  0.00  0.00    +0.037 A 
ATOM     24  C   UNL     1       0.950  -5.240   2.990  0.00  0.00    +0.015 A 
ATOM     25  C   UNL     1       0.760  -6.363   3.770  0.00  0.00    +0.033 A 
ATOM     26  C   UNL     1       1.849  -7.083   4.228  0.00  0.00    +0.126 A 
ATOM     27  C   UNL     1       3.135  -6.684   3.908  0.00  0.00    +0.033 A 
ATOM     28  C   UNL     1       3.338  -5.567   3.124  0.00  0.00    +0.015 A 
BRANCH  26  29
ATOM     29  N   UNL     1       1.638  -8.286   5.064  0.00  0.00    +0.056 N 
ATOM     30  O   UNL     1       0.516  -8.637   5.345  0.00  0.00    -0.126 OA
ATOM     31  O   UNL     1       2.587  -8.918   5.465  0.00  0.00    -0.126 OA
ENDBRANCH  26  29
ENDBRANCH  20  23
ENDBRANCH   5  19
BRANCH   4  32
ATOM     32  C   UNL     1       2.506  -2.213  -1.551  0.00  0.00    +0.089 C 
BRANCH  32  33
ATOM     33  C   UNL     1       2.837  -3.696  -1.371  0.00  0.00    +0.043 C 
BRANCH  33  34
ATOM     34  C   UNL     1       4.166  -4.009  -2.062  0.00  0.00    +0.160 C 
BRANCH  34  35
ATOM     35  O   UNL     1       4.476  -5.394  -1.894  0.00  0.00    -0.383 OA
ATOM     36  C   UNL     1       5.704  -5.794  -2.506  0.00  0.00    +0.193 C 
ENDBRANCH  34  35
ENDBRANCH  33  34
ENDBRANCH  32  33
ENDBRANCH   4  32
TORSDOF 8
