REMARK  Name = ZINC44360745
REMARK  8 active torsions:
REMARK  status: ('A' for Active; 'I' for Inactive)
REMARK    1  A    between atoms: C_1  and  C_2
REMARK    2  A    between atoms: C_2  and  O_3
REMARK    3  A    between atoms: O_3  and  C_4
REMARK    4  A    between atoms: C_4  and  C_6
REMARK    5  A    between atoms: C_6  and  C_8
REMARK    6  A    between atoms: C_6  and  N_26
REMARK    7  A    between atoms: C_8  and  C_9
REMARK    8  A    between atoms: C_10  and  C_19
REMARK                            x       y       z     vdW  Elec       q    Type
REMARK                         _______ _______ _______ _____ _____    ______ ____
ROOT
ATOM      1  C   UNL     1      -4.891  -2.944  -1.117  0.00  0.00    +0.050 A 
ATOM      2  C   UNL     1      -5.322  -4.141  -1.606  0.00  0.00    +0.093 A 
ATOM      3  N   UNL     1      -6.658  -4.089  -1.729  0.00  0.00    -0.228 NA
ATOM      4  C   UNL     1      -7.084  -2.898  -1.333  0.00  0.00    +0.139 A 
ATOM      5  N   UNL     1      -5.996  -2.161  -0.939  0.00  0.00    -0.302 N 
ATOM      6  C   UNL     1      -6.156  -0.886  -0.477  0.00  0.00    +0.108 A 
ATOM      7  C   UNL     1      -7.385  -0.332  -0.398  0.00  0.00    +0.034 A 
ATOM      8  C   UNL     1      -8.519  -1.064  -0.791  0.00  0.00    +0.020 A 
ATOM      9  C   UNL     1      -8.373  -2.332  -1.260  0.00  0.00    +0.048 A 
ATOM     10 BR   UNL     1      -7.581   1.435   0.245  0.00  0.00    -0.049 Br
ENDROOT
BRANCH   2  11
ATOM     11  C   UNL     1      -4.463  -5.302  -1.945  0.00  0.00    +0.002 A 
ATOM     12  C   UNL     1      -4.849  -6.589  -1.577  0.00  0.00    +0.011 A 
ATOM     13  C   UNL     1      -4.047  -7.666  -1.894  0.00  0.00    +0.020 A 
ATOM     14  C   UNL     1      -2.859  -7.469  -2.577  0.00  0.00    +0.041 A 
ATOM     15  C   UNL     1      -2.470  -6.192  -2.945  0.00  0.00    +0.020 A 
ATOM     16  C   UNL     1      -3.269  -5.110  -2.637  0.00  0.00    +0.011 A 
ATOM     17 CL   UNL     1      -1.853  -8.827  -2.972  0.00  0.00    -0.084 Cl
ENDBRANCH   2  11
BRANCH   1  18
ATOM     18  C   UNL     1      -3.464  -2.560  -0.822  0.00  0.00    +0.051 C 
BRANCH  18  19
ATOM     19  C   UNL     1      -3.164  -2.808   0.658  0.00  0.00    +0.042 C 
BRANCH  19  20
ATOM     20  N   UNL     1      -3.244  -4.247   0.939  0.00  0.00    +0.387 N 
ATOM     21  H   UNL     1      -3.047  -4.411   1.915  0.00  0.00    -0.089 HD
ATOM     22  H   UNL     1      -4.172  -4.581   0.723  0.00  0.00    -0.089 HD
ATOM     23  H   UNL     1      -2.570  -4.739   0.372  0.00  0.00    -0.089 HD
ENDBRANCH  19  20
BRANCH  19  24
ATOM     24  C   UNL     1      -1.779  -2.309   0.980  0.00  0.00    +0.293 C 
ATOM     25  O   UNL     1      -0.857  -3.088   1.048  0.00  0.00    -0.253 OA
BRANCH  24  26
ATOM     26  O   UNL     1      -1.569  -1.001   1.192  0.00  0.00    -0.466 OA
BRANCH  26  28
ATOM     27  C   UNL     1      -0.188   0.916   1.700  0.00  0.00    +0.048 C 
ATOM     28  C   UNL     1      -0.231  -0.599   1.492  0.00  0.00    +0.228 C 
ENDBRANCH  26  28
ENDBRANCH  24  26
ENDBRANCH  19  24
ENDBRANCH  18  19
ENDBRANCH   1  18
TORSDOF 7
