REMARK  Name = ZINC63101895
REMARK  3 active torsions:
REMARK  status: ('A' for Active; 'I' for Inactive)
REMARK    1  A    between atoms: N_13  and  C_14
REMARK    2  A    between atoms: C_14  and  C_15
REMARK    3  A    between atoms: C_15  and  C_16
REMARK                            x       y       z     vdW  Elec       q    Type
REMARK                         _______ _______ _______ _____ _____    ______ ____
ROOT
ATOM      1  C   UNL     1      -0.016   1.302   0.009  0.00  0.00    +0.245 A 
ATOM      2  N   UNL     1       1.239   1.754  -0.000  0.00  0.00    -0.222 NA
ATOM      3  C   UNL     1       2.074   0.748  -0.014  0.00  0.00    +0.228 A 
ATOM      4  N   UNL     1       1.352  -0.392  -0.013  0.00  0.00    -0.186 N 
ATOM      5  N   UNL     1       0.002  -0.004   0.002  0.00  0.00    -0.151 NA
ATOM      6  C   UNL     1       1.847  -1.694  -0.025  0.00  0.00    +0.258 A 
ATOM      7  N   UNL     1       1.009  -2.723  -0.028  0.00  0.00    -0.177 NA
ATOM      8  C   UNL     1       1.484  -3.964  -0.039  0.00  0.00    +0.221 A 
ATOM      9  N   UNL     1       2.798  -4.171  -0.048  0.00  0.00    -0.184 NA
ATOM     10  C   UNL     1       3.630  -3.143  -0.045  0.00  0.00    +0.229 A 
ATOM     11  N   UNL     1       3.158  -1.907  -0.038  0.00  0.00    -0.180 NA
ATOM     12 CL   UNL     1       5.345  -3.416  -0.055  0.00  0.00    -0.041 Cl
ATOM     13  N   UNL     1       0.615  -5.036  -0.042  0.00  0.00    -0.313 N 
ATOM     14  H   UNL     1      -0.343  -4.884  -0.036  0.00  0.00    +0.149 HD
ENDROOT
BRANCH  13  15
ATOM     15  C   UNL     1       1.140  -6.404  -0.055  0.00  0.00    +0.113 C 
BRANCH  15  16
ATOM     16  C   UNL     1      -0.024  -7.397  -0.056  0.00  0.00    +0.132 C 
BRANCH  16  17
ATOM     17  C   UNL     1       0.524  -8.825  -0.069  0.00  0.00    +0.392 C 
ATOM     18  F   UNL     1       1.313  -9.033   1.067  0.00  0.00    -0.171 F 
ATOM     19  F   UNL     1      -0.540  -9.733  -0.069  0.00  0.00    -0.171 F 
ATOM     20  F   UNL     1       1.300  -9.016  -1.217  0.00  0.00    -0.171 F 
ENDBRANCH  16  17
ENDBRANCH  15  16
ENDBRANCH  13  15
TORSDOF 3
