REMARK  Name = ZINC45470430
REMARK  11 active torsions:
REMARK  status: ('A' for Active; 'I' for Inactive)
REMARK    1  A    between atoms: C_1  and  C_2
REMARK    2  A    between atoms: C_2  and  C_3
REMARK    3  A    between atoms: C_3  and  C_29
REMARK    4  A    between atoms: N_6  and  N_10
REMARK    5  A    between atoms: C_11  and  C_13
REMARK    6  A    between atoms: C_13  and  N_14
REMARK    7  A    between atoms: N_14  and  C_15
REMARK    8  A    between atoms: N_14  and  C_16
REMARK    9  A    between atoms: C_16  and  C_17
REMARK   10  A    between atoms: C_22  and  O_27
REMARK   11  A    between atoms: O_27  and  C_28
REMARK                            x       y       z     vdW  Elec       q    Type
REMARK                         _______ _______ _______ _____ _____    ______ ____
ROOT
ATOM      1  C   UNL     1      -3.826  -5.546  -2.147  0.00  0.00    +0.020 C 
ENDROOT
BRANCH   1   3
ATOM      2  N   UNL     1      -2.344  -3.611  -1.728  0.00  0.00    -0.225 N 
ATOM      3  C   UNL     1      -3.573  -4.155  -1.626  0.00  0.00    +0.213 C 
ATOM      4  O   UNL     1      -4.475  -3.525  -1.116  0.00  0.00    -0.276 OA
ATOM      5  H   UNL     1      -1.623  -4.115  -2.136  0.00  0.00    +0.173 HD
BRANCH   2   9
ATOM      6  C   UNL     1      -1.433  -0.534   0.013  0.00  0.00    +0.111 C 
ATOM      7  C   UNL     1      -1.445  -2.045  -0.103  0.00  0.00    +0.263 C 
ATOM      8  O   UNL     1      -0.960  -2.843   0.670  0.00  0.00    -0.271 OA
ATOM      9  N   UNL     1      -2.108  -2.317  -1.245  0.00  0.00    -0.137 N 
ATOM     10  C   UNL     1      -2.513  -1.200  -1.859  0.00  0.00    +0.326 C 
ATOM     11  O   UNL     1      -3.131  -1.190  -2.906  0.00  0.00    -0.251 OA
ATOM     12  N   UNL     1      -2.159  -0.088  -1.189  0.00  0.00    -0.284 N 
ATOM     13  C   UNL     1      -2.162  -0.082   1.280  0.00  0.00    +0.041 C 
ATOM     14  H   UNL     1      -2.346   0.828  -1.447  0.00  0.00    +0.151 HD
BRANCH   6  16
ATOM     15  C   UNL     1      -0.019   1.526   0.010  0.00  0.00    +0.006 C 
ATOM     16  C   UNL     1       0.002  -0.004   0.002  0.00  0.00    +0.032 C 
ENDBRANCH   6  16
ENDBRANCH   2   9
ENDBRANCH   1   3
BRANCH   1  17
ATOM     17  N   UNL     1      -5.232  -5.905  -1.919  0.00  0.00    +0.386 N 
ATOM     18  C   UNL     1      -6.098  -5.028  -2.719  0.00  0.00    -0.095 C 
ATOM     19  H   UNL     1      -5.454  -5.795  -0.941  0.00  0.00    -0.081 HD
BRANCH  17  20
ATOM     20  C   UNL     1      -5.451  -7.303  -2.316  0.00  0.00    -0.043 C 
BRANCH  20  21
ATOM     21  C   UNL     1      -6.861  -7.709  -1.969  0.00  0.00    -0.063 A 
ATOM     22  C   UNL     1      -7.128  -8.257  -0.716  0.00  0.00    +0.002 A 
ATOM     23  C   UNL     1      -8.390  -8.634  -0.371  0.00  0.00    +0.009 A 
ATOM     24  C   UNL     1      -9.441  -8.469  -1.290  0.00  0.00    -0.014 A 
ATOM     25  C   UNL     1     -10.755  -8.845  -0.969  0.00  0.00    +0.054 A 
ATOM     26  C   UNL     1     -11.751  -8.669  -1.886  0.00  0.00    +0.121 A 
ATOM     27  C   UNL     1     -11.480  -8.119  -3.143  0.00  0.00    +0.046 A 
ATOM     28  C   UNL     1     -10.218  -7.744  -3.484  0.00  0.00    +0.012 A 
ATOM     29  C   UNL     1      -9.168  -7.910  -2.564  0.00  0.00    -0.017 A 
ATOM     30  C   UNL     1      -7.854  -7.529  -2.882  0.00  0.00    +0.010 A 
BRANCH  26  31
ATOM     31  O   UNL     1     -13.022  -9.034  -1.574  0.00  0.00    -0.495 OA
ATOM     32  C   UNL     1     -14.021  -8.826  -2.574  0.00  0.00    +0.277 C 
ENDBRANCH  26  31
ENDBRANCH  20  21
ENDBRANCH  17  20
ENDBRANCH   1  17
TORSDOF 7
