REMARK  Name = ZINC22608448
REMARK  8 active torsions:
REMARK  status: ('A' for Active; 'I' for Inactive)
REMARK    1  A    between atoms: C_1  and  C_2
REMARK    2  A    between atoms: C_2  and  S_3
REMARK    3  A    between atoms: S_3  and  C_4
REMARK    4  A    between atoms: C_9  and  C_21
REMARK    5  A    between atoms: C_15  and  C_20
REMARK    6  A    between atoms: C_24  and  C_27
REMARK    7  A    between atoms: C_27  and  C_28
REMARK    8  A    between atoms: C_27  and  C_29
REMARK                            x       y       z     vdW  Elec       q    Type
REMARK                         _______ _______ _______ _____ _____    ______ ____
ROOT
ATOM      1  C   UNL     1       0.792  -2.345  -1.354  0.00  0.00    +0.210 A 
ATOM      2  N   UNL     1       0.226  -3.029  -0.349  0.00  0.00    -0.187 NA
ATOM      3  C   UNL     1       0.363  -4.309  -0.562  0.00  0.00    +0.219 A 
ATOM      4  N   UNL     1       1.029  -4.474  -1.731  0.00  0.00    -0.220 N 
ATOM      5  N   UNL     1       1.292  -3.196  -2.224  0.00  0.00    -0.141 NA
ATOM      6  C   UNL     1       1.355  -5.779  -2.293  0.00  0.00    +0.175 C 
ATOM      7  C   UNL     1       1.159  -6.855  -1.247  0.00  0.00    +0.041 C 
ATOM      8  C   UNL     1       0.485  -6.627  -0.100  0.00  0.00    +0.020 C 
ATOM      9  N   UNL     1      -0.048  -5.395   0.194  0.00  0.00    -0.287 N 
ATOM     10  C   UNL     1       0.285  -7.728   0.914  0.00  0.00    +0.055 C 
ATOM     11  C   UNL     1       1.478  -8.685   0.876  0.00  0.00    -0.001 C 
ATOM     12  C   UNL     1       1.594  -9.255  -0.542  0.00  0.00    +0.083 C 
ATOM     13  C   UNL     1       1.716  -8.118  -1.518  0.00  0.00    +0.163 C 
ATOM     14  O   UNL     1       2.308  -8.294  -2.564  0.00  0.00    -0.292 OA
ATOM     15  C   UNL     1       1.258  -9.823   1.874  0.00  0.00    +0.008 C 
ATOM     16  H   UNL     1      -0.694  -5.288   0.910  0.00  0.00    +0.155 HD
ENDROOT
BRANCH   6  17
ATOM     17  C   UNL     1       0.453  -6.056  -3.468  0.00  0.00    -0.018 A 
ATOM     18  C   UNL     1      -0.918  -6.093  -3.294  0.00  0.00    +0.006 A 
ATOM     19  C   UNL     1      -1.745  -6.348  -4.372  0.00  0.00    +0.004 A 
ATOM     20  C   UNL     1      -1.201  -6.566  -5.624  0.00  0.00    -0.045 A 
ATOM     21  C   UNL     1       0.170  -6.528  -5.798  0.00  0.00    +0.004 A 
ATOM     22  C   UNL     1       0.996  -6.269  -4.721  0.00  0.00    +0.006 A 
BRANCH  20  23
ATOM     23  C   UNL     1      -2.103  -6.845  -6.799  0.00  0.00    +0.013 C 
ATOM     24  C   UNL     1      -1.896  -5.769  -7.867  0.00  0.00    +0.012 C 
ATOM     25  C   UNL     1      -1.767  -8.217  -7.385  0.00  0.00    +0.012 C 
ENDBRANCH  20  23
ENDBRANCH   6  17
BRANCH   1  26
ATOM     26  S   UNL     1       0.851  -0.589  -1.490  0.00  0.00    -0.085 S 
BRANCH  26  28
ATOM     27  C   UNL     1      -0.019   1.526   0.010  0.00  0.00    +0.016 C 
ATOM     28  C   UNL     1       0.002  -0.004   0.002  0.00  0.00    +0.074 C 
ENDBRANCH  26  28
ENDBRANCH   1  26
TORSDOF 4
