REMARK  Name = ZINC37622828
REMARK  5 active torsions:
REMARK  status: ('A' for Active; 'I' for Inactive)
REMARK    1  A    between atoms: C_9  and  N_11
REMARK    2  A    between atoms: C_12  and  C_14
REMARK    3  A    between atoms: C_14  and  C_16
REMARK    4  A    between atoms: C_14  and  N_20
REMARK    5  A    between atoms: C_16  and  C_17
REMARK                            x       y       z     vdW  Elec       q    Type
REMARK                         _______ _______ _______ _____ _____    ______ ____
ROOT
ATOM      1  N   UNL     1       6.026   1.764  -0.046  0.00  0.00    -0.188 NA
ATOM      2  C   UNL     1       6.285   3.041  -0.042  0.00  0.00    +0.235 C 
ATOM      3  O   UNL     1       5.277   3.933  -0.028  0.00  0.00    -0.273 OA
ENDROOT
BRANCH   1  12
ATOM      4  C   UNL     1      -0.017   1.384   0.010  0.00  0.00    +0.022 A 
ATOM      5  C   UNL     1       1.142   2.116   0.003  0.00  0.00    +0.030 A 
ATOM      6  C   UNL     1       2.402   1.474  -0.013  0.00  0.00    +0.081 A 
ATOM      7  C   UNL     1       2.383   0.060  -0.021  0.00  0.00    +0.042 A 
ATOM      8  C   UNL     1       1.218  -0.665  -0.013  0.00  0.00    +0.037 A 
ATOM      9  C   UNL     1       0.002  -0.004   0.002  0.00  0.00    +0.042 A 
ATOM     10 CL   UNL     1      -1.484  -0.901   0.012  0.00  0.00    -0.084 Cl
ATOM     11  S   UNL     1       4.114  -0.344  -0.039  0.00  0.00    -0.048 S 
ATOM     12  C   UNL     1       4.735   1.332  -0.036  0.00  0.00    +0.197 A 
ATOM     13  N   UNL     1       3.625   2.043  -0.022  0.00  0.00    -0.221 NA
ENDBRANCH   1  12
BRANCH   2  14
ATOM     14  C   UNL     1       7.714   3.520  -0.052  0.00  0.00    +0.026 C 
BRANCH  14  15
ATOM     15  N   UNL     1       8.616   2.368  -0.187  0.00  0.00    +0.386 N 
ATOM     16  H   UNL     1       9.572   2.688  -0.194  0.00  0.00    -0.089 HD
ATOM     17  H   UNL     1       8.477   1.739   0.591  0.00  0.00    -0.089 HD
ATOM     18  H   UNL     1       8.416   1.884  -1.050  0.00  0.00    -0.089 HD
ENDBRANCH  14  15
BRANCH  14  19
ATOM     19  C   UNL     1       7.925   4.472  -1.231  0.00  0.00    +0.089 C 
BRANCH  19  20
ATOM     20  C   UNL     1       9.317   5.046  -1.171  0.00  0.00    +0.209 C 
ATOM     21  O   UNL     1      10.067   4.725  -0.274  0.00  0.00    -0.276 OA
ATOM     22  N   UNL     1       9.729   5.916  -2.114  0.00  0.00    -0.329 N 
ATOM     23  H   UNL     1       9.129   6.173  -2.832  0.00  0.00    +0.145 HD
ATOM     24  H   UNL     1      10.625   6.285  -2.075  0.00  0.00    +0.145 HD
ENDBRANCH  19  20
ENDBRANCH  14  19
ENDBRANCH   2  14
TORSDOF 5
