REMARK  Name = ZINC44577183
REMARK  9 active torsions:
REMARK  status: ('A' for Active; 'I' for Inactive)
REMARK    1  A    between atoms: C_1  and  C_2
REMARK    2  A    between atoms: C_2  and  C_3
REMARK    3  A    between atoms: C_2  and  C_4
REMARK    4  A    between atoms: C_4  and  C_5
REMARK    5  A    between atoms: C_5  and  C_7
REMARK    6  A    between atoms: C_5  and  N_11
REMARK    7  A    between atoms: C_7  and  O_9
REMARK    8  A    between atoms: O_9  and  C_10
REMARK    9  A    between atoms: C_23  and  C_25
REMARK                            x       y       z     vdW  Elec       q    Type
REMARK                         _______ _______ _______ _____ _____    ______ ____
ROOT
ATOM      1  N   UNL     1       4.265   1.084  -0.310  0.00  0.00    -0.286 N 
ATOM      2  C   UNL     1       3.204   1.656  -0.914  0.00  0.00    +0.304 C 
ATOM      3  O   UNL     1       2.351   0.961  -1.431  0.00  0.00    -0.253 OA
ATOM      4  N   UNL     1       3.089   2.999  -0.944  0.00  0.00    -0.273 N 
ATOM      5  C   UNL     1       1.885   3.639  -1.495  0.00  0.00    +0.116 C 
ATOM      6  C   UNL     1       2.271   4.445  -2.742  0.00  0.00    +0.074 C 
ATOM      7  C   UNL     1       3.521   5.231  -2.445  0.00  0.00    +0.040 A 
ATOM      8  C   UNL     1       4.368   4.976  -1.424  0.00  0.00    +0.062 A 
ATOM      9  N   UNL     1       5.360   5.868  -1.475  0.00  0.00    -0.348 N 
ATOM     10  C   UNL     1       5.161   6.671  -2.488  0.00  0.00    +0.171 A 
ATOM     11  N   UNL     1       4.021   6.305  -3.117  0.00  0.00    -0.349 N 
ATOM     12  H   UNL     1       3.632   6.727  -3.899  0.00  0.00    +0.166 HD
ATOM     13  C   UNL     1       4.165   3.861  -0.421  0.00  0.00    +0.159 C 
ATOM     14  H   UNL     1       4.981   1.638   0.040  0.00  0.00    +0.151 HD
ATOM     15  H   UNL     1       6.108   5.913  -0.860  0.00  0.00    +0.167 HD
ENDROOT
BRANCH  13  16
ATOM     16  C   UNL     1       3.760   4.433   0.913  0.00  0.00    +0.015 A 
ATOM     17  C   UNL     1       3.320   5.740   1.000  0.00  0.00    +0.028 A 
ATOM     18  C   UNL     1       2.948   6.265   2.224  0.00  0.00    +0.041 A 
ATOM     19  C   UNL     1       3.016   5.482   3.363  0.00  0.00    +0.023 A 
ATOM     20  C   UNL     1       3.456   4.175   3.278  0.00  0.00    +0.040 A 
ATOM     21  C   UNL     1       3.823   3.647   2.051  0.00  0.00    +0.129 A 
ATOM     22  F   UNL     1       4.247   2.367   1.966  0.00  0.00    -0.205 F 
ATOM     23 CL   UNL     1       2.397   7.908   2.333  0.00  0.00    -0.084 Cl
ENDBRANCH  13  16
BRANCH   1  24
ATOM     24  C   UNL     1       4.338  -0.373  -0.183  0.00  0.00    +0.183 C 
BRANCH  24  25
ATOM     25  C   UNL     1       3.586  -0.808   1.049  0.00  0.00    +0.327 C 
ATOM     26  O   UNL     1       3.045   0.016   1.748  0.00  0.00    -0.249 OA
BRANCH  25  27
ATOM     27  O   UNL     1       3.517  -2.110   1.369  0.00  0.00    -0.467 OA
ATOM     28  C   UNL     1       2.788  -2.450   2.550  0.00  0.00    +0.280 C 
ENDBRANCH  25  27
ENDBRANCH  24  25
BRANCH  24  29
ATOM     29  C   UNL     1       5.801  -0.803  -0.065  0.00  0.00    +0.036 C 
BRANCH  29  31
ATOM     30  C   UNL     1       8.040  -0.719  -1.171  0.00  0.00    +0.007 C 
ATOM     31  C   UNL     1       6.548  -0.425  -1.345  0.00  0.00    -0.015 C 
ATOM     32  C   UNL     1       6.001  -1.245  -2.516  0.00  0.00    +0.007 C 
ENDBRANCH  29  31
ENDBRANCH  24  29
ENDBRANCH   1  24
TORSDOF 6
