REMARK  Name = ZINC04224921
REMARK  6 active torsions:
REMARK  status: ('A' for Active; 'I' for Inactive)
REMARK    1  A    between atoms: C_1  and  C_2
REMARK    2  A    between atoms: C_5  and  N_8
REMARK    3  A    between atoms: C_9  and  N_17
REMARK    4  A    between atoms: C_18  and  C_20
REMARK    5  A    between atoms: C_24  and  N_27
REMARK    6  A    between atoms: C_25  and  C_26
REMARK                            x       y       z     vdW  Elec       q    Type
REMARK                         _______ _______ _______ _____ _____    ______ ____
ROOT
ATOM      1  N   UNL     1       1.653  -4.560  -1.139  0.00  0.00    -0.218 N 
ATOM      2  C   UNL     1       2.780  -3.806  -1.115  0.00  0.00    +0.133 A 
ATOM      3  C   UNL     1       3.854  -4.666  -1.077  0.00  0.00    +0.029 A 
ATOM      4  C   UNL     1       3.361  -5.960  -1.070  0.00  0.00    +0.082 A 
ATOM      5  N   UNL     1       2.038  -5.901  -1.111  0.00  0.00    -0.168 NA
ATOM      6  C   UNL     1       4.391  -7.087  -1.025  0.00  0.00    +0.161 C 
ATOM      7  S   UNL     1       5.911  -6.189  -0.508  0.00  0.00    +0.033 S 
ATOM      8  O   UNL     1       6.028  -6.232   0.907  0.00  0.00    -0.257 OA
ATOM      9  C   UNL     1       5.372  -4.508  -1.028  0.00  0.00    +0.144 C 
ENDROOT
BRANCH   1  14
ATOM     10  C   UNL     1      -3.674  -2.610  -1.325  0.00  0.00    +0.044 C 
ATOM     11  C   UNL     1      -2.260  -3.128  -1.276  0.00  0.00    -0.050 A 
ATOM     12  C   UNL     1      -1.895  -4.214  -2.050  0.00  0.00    +0.005 A 
ATOM     13  C   UNL     1      -0.600  -4.691  -2.006  0.00  0.00    +0.028 A 
ATOM     14  C   UNL     1       0.337  -4.078  -1.185  0.00  0.00    +0.067 A 
ATOM     15  C   UNL     1      -0.033  -2.991  -0.405  0.00  0.00    +0.028 A 
ATOM     16  C   UNL     1      -1.329  -2.515  -0.457  0.00  0.00    +0.005 A 
ENDBRANCH   1  14
BRANCH   2  17
ATOM     17  N   UNL     1       2.840  -2.414  -1.131  0.00  0.00    -0.266 N 
ATOM     18  C   UNL     1       3.914  -1.792  -1.657  0.00  0.00    +0.250 C 
ATOM     19  O   UNL     1       4.861  -2.444  -2.052  0.00  0.00    -0.270 OA
ATOM     20  H   UNL     1       2.109  -1.893  -0.765  0.00  0.00    +0.157 HD
BRANCH  18  21
ATOM     21  C   UNL     1       3.941  -0.317  -1.752  0.00  0.00    +0.042 A 
ATOM     22  C   UNL     1       2.917   0.441  -1.180  0.00  0.00    +0.013 A 
ATOM     23  C   UNL     1       2.948   1.817  -1.273  0.00  0.00    +0.003 A 
ATOM     24  C   UNL     1       3.991   2.446  -1.930  0.00  0.00    +0.033 A 
ATOM     25  C   UNL     1       5.008   1.700  -2.498  0.00  0.00    +0.130 A 
ATOM     26  C   UNL     1       4.990   0.324  -2.413  0.00  0.00    -0.008 A 
ATOM     27  C   UNL     1       6.099  -0.487  -3.032  0.00  0.00    +0.047 C 
BRANCH  25  28
ATOM     28  N   UNL     1       6.123   2.382  -3.194  0.00  0.00    +0.057 N 
ATOM     29  O   UNL     1       6.078   3.584  -3.384  0.00  0.00    -0.126 OA
ATOM     30  O   UNL     1       7.085   1.741  -3.577  0.00  0.00    -0.126 OA
ENDBRANCH  25  28
ENDBRANCH  18  21
ENDBRANCH   2  17
TORSDOF 4
