REMARK  Name = ZINC48219832
REMARK  4 active torsions:
REMARK  status: ('A' for Active; 'I' for Inactive)
REMARK    1  A    between atoms: C_4  and  O_7
REMARK    2  A    between atoms: O_7  and  C_8
REMARK    3  A    between atoms: C_8  and  C_9
REMARK    4  A    between atoms: C_19  and  C_21
REMARK                            x       y       z     vdW  Elec       q    Type
REMARK                         _______ _______ _______ _____ _____    ______ ____
ROOT
ATOM      1  C   UNL     1       5.737  -1.832   0.216  0.00  0.00    +0.105 A 
ATOM      2  C   UNL     1       6.245  -2.345  -0.974  0.00  0.00    +0.017 A 
ATOM      3  C   UNL     1       7.465  -2.881  -0.717  0.00  0.00    +0.043 A 
ATOM      4  N   UNL     1       7.717  -2.715   0.593  0.00  0.00    -0.281 N 
ATOM      5  H   UNL     1       8.515  -3.003   1.062  0.00  0.00    +0.189 HD
ATOM      6  N   UNL     1       6.621  -2.047   1.160  0.00  0.00    -0.175 NA
ATOM      7  C   UNL     1       8.348  -3.531  -1.753  0.00  0.00    +0.074 C 
ATOM      8  C   UNL     1       7.494  -3.888  -2.976  0.00  0.00    +0.114 C 
ATOM      9  N   UNL     1       6.629  -2.747  -3.312  0.00  0.00    -0.292 N 
ATOM     10  C   UNL     1       5.599  -2.340  -2.339  0.00  0.00    +0.147 C 
ATOM     11  C   UNL     1       6.775  -2.091  -4.479  0.00  0.00    +0.263 C 
ATOM     12  O   UNL     1       7.707  -2.356  -5.215  0.00  0.00    -0.269 OA
ENDROOT
BRANCH  11  13
ATOM     13  C   UNL     1       5.809  -1.055  -4.864  0.00  0.00    +0.121 C 
ATOM     14  N   UNL     1       4.740  -0.881  -4.152  0.00  0.00    -0.180 NA
ATOM     15  N   UNL     1       3.796   0.095  -4.489  0.00  0.00    -0.207 N 
ATOM     16  C   UNL     1       3.762   0.608  -5.734  0.00  0.00    +0.233 C 
ATOM     17  O   UNL     1       2.939   1.451  -6.022  0.00  0.00    -0.274 OA
ATOM     18  C   UNL     1       4.750   0.131  -6.768  0.00  0.00    +0.104 C 
ATOM     19  C   UNL     1       6.077  -0.204  -6.077  0.00  0.00    +0.071 C 
ATOM     20  H   UNL     1       3.163   0.404  -3.822  0.00  0.00    +0.177 HD
ENDBRANCH  11  13
BRANCH   1  21
ATOM     21  C   UNL     1       4.408  -1.144   0.388  0.00  0.00    +0.286 C 
BRANCH  21  22
ATOM     22  O   UNL     1       4.566   0.260   0.172  0.00  0.00    -0.486 OA
BRANCH  22  26
ATOM     23  C   UNL     1       1.190   2.603   0.529  0.00  0.00    +0.000 A 
ATOM     24  C   UNL     1       2.403   3.185   0.213  0.00  0.00    +0.004 A 
ATOM     25  C   UNL     1       3.535   2.402   0.093  0.00  0.00    +0.045 A 
ATOM     26  C   UNL     1       3.454   1.032   0.290  0.00  0.00    +0.121 A 
ATOM     27  C   UNL     1       2.235   0.450   0.607  0.00  0.00    +0.045 A 
ATOM     28  C   UNL     1       1.106   1.237   0.726  0.00  0.00    +0.004 A 
ENDBRANCH  22  26
ENDBRANCH  21  22
ENDBRANCH   1  21
TORSDOF 4
