REMARK  Name = ZINC44979136
REMARK  3 active torsions:
REMARK  status: ('A' for Active; 'I' for Inactive)
REMARK    1  A    between atoms: C_1  and  C_2
REMARK    2  A    between atoms: C_8  and  C_10
REMARK    3  A    between atoms: C_15  and  C_18
REMARK                            x       y       z     vdW  Elec       q    Type
REMARK                         _______ _______ _______ _____ _____    ______ ____
ROOT
ATOM      1  C   UNL     1      -0.018   1.503   0.010  0.00  0.00    +0.066 C 
ATOM      2  C   UNL     1       0.002  -0.004   0.002  0.00  0.00    +0.045 A 
ATOM      3  C   UNL     1       0.006  -0.679  -1.181  0.00  0.00    +0.093 A 
ATOM      4  C   UNL     1       0.025  -2.089  -1.153  0.00  0.00    +0.252 A 
ATOM      5  O   UNL     1       0.030  -2.733  -2.189  0.00  0.00    -0.268 OA
ATOM      6  N   UNL     1       0.040  -2.712   0.045  0.00  0.00    -0.311 N 
ATOM      7  H   UNL     1       0.054  -3.680   0.089  0.00  0.00    +0.170 HD
ATOM      8  C   UNL     1       0.035  -1.985   1.180  0.00  0.00    +0.113 A 
ATOM      9  N   UNL     1       0.022  -0.679   1.154  0.00  0.00    -0.239 NA
ENDROOT
BRANCH   8  10
ATOM     10  C   UNL     1       0.052  -2.695   2.509  0.00  0.00    +0.055 C 
ATOM     11  C   UNL     1       1.495  -3.026   2.893  0.00  0.00    +0.011 C 
ATOM     12  C   UNL     1       1.512  -3.746   4.243  0.00  0.00    +0.001 C 
ATOM     13  C   UNL     1       0.895  -2.842   5.311  0.00  0.00    +0.003 C 
ATOM     14  C   UNL     1      -0.549  -2.511   4.928  0.00  0.00    -0.013 C 
ATOM     15  C   UNL     1      -0.565  -1.790   3.578  0.00  0.00    +0.014 C 
ATOM     16  C   UNL     1      -1.166  -1.607   5.997  0.00  0.00    +0.007 C 
ENDBRANCH   8  10
TORSDOF 1
