REMARK  Name = ZINC13574283
REMARK  8 active torsions:
REMARK  status: ('A' for Active; 'I' for Inactive)
REMARK    1  A    between atoms: C_1  and  C_2
REMARK    2  A    between atoms: C_4  and  C_16
REMARK    3  A    between atoms: C_5  and  C_15
REMARK    4  A    between atoms: N_6  and  C_7
REMARK    5  A    between atoms: C_11  and  O_13
REMARK    6  A    between atoms: O_13  and  C_14
REMARK    7  A    between atoms: C_27  and  S_28
REMARK    8  A    between atoms: S_28  and  C_31
REMARK                            x       y       z     vdW  Elec       q    Type
REMARK                         _______ _______ _______ _____ _____    ______ ____
ROOT
ATOM      1  C   UNL     1       0.095  -3.236  -1.054  0.00  0.00    +0.026 C 
ATOM      2  C   UNL     1      -0.515  -3.296  -2.290  0.00  0.00    +0.078 C 
ATOM      3  C   UNL     1      -0.505  -4.538  -3.113  0.00  0.00    +0.117 C 
ATOM      4  N   UNL     1      -0.517  -5.740  -2.602  0.00  0.00    -0.386 N 
ATOM      5  N   UNL     1      -0.483  -4.285  -4.499  0.00  0.00    -0.203 N 
ATOM      6  C   UNL     1      -0.950  -3.069  -4.952  0.00  0.00    +0.183 C 
ATOM      7  N   UNL     1      -1.335  -2.053  -4.213  0.00  0.00    -0.152 NA
ATOM      8  C   UNL     1      -1.222  -2.129  -2.870  0.00  0.00    +0.273 C 
ATOM      9  O   UNL     1      -1.685  -1.258  -2.152  0.00  0.00    -0.268 OA
ATOM     10  S   UNL     1      -0.878  -3.226  -6.610  0.00  0.00    +0.049 S 
ATOM     11  N   UNL     1      -0.174  -4.744  -6.709  0.00  0.00    -0.174 NA
ATOM     12  C   UNL     1      -0.052  -5.120  -5.474  0.00  0.00    +0.257 C 
ATOM     13  H   UNL     1      -0.434  -5.859  -1.642  0.00  0.00    +0.157 HD
ATOM     14  H   UNL     1      -0.609  -6.513  -3.180  0.00  0.00    +0.157 HD
ENDROOT
BRANCH   1  18
ATOM     15  C   UNL     1       0.791   1.719  -0.107  0.00  0.00    +0.064 C 
ATOM     16  C   UNL     1       0.533   0.242   0.038  0.00  0.00    +0.022 A 
ATOM     17  C   UNL     1       0.507  -0.646  -0.969  0.00  0.00    +0.031 A 
ATOM     18  C   UNL     1       0.223  -1.955  -0.363  0.00  0.00    -0.003 A 
ATOM     19  C   UNL     1       0.100  -1.724   0.997  0.00  0.00    +0.028 A 
ATOM     20  N   UNL     1       0.294  -0.408   1.218  0.00  0.00    -0.317 N 
ATOM     21  C   UNL     1      -0.193  -2.764   2.048  0.00  0.00    +0.064 C 
BRANCH  20  22
ATOM     22  C   UNL     1       0.253   0.206   2.476  0.00  0.00    +0.050 A 
ATOM     23  C   UNL     1       1.207  -0.108   3.435  0.00  0.00    +0.026 A 
ATOM     24  C   UNL     1       1.166   0.498   4.676  0.00  0.00    +0.006 A 
ATOM     25  C   UNL     1       0.176   1.418   4.966  0.00  0.00    +0.046 A 
ATOM     26  C   UNL     1      -0.780   1.735   4.012  0.00  0.00    +0.122 A 
ATOM     27  C   UNL     1      -0.738   1.134   2.764  0.00  0.00    +0.071 A 
BRANCH  26  28
ATOM     28  O   UNL     1      -1.754   2.639   4.299  0.00  0.00    -0.495 OA
ATOM     29  C   UNL     1      -1.732   3.224   5.603  0.00  0.00    +0.277 C 
ENDBRANCH  26  28
ENDBRANCH  20  22
ENDBRANCH   1  18
BRANCH  12  30
ATOM     30  S   UNL     1       0.657  -6.683  -5.073  0.00  0.00    +0.026 S 
ATOM     31  O   UNL     1       1.424  -7.037  -6.216  0.00  0.00    -0.167 OA
ATOM     32  O   UNL     1       1.284  -6.484  -3.813  0.00  0.00    -0.167 OA
ATOM     33  C   UNL     1      -0.757  -7.805  -4.897  0.00  0.00    +0.203 C 
ENDBRANCH  12  30
TORSDOF 4
