REMARK  Name = ZINC40051657
REMARK  5 active torsions:
REMARK  status: ('A' for Active; 'I' for Inactive)
REMARK    1  A    between atoms: C_4  and  S_11
REMARK    2  A    between atoms: C_5  and  C_7
REMARK    3  A    between atoms: S_11  and  N_14
REMARK    4  A    between atoms: N_17  and  C_20
REMARK    5  A    between atoms: C_20  and  C_21
REMARK                            x       y       z     vdW  Elec       q    Type
REMARK                         _______ _______ _______ _____ _____    ______ ____
ROOT
ATOM      1  N   UNL     1       3.821  -2.100   1.084  0.00  0.00    -0.174 NA
ATOM      2  C   UNL     1       4.488  -1.581   2.288  0.00  0.00    +0.125 C 
ATOM      3  C   UNL     1       3.542  -1.754   3.481  0.00  0.00    +0.102 C 
ATOM      4  N   UNL     1       3.114  -3.157   3.563  0.00  0.00    -0.293 NA
ATOM      5  C   UNL     1       2.347  -3.551   2.374  0.00  0.00    +0.102 C 
ATOM      6  C   UNL     1       3.238  -3.450   1.138  0.00  0.00    +0.125 C 
ENDROOT
BRANCH   1   7
ATOM      7  S   UNL     1       3.722  -1.186  -0.294  0.00  0.00    +0.061 S 
ATOM      8  O   UNL     1       3.413  -2.081  -1.353  0.00  0.00    -0.153 OA
ATOM      9  O   UNL     1       4.873  -0.353  -0.312  0.00  0.00    -0.153 OA
BRANCH   7  13
ATOM     10  C   UNL     1       0.150   1.555   0.173  0.00  0.00    +0.001 A 
ATOM     11  C   UNL     1       0.309   0.476   1.023  0.00  0.00    +0.002 A 
ATOM     12  C   UNL     1       1.400  -0.361   0.880  0.00  0.00    +0.029 A 
ATOM     13  C   UNL     1       2.331  -0.120  -0.113  0.00  0.00    +0.117 A 
ATOM     14  C   UNL     1       2.171   0.958  -0.963  0.00  0.00    +0.081 A 
ATOM     15  C   UNL     1       1.081   1.796  -0.820  0.00  0.00    +0.014 A 
BRANCH  14  16
ATOM     16  C   UNL     1       3.186   1.221  -2.045  0.00  0.00    +0.419 C 
ATOM     17  F   UNL     1       2.744   2.273  -2.854  0.00  0.00    -0.166 F 
ATOM     18  F   UNL     1       4.411   1.563  -1.462  0.00  0.00    -0.166 F 
ATOM     19  F   UNL     1       3.346   0.070  -2.825  0.00  0.00    -0.166 F 
ENDBRANCH  14  16
ENDBRANCH   7  13
ENDBRANCH   1   7
BRANCH   4  20
ATOM     20  C   UNL     1       2.345  -3.402   4.791  0.00  0.00    +0.158 C 
BRANCH  20  21
ATOM     21  C   UNL     1       2.136  -4.884   4.965  0.00  0.00    +0.138 C 
ATOM     22  N   UNL     1       2.638  -5.693   4.064  0.00  0.00    -0.160 NA
ATOM     23  C   UNL     1       2.503  -7.022   4.128  0.00  0.00    +0.271 C 
ATOM     24  O   UNL     1       2.987  -7.745   3.275  0.00  0.00    -0.268 OA
ATOM     25  C   UNL     1       1.739  -7.593   5.283  0.00  0.00    +0.071 C 
ATOM     26  C   UNL     1       1.429  -8.882   5.513  0.00  0.00    -0.042 C 
ATOM     27  C   UNL     1       1.672 -10.008   4.512  0.00  0.00    +0.033 C 
ATOM     28  C   UNL     1       0.323 -10.706   4.294  0.00  0.00    +0.004 C 
ATOM     29  C   UNL     1      -0.282 -11.117   5.635  0.00  0.00    +0.002 C 
ATOM     30  C   UNL     1      -0.587  -9.887   6.495  0.00  0.00    +0.019 C 
ATOM     31  C   UNL     1       0.733  -9.189   6.835  0.00  0.00    +0.079 C 
ATOM     32  S   UNL     1       0.403  -7.510   7.491  0.00  0.00    -0.097 S 
ATOM     33  C   UNL     1       1.235  -6.578   6.231  0.00  0.00    +0.112 C 
ATOM     34  N   UNL     1       1.459  -5.302   6.024  0.00  0.00    -0.226 NA
ENDBRANCH  20  21
ENDBRANCH   4  20
TORSDOF 5
