REMARK  Name = ZINC24881278
REMARK  8 active torsions:
REMARK  status: ('A' for Active; 'I' for Inactive)
REMARK    1  A    between atoms: C_1  and  C_2
REMARK    2  A    between atoms: C_5  and  C_8
REMARK    3  A    between atoms: C_8  and  C_9
REMARK    4  A    between atoms: C_9  and  C_10
REMARK    5  A    between atoms: N_13  and  C_16
REMARK    6  A    between atoms: C_16  and  C_17
REMARK    7  A    between atoms: C_17  and  C_18
REMARK    8  A    between atoms: N_20  and  N_21
REMARK                            x       y       z     vdW  Elec       q    Type
REMARK                         _______ _______ _______ _____ _____    ______ ____
ROOT
ATOM      1  C   UNL     1       1.280   1.980   0.001  0.00  0.00    +0.079 C 
ENDROOT
BRANCH   1   2
ATOM      2  C   UNL     1      -0.014   1.209   0.009  0.00  0.00    +0.228 C 
ATOM      3  O   UNL     1       0.002  -0.004   0.002  0.00  0.00    -0.274 OA
ATOM      4  N   UNL     1      -1.191   1.867   0.018  0.00  0.00    -0.224 N 
ATOM      5  H   UNL     1      -1.206   2.966   0.024  0.00  0.00    +0.174 HD
BRANCH   4   6
ATOM      6  N   UNL     1      -2.394   1.150   0.020  0.00  0.00    -0.137 N 
ATOM      7  C   UNL     1      -3.188   1.004   1.101  0.00  0.00    +0.263 C 
ATOM      8  O   UNL     1      -3.004   1.451   2.212  0.00  0.00    -0.271 OA
ATOM      9  C   UNL     1      -4.356   0.166   0.633  0.00  0.00    +0.114 C 
ATOM     10  C   UNL     1      -5.660   0.943   0.780  0.00  0.00    +0.035 C 
ATOM     11  C   UNL     1      -6.826   0.089   0.276  0.00  0.00    +0.003 C 
ATOM     12  C   UNL     1      -6.893  -1.209   1.084  0.00  0.00    +0.000 C 
ATOM     13  C   UNL     1      -5.588  -1.988   0.906  0.00  0.00    +0.003 C 
ATOM     14  C   UNL     1      -4.417  -1.143   1.413  0.00  0.00    +0.035 C 
ATOM     15  N   UNL     1      -4.067  -0.091  -0.783  0.00  0.00    -0.284 N 
ATOM     16  C   UNL     1      -2.902   0.529  -1.052  0.00  0.00    +0.326 C 
ATOM     17  O   UNL     1      -2.370   0.523  -2.145  0.00  0.00    -0.251 OA
ATOM     18  H   UNL     1      -4.762  -0.693  -1.386  0.00  0.00    +0.151 HD
ENDBRANCH   4   6
ENDBRANCH   1   2
BRANCH   1  19
ATOM     19  C   UNL     1       2.457   1.002  -0.016  0.00  0.00    -0.070 C 
BRANCH  19  23
ATOM     20  C   UNL     1       6.186   2.800   1.050  0.00  0.00    -0.014 C 
ATOM     21  C   UNL     1       6.165   1.651   0.039  0.00  0.00    -0.015 C 
ATOM     22  C   UNL     1       4.864   0.861   0.198  0.00  0.00    -0.079 C 
ATOM     23  N   UNL     1       3.719   1.753  -0.024  0.00  0.00    +0.380 N 
ATOM     24  C   UNL     1       3.691   2.838   0.965  0.00  0.00    -0.079 C 
ATOM     25  C   UNL     1       4.957   3.687   0.829  0.00  0.00    -0.015 C 
ATOM     26  H   UNL     1       3.836   2.209  -1.018  0.00  0.00    -0.082 HD
BRANCH  20  27
ATOM     27  C   UNL     1       7.457   3.630   0.855  0.00  0.00    +0.008 C 
BRANCH  27  28
ATOM     28  C   UNL     1       7.538   4.701   1.944  0.00  0.00    +0.035 C 
BRANCH  28  33
ATOM     29  C   UNL     1      12.338   7.834   1.208  0.00  0.00    +0.044 C 
ATOM     30  C   UNL     1      11.086   7.017   1.401  0.00  0.00    -0.050 A 
ATOM     31  C   UNL     1       9.909   7.402   0.786  0.00  0.00    +0.003 A 
ATOM     32  C   UNL     1       8.761   6.652   0.962  0.00  0.00    +0.004 A 
ATOM     33  C   UNL     1       8.790   5.518   1.752  0.00  0.00    -0.047 A 
ATOM     34  C   UNL     1       9.966   5.137   2.371  0.00  0.00    +0.004 A 
ATOM     35  C   UNL     1      11.115   5.884   2.191  0.00  0.00    +0.003 A 
ENDBRANCH  28  33
ENDBRANCH  27  28
ENDBRANCH  20  27
ENDBRANCH  19  23
ENDBRANCH   1  19
TORSDOF 7
