REMARK  Name = ZINC03443821
REMARK  4 active torsions:
REMARK  status: ('A' for Active; 'I' for Inactive)
REMARK    1  A    between atoms: C_6  and  O_10
REMARK    2  A    between atoms: O_10  and  C_11
REMARK    3  A    between atoms: C_11  and  C_12
REMARK    4  A    between atoms: N_14  and  C_15
REMARK                            x       y       z     vdW  Elec       q    Type
REMARK                         _______ _______ _______ _____ _____    ______ ____
ROOT
ATOM      1  C   UNL     1      -3.385  -1.477   0.027  0.00  0.00    +0.326 C 
ENDROOT
BRANCH   1   2
ATOM      2  C   UNL     1      -4.733  -0.803   0.044  0.00  0.00    +0.251 C 
ATOM      3  O   UNL     1      -4.806   0.408   0.051  0.00  0.00    -0.272 OA
ATOM      4  N   UNL     1      -5.858  -1.545   0.051  0.00  0.00    -0.308 N 
ATOM      5  H   UNL     1      -5.800  -2.514   0.045  0.00  0.00    +0.149 HD
BRANCH   4   6
ATOM      6  C   UNL     1      -7.168  -0.890   0.067  0.00  0.00    +0.095 C 
ATOM      7  C   UNL     1      -7.577  -0.584   1.518  0.00  0.00    +0.046 C 
ATOM      8  C   UNL     1      -9.074  -0.192   1.572  0.00  0.00    +0.168 C 
ATOM      9  S   UNL     1      -9.779  -1.092   0.131  0.00  0.00    -0.029 S 
ATOM     10  O   UNL     1     -10.285  -0.146  -0.801  0.00  0.00    -0.174 OA
ATOM     11  O   UNL     1     -10.627  -2.130   0.604  0.00  0.00    -0.174 OA
ATOM     12  C   UNL     1      -8.237  -1.838  -0.547  0.00  0.00    +0.188 C 
ENDBRANCH   4   6
ENDBRANCH   1   2
BRANCH   1  13
ATOM     13  O   UNL     1      -2.357  -0.485   0.022  0.00  0.00    -0.466 OA
BRANCH  13  19
ATOM     14  C   UNL     1      -0.018   1.448   0.010  0.00  0.00    +0.023 A 
ATOM     15  C   UNL     1       1.144   2.119   0.003  0.00  0.00    +0.048 A 
ATOM     16  S   UNL     1       2.372   0.827  -0.016  0.00  0.00    -0.077 S 
ATOM     17  C   UNL     1       1.293  -0.580  -0.013  0.00  0.00    +0.115 A 
ATOM     18  C   UNL     1       0.002  -0.004   0.002  0.00  0.00    +0.069 A 
ATOM     19  C   UNL     1      -1.077  -0.927   0.007  0.00  0.00    +0.227 A 
ATOM     20  N   UNL     1      -0.817  -2.223  -0.002  0.00  0.00    -0.201 NA
ATOM     21  C   UNL     1       0.418  -2.693  -0.016  0.00  0.00    +0.226 A 
ATOM     22  N   UNL     1       1.461  -1.887  -0.023  0.00  0.00    -0.228 NA
ENDBRANCH  13  19
ENDBRANCH   1  13
TORSDOF 4
