REMARK  Name = ZINC13088928
REMARK  9 active torsions:
REMARK  status: ('A' for Active; 'I' for Inactive)
REMARK    1  A    between atoms: C_1  and  C_2
REMARK    2  A    between atoms: C_2  and  C_3
REMARK    3  A    between atoms: C_2  and  C_4
REMARK    4  A    between atoms: C_2  and  N_5
REMARK    5  A    between atoms: C_6  and  C_8
REMARK    6  A    between atoms: C_8  and  N_9
REMARK    7  A    between atoms: N_12  and  S_15
REMARK    8  A    between atoms: S_15  and  C_18
REMARK    9  A    between atoms: C_20  and  C_26
REMARK                            x       y       z     vdW  Elec       q    Type
REMARK                         _______ _______ _______ _____ _____    ______ ____
ROOT
ATOM      1  N   UNL     1       4.046  -0.089  -3.021  0.00  0.00    -0.291 NA
ATOM      2  C   UNL     1       4.768  -0.412  -1.783  0.00  0.00    +0.102 C 
ATOM      3  C   UNL     1       6.133   0.284  -1.796  0.00  0.00    +0.125 C 
ATOM      4  N   UNL     1       6.832  -0.081  -3.037  0.00  0.00    -0.174 NA
ATOM      5  C   UNL     1       6.119   0.087  -4.312  0.00  0.00    +0.125 C 
ATOM      6  C   UNL     1       4.755  -0.602  -4.201  0.00  0.00    +0.102 C 
ENDROOT
BRANCH   4   7
ATOM      7  S   UNL     1       8.382  -0.664  -3.000  0.00  0.00    +0.062 S 
ATOM      8  O   UNL     1       9.005  -0.236  -4.203  0.00  0.00    -0.153 OA
ATOM      9  O   UNL     1       8.904  -0.347  -1.717  0.00  0.00    -0.153 OA
BRANCH   7  10
ATOM     10  C   UNL     1       8.279  -2.421  -3.083  0.00  0.00    +0.125 A 
ATOM     11  C   UNL     1       8.743  -3.084  -4.198  0.00  0.00    +0.046 A 
ATOM     12  C   UNL     1       8.661  -4.478  -4.263  0.00  0.00    +0.083 A 
ATOM     13  C   UNL     1       8.108  -5.190  -3.192  0.00  0.00    +0.057 A 
ATOM     14  C   UNL     1       7.648  -4.512  -2.082  0.00  0.00    +0.042 A 
ATOM     15  C   UNL     1       7.738  -3.132  -2.023  0.00  0.00    +0.069 A 
ATOM     16 CL   UNL     1       7.164  -2.287  -0.620  0.00  0.00    -0.081 Cl
ATOM     17 CL   UNL     1       8.001  -6.922  -3.261  0.00  0.00    -0.083 Cl
BRANCH  12  18
ATOM     18  C   UNL     1       9.154  -5.195  -5.452  0.00  0.00    +0.388 C 
ATOM     19  O   UNL     1       9.636  -4.569  -6.386  0.00  0.00    -0.241 OA
ATOM     20  O   UNL     1       9.081  -6.414  -5.506  0.00  0.00    -0.241 OA
ENDBRANCH  12  18
ENDBRANCH   7  10
ENDBRANCH   4   7
BRANCH   1  21
ATOM     21  C   UNL     1       2.667  -0.594  -2.973  0.00  0.00    +0.180 C 
BRANCH  21  23
ATOM     22  N   UNL     1       0.607  -0.164  -1.675  0.00  0.00    -0.310 N 
ATOM     23  C   UNL     1       1.901   0.136  -1.901  0.00  0.00    +0.227 C 
ATOM     24  O   UNL     1       2.449   0.994  -1.241  0.00  0.00    -0.274 OA
ATOM     25  H   UNL     1       0.168  -0.849  -2.203  0.00  0.00    +0.149 HD
BRANCH  22  27
ATOM     26  C   UNL     1      -0.155   2.044  -0.948  0.00  0.00    +0.031 C 
ATOM     27  C   UNL     1      -0.139   0.547  -0.632  0.00  0.00    +0.026 C 
ATOM     28  C   UNL     1       0.535   0.318   0.722  0.00  0.00    +0.031 C 
ATOM     29  C   UNL     1      -1.574   0.020  -0.583  0.00  0.00    +0.031 C 
ENDBRANCH  22  27
ENDBRANCH  21  23
ENDBRANCH   1  21
TORSDOF 6
