REMARK  Name = ZINC54488002
REMARK  6 active torsions:
REMARK  status: ('A' for Active; 'I' for Inactive)
REMARK    1  A    between atoms: C_1  and  C_2
REMARK    2  A    between atoms: C_4  and  C_27
REMARK    3  A    between atoms: N_11  and  C_12
REMARK    4  A    between atoms: C_12  and  N_13
REMARK    5  A    between atoms: C_16  and  C_19
REMARK    6  A    between atoms: C_19  and  N_20
REMARK                            x       y       z     vdW  Elec       q    Type
REMARK                         _______ _______ _______ _____ _____    ______ ____
ROOT
ATOM      1  N   UNL     1      -1.052  -5.478  -1.525  0.00  0.00    +0.393 N 
ATOM      2  C   UNL     1       0.229  -5.826  -2.151  0.00  0.00    -0.076 C 
ATOM      3  C   UNL     1       0.027  -6.035  -3.653  0.00  0.00    -0.017 C 
ATOM      4  C   UNL     1      -0.976  -7.171  -3.874  0.00  0.00    -0.031 C 
ATOM      5  C   UNL     1      -2.284  -6.831  -3.154  0.00  0.00    -0.017 C 
ATOM      6  C   UNL     1      -1.997  -6.592  -1.671  0.00  0.00    -0.076 C 
ATOM      7  H   UNL     1      -1.431  -4.657  -1.973  0.00  0.00    -0.079 HD
ENDROOT
BRANCH   1   8
ATOM      8  C   UNL     1      -0.840  -5.202  -0.098  0.00  0.00    +0.070 C 
BRANCH   8  19
ATOM      9  C   UNL     1      -0.641   1.520  -0.379  0.00  0.00    +0.066 C 
ATOM     10  C   UNL     1      -0.560   0.018  -0.284  0.00  0.00    +0.044 A 
ATOM     11  C   UNL     1      -1.697  -0.758  -0.528  0.00  0.00    +0.046 A 
ATOM     12  C   UNL     1      -1.607  -2.113  -0.440  0.00  0.00    +0.043 A 
ATOM     13  N   UNL     1      -0.422  -2.674  -0.118  0.00  0.00    -0.223 N 
ATOM     14  C   UNL     1       0.674  -1.890   0.115  0.00  0.00    +0.253 A 
ATOM     15  N   UNL     1       0.583  -0.561   0.022  0.00  0.00    -0.216 NA
ATOM     16  N   UNL     1       1.697  -2.694   0.408  0.00  0.00    -0.185 NA
ATOM     17  C   UNL     1       1.300  -3.965   0.372  0.00  0.00    +0.197 A 
ATOM     18  S   UNL     1       2.288  -5.327   0.685  0.00  0.00    -0.010 S 
ATOM     19  N   UNL     1      -0.010  -4.003   0.049  0.00  0.00    -0.271 N 
ATOM     20  C   UNL     1      -2.815  -2.977  -0.697  0.00  0.00    +0.066 C 
ENDBRANCH   8  19
ENDBRANCH   1   8
BRANCH   4  21
ATOM     21  C   UNL     1      -1.243  -7.333  -5.372  0.00  0.00    -0.076 C 
BRANCH  21  22
ATOM     22  N   UNL     1      -2.123  -8.490  -5.590  0.00  0.00    +0.380 N 
ATOM     23  C   UNL     1      -1.421  -9.709  -5.142  0.00  0.00    -0.079 C 
ATOM     24  C   UNL     1      -2.455 -10.749  -4.792  0.00  0.00    -0.019 C 
ATOM     25  C   UNL     1      -2.708 -11.711  -5.968  0.00  0.00    -0.002 C 
ATOM     26  C   UNL     1      -2.747 -10.967  -7.318  0.00  0.00    -0.002 C 
ATOM     27  C   UNL     1      -3.493  -9.660  -7.232  0.00  0.00    -0.019 C 
ATOM     28  C   UNL     1      -2.490  -8.526  -6.936  0.00  0.00    -0.079 C 
ATOM     29  H   UNL     1      -2.954  -8.373  -5.030  0.00  0.00    -0.082 HD
ENDBRANCH  21  22
ENDBRANCH   4  21
TORSDOF 4
