REMARK  Name = ZINC02955243
REMARK  7 active torsions:
REMARK  status: ('A' for Active; 'I' for Inactive)
REMARK    1  A    between atoms: C_1  and  C_2
REMARK    2  A    between atoms: C_6  and  C_10
REMARK    3  A    between atoms: N_15  and  C_16
REMARK    4  A    between atoms: C_20  and  S_22
REMARK    5  A    between atoms: S_22  and  C_23
REMARK    6  A    between atoms: C_24  and  C_27
REMARK    7  A    between atoms: C_27  and  O_28
REMARK                            x       y       z     vdW  Elec       q    Type
REMARK                         _______ _______ _______ _____ _____    ______ ____
ROOT
ATOM      1  C   UNL     1      -5.265 -10.132   0.900  0.00  0.00    +0.069 C 
ATOM      2  C   UNL     1      -5.743  -8.705   0.823  0.00  0.00    +0.081 A 
ATOM      3  C   UNL     1      -4.820  -7.672   0.700  0.00  0.00    +0.160 A 
ATOM      4  C   UNL     1      -5.298  -6.351   0.631  0.00  0.00    +0.027 A 
ATOM      5  C   UNL     1      -4.354  -5.242   0.506  0.00  0.00    +0.029 A 
ATOM      6  C   UNL     1      -3.016  -5.537   0.451  0.00  0.00    +0.094 A 
ATOM      7  C   UNL     1      -2.593  -6.942   0.529  0.00  0.00    +0.347 A 
ATOM      8  O   UNL     1      -1.409  -7.216   0.485  0.00  0.00    -0.244 OA
ATOM      9  O   UNL     1      -3.497  -7.927   0.648  0.00  0.00    -0.420 OA
ATOM     10  C   UNL     1      -6.681  -6.132   0.689  0.00  0.00    +0.007 A 
ATOM     11  C   UNL     1      -7.511  -7.213   0.811  0.00  0.00    +0.117 A 
ATOM     12  N   UNL     1      -7.032  -8.442   0.873  0.00  0.00    -0.256 NA
ENDROOT
BRANCH   6  13
ATOM     13  C   UNL     1      -2.016  -4.460   0.320  0.00  0.00    +0.141 A 
ATOM     14  N   UNL     1      -2.184  -3.145   0.236  0.00  0.00    -0.139 NA
ATOM     15  N   UNL     1      -1.208  -2.354   0.133  0.00  0.00    -0.125 NA
ATOM     16  C   UNL     1       0.047  -2.790   0.092  0.00  0.00    +0.186 A 
ATOM     17  S   UNL     1      -0.230  -4.553   0.232  0.00  0.00    -0.030 S 
ATOM     18  N   UNL     1       1.232  -2.082  -0.020  0.00  0.00    -0.292 N 
ATOM     19  H   UNL     1       2.082  -2.544   0.051  0.00  0.00    +0.154 HD
BRANCH  18  20
ATOM     20  C   UNL     1       1.203  -0.702  -0.237  0.00  0.00    +0.034 A 
ATOM     21  C   UNL     1       2.280   0.087   0.153  0.00  0.00    +0.023 A 
ATOM     22  C   UNL     1       2.253   1.451  -0.061  0.00  0.00    +0.003 A 
ATOM     23  C   UNL     1       1.156   2.037  -0.664  0.00  0.00    +0.015 A 
ATOM     24  C   UNL     1       0.076   1.255  -1.056  0.00  0.00    +0.009 A 
ATOM     25  C   UNL     1       0.100  -0.117  -0.842  0.00  0.00    +0.038 A 
BRANCH  24  26
ATOM     26  S   UNL     1      -1.322   2.003  -1.825  0.00  0.00    -0.129 S 
ATOM     27  C   UNL     1      -0.898   3.766  -1.886  0.00  0.00    +0.090 C 
ENDBRANCH  24  26
ENDBRANCH  18  20
ENDBRANCH   6  13
BRANCH  10  28
ATOM     28  C   UNL     1      -7.242  -4.736   0.619  0.00  0.00    +0.193 C 
BRANCH  28  29
ATOM     29  O   UNL     1      -8.668  -4.790   0.700  0.00  0.00    -0.390 OA
ATOM     30  H   UNL     1      -9.098  -3.925   0.660  0.00  0.00    +0.210 HD
ENDBRANCH  28  29
ENDBRANCH  10  28
TORSDOF 5
