REMARK  Name = ZINC39710798
REMARK  10 active torsions:
REMARK  status: ('A' for Active; 'I' for Inactive)
REMARK    1  A    between atoms: C_1  and  C_2
REMARK    2  A    between atoms: C_8  and  C_14
REMARK    3  A    between atoms: C_14  and  C_16
REMARK    4  A    between atoms: C_14  and  N_26
REMARK    5  A    between atoms: N_21  and  C_22
REMARK    6  A    between atoms: C_22  and  C_23
REMARK    7  A    between atoms: C_22  and  C_24
REMARK    8  A    between atoms: C_22  and  C_25
REMARK    9  A    between atoms: N_29  and  C_32
REMARK   10  A    between atoms: C_36  and  C_38
REMARK                            x       y       z     vdW  Elec       q    Type
REMARK                         _______ _______ _______ _____ _____    ______ ____
ROOT
ATOM      1  C   UNL     1      -1.155  -2.491   4.343  0.00  0.00    -0.009 C 
ENDROOT
BRANCH   1   9
ATOM      2  C   UNL     1       0.423   0.627  -0.703  0.00  0.00    +0.045 C 
ATOM      3  C   UNL     1       0.248  -0.849  -0.456  0.00  0.00    -0.029 A 
ATOM      4  C   UNL     1       0.138  -1.700  -1.510  0.00  0.00    +0.005 A 
ATOM      5  C   UNL     1      -0.026  -3.076  -1.352  0.00  0.00    +0.001 A 
ATOM      6  C   UNL     1      -0.084  -3.645  -0.120  0.00  0.00    +0.009 A 
ATOM      7  C   UNL     1       0.028  -2.786   1.059  0.00  0.00    -0.007 A 
ATOM      8  C   UNL     1      -0.025  -3.312   2.316  0.00  0.00    -0.006 C 
ATOM      9  C   UNL     1       0.099  -2.348   3.479  0.00  0.00    +0.088 C 
ATOM     10  C   UNL     1       0.272  -0.882   3.152  0.00  0.00    +0.223 C 
ATOM     11  O   UNL     1       0.377  -0.065   4.047  0.00  0.00    -0.275 OA
ATOM     12  N   UNL     1       0.309  -0.492   1.889  0.00  0.00    -0.284 N 
ATOM     13  C   UNL     1       0.205  -1.337   0.863  0.00  0.00    +0.043 A 
ATOM     14  H   UNL     1       0.420   0.453   1.700  0.00  0.00    +0.155 HD
ENDBRANCH   1   9
BRANCH   1  15
ATOM     15  N   UNL     1      -1.009  -1.676   5.557  0.00  0.00    +0.387 N 
ATOM     16  C   UNL     1      -2.121  -1.962   6.473  0.00  0.00    -0.059 C 
ATOM     17  C   UNL     1      -2.033  -1.031   7.687  0.00  0.00    +0.086 C 
ATOM     18  N   UNL     1      -0.698  -1.174   8.289  0.00  0.00    -0.333 N 
ATOM     19  C   UNL     1       0.475  -1.065   7.408  0.00  0.00    +0.086 C 
ATOM     20  C   UNL     1       0.269  -1.994   6.207  0.00  0.00    -0.059 C 
ATOM     21  H   UNL     1      -1.024  -0.698   5.308  0.00  0.00    -0.081 HD
BRANCH  18  22
ATOM     22  C   UNL     1      -0.549  -1.407   9.658  0.00  0.00    +0.030 A 
ATOM     23  C   UNL     1       0.718  -1.424  10.227  0.00  0.00    +0.023 A 
ATOM     24  C   UNL     1       0.862  -1.654  11.581  0.00  0.00    +0.002 A 
ATOM     25  C   UNL     1      -0.254  -1.868  12.370  0.00  0.00    +0.012 A 
ATOM     26  C   UNL     1      -1.516  -1.852  11.807  0.00  0.00    +0.057 A 
ATOM     27  C   UNL     1      -1.668  -1.617  10.454  0.00  0.00    +0.035 A 
BRANCH  26  28
ATOM     28  C   UNL     1      -2.729  -2.087  12.670  0.00  0.00    +0.417 C 
ATOM     29  F   UNL     1      -2.326  -2.295  13.994  0.00  0.00    -0.166 F 
ATOM     30  F   UNL     1      -3.568  -0.969  12.609  0.00  0.00    -0.166 F 
ATOM     31  F   UNL     1      -3.418  -3.213  12.210  0.00  0.00    -0.166 F 
ENDBRANCH  26  28
ENDBRANCH  18  22
ENDBRANCH   1  15
BRANCH   1  32
ATOM     32  C   UNL     1      -2.376  -2.014   3.553  0.00  0.00    +0.205 C 
ATOM     33  N   UNL     1      -2.362  -0.551   3.423  0.00  0.00    -0.152 NA
ATOM     34  N   UNL     1      -3.370  -0.093   3.966  0.00  0.00    -0.070 NA
ATOM     35  N   UNL     1      -4.184  -1.081   4.520  0.00  0.00    -0.179 N 
ATOM     36  N   UNL     1      -3.619  -2.312   4.295  0.00  0.00    -0.183 NA
ATOM     37  H   UNL     1      -5.018  -0.923   4.989  0.00  0.00    +0.191 HD
BRANCH  36  38
ATOM     38  C   UNL     1      -4.513  -3.167   3.502  0.00  0.00    +0.035 C 
ATOM     39  C   UNL     1      -3.794  -4.472   3.155  0.00  0.00    +0.029 C 
ATOM     40  C   UNL     1      -5.772  -3.479   4.314  0.00  0.00    +0.029 C 
ATOM     41  C   UNL     1      -4.903  -2.441   2.214  0.00  0.00    +0.029 C 
ENDBRANCH  36  38
ENDBRANCH   1  32
TORSDOF 6
