REMARK  Name = ZINC12825225
REMARK  6 active torsions:
REMARK  status: ('A' for Active; 'I' for Inactive)
REMARK    1  A    between atoms: C_1  and  C_2
REMARK    2  A    between atoms: C_4  and  C_21
REMARK    3  A    between atoms: C_6  and  C_16
REMARK    4  A    between atoms: C_10  and  C_11
REMARK    5  A    between atoms: N_13  and  O_14
REMARK    6  A    between atoms: O_14  and  C_15
REMARK                            x       y       z     vdW  Elec       q    Type
REMARK                         _______ _______ _______ _____ _____    ______ ____
ROOT
ATOM      1  C   UNL     1      -3.533  -2.326   0.152  0.00  0.00    +0.046 C 
ATOM      2  C   UNL     1      -2.129  -2.872   0.119  0.00  0.00    -0.020 A 
ATOM      3  C   UNL     1      -1.915  -4.253   0.008  0.00  0.00    +0.032 A 
ATOM      4  C   UNL     1      -2.866  -5.303  -0.085  0.00  0.00    +0.051 A 
ATOM      5  N   UNL     1      -2.451  -6.545  -0.177  0.00  0.00    -0.229 NA
ATOM      6  C   UNL     1      -1.157  -6.865  -0.188  0.00  0.00    +0.197 A 
ATOM      7  N   UNL     1      -0.217  -5.927  -0.104  0.00  0.00    -0.217 NA
ATOM      8  C   UNL     1      -0.554  -4.662  -0.008  0.00  0.00    +0.113 A 
ATOM      9  S   UNL     1       0.333  -3.131   0.122  0.00  0.00    -0.064 S 
ATOM     10  C   UNL     1      -1.066  -2.025   0.192  0.00  0.00    +0.081 A 
ATOM     11  C   UNL     1      -4.341  -4.994  -0.077  0.00  0.00    +0.066 C 
ENDROOT
BRANCH   6  12
ATOM     12  C   UNL     1      -0.761  -8.280  -0.294  0.00  0.00    +0.172 A 
ATOM     13  C   UNL     1       0.515  -8.754  -0.317  0.00  0.00    +0.053 A 
ATOM     14  C   UNL     1       0.426 -10.154  -0.427  0.00  0.00    +0.042 A 
ATOM     15  C   UNL     1      -0.886 -10.465  -0.467  0.00  0.00    +0.196 A 
ATOM     16  O   UNL     1      -1.600  -9.332  -0.380  0.00  0.00    -0.460 OA
ENDBRANCH   6  12
BRANCH  10  17
ATOM     17  C   UNL     1      -1.070  -0.561   0.308  0.00  0.00    +0.274 C 
ATOM     18  O   UNL     1      -2.125   0.044   0.343  0.00  0.00    -0.268 OA
ATOM     19  N   UNL     1       0.095   0.113   0.374  0.00  0.00    -0.190 N 
ATOM     20  H   UNL     1       0.936  -0.369   0.345  0.00  0.00    +0.183 HD
BRANCH  19  21
ATOM     21  O   UNL     1       0.091   1.524   0.485  0.00  0.00    -0.283 OA
ATOM     22  C   UNL     1       1.395   2.106   0.546  0.00  0.00    +0.226 C 
ENDBRANCH  19  21
ENDBRANCH  10  17
TORSDOF 3
