REMARK  Name = ZINC08645233
REMARK  5 active torsions:
REMARK  status: ('A' for Active; 'I' for Inactive)
REMARK    1  A    between atoms: C_1  and  C_2
REMARK    2  A    between atoms: C_2  and  C_20
REMARK    3  A    between atoms: N_5  and  C_9
REMARK    4  A    between atoms: C_9  and  C_10
REMARK    5  A    between atoms: N_12  and  C_13
REMARK                            x       y       z     vdW  Elec       q    Type
REMARK                         _______ _______ _______ _____ _____    ______ ____
ROOT
ATOM      1  C   UNL     1      -2.069   2.063  -4.386  0.00  0.00    +0.047 C 
ATOM      2  C   UNL     1      -2.186   2.625  -2.967  0.00  0.00    +0.136 C 
ATOM      3  C   UNL     1      -1.829   1.565  -1.944  0.00  0.00    +0.251 C 
ATOM      4  O   UNL     1      -2.389   0.505  -1.762  0.00  0.00    -0.272 OA
ATOM      5  N   UNL     1      -0.762   2.047  -1.277  0.00  0.00    -0.215 N 
ATOM      6  C   UNL     1      -0.394   3.248  -1.737  0.00  0.00    +0.310 C 
ATOM      7  O   UNL     1       0.544   3.882  -1.296  0.00  0.00    -0.252 OA
ATOM      8  N   UNL     1      -1.179   3.676  -2.741  0.00  0.00    -0.281 N 
ATOM      9  H   UNL     1      -1.099   4.514  -3.223  0.00  0.00    +0.152 HD
ENDROOT
BRANCH   2  10
ATOM     10  C   UNL     1      -3.574   3.158  -2.723  0.00  0.00    -0.008 A 
ATOM     11  C   UNL     1      -3.755   4.464  -2.384  0.00  0.00    +0.007 A 
ATOM     12  C   UNL     1      -5.031   4.977  -2.160  0.00  0.00    +0.001 A 
ATOM     13  C   UNL     1      -6.133   4.184  -2.262  0.00  0.00    +0.008 A 
ATOM     14  C   UNL     1      -5.985   2.829  -2.603  0.00  0.00    -0.018 A 
ATOM     15  C   UNL     1      -4.687   2.309  -2.837  0.00  0.00    -0.012 A 
ATOM     16  C   UNL     1      -4.540   0.953  -3.178  0.00  0.00    +0.009 A 
ATOM     17  C   UNL     1      -5.641   0.161  -3.279  0.00  0.00    +0.001 A 
ATOM     18  C   UNL     1      -6.917   0.672  -3.049  0.00  0.00    +0.001 A 
ATOM     19  C   UNL     1      -7.099   1.979  -2.717  0.00  0.00    +0.008 A 
ENDBRANCH   2  10
BRANCH   5  20
ATOM     20  C   UNL     1      -0.085   1.340  -0.187  0.00  0.00    +0.214 C 
BRANCH  20  21
ATOM     21  C   UNL     1      -0.716   1.722   1.128  0.00  0.00    +0.235 C 
ATOM     22  O   UNL     1      -1.640   2.507   1.152  0.00  0.00    -0.274 OA
ATOM     23  N   UNL     1      -0.252   1.190   2.276  0.00  0.00    -0.284 N 
ATOM     24  H   UNL     1       0.530   0.617   2.265  0.00  0.00    +0.155 HD
BRANCH  23  25
ATOM     25  C   UNL     1      -0.901   1.466   3.486  0.00  0.00    +0.033 A 
ATOM     26  C   UNL     1      -0.167   1.565   4.661  0.00  0.00    +0.024 A 
ATOM     27  C   UNL     1      -0.809   1.842   5.852  0.00  0.00    +0.017 A 
ATOM     28  C   UNL     1      -2.182   2.009   5.877  0.00  0.00    +0.018 A 
ATOM     29  C   UNL     1      -2.916   1.905   4.709  0.00  0.00    +0.017 A 
ATOM     30  C   UNL     1      -2.279   1.634   3.514  0.00  0.00    +0.024 A 
ATOM     31 BR   UNL     1      -3.058   2.381   7.512  0.00  0.00    -0.050 Br
ENDBRANCH  23  25
ENDBRANCH  20  21
ENDBRANCH   5  20
TORSDOF 4
