REMARK  Name = ZINC20462703
REMARK  12 active torsions:
REMARK  status: ('A' for Active; 'I' for Inactive)
REMARK    1  A    between atoms: C_1  and  C_2
REMARK    2  A    between atoms: C_2  and  C_3
REMARK    3  A    between atoms: C_12  and  C_14
REMARK    4  A    between atoms: C_14  and  N_15
REMARK    5  A    between atoms: N_15  and  C_16
REMARK    6  A    between atoms: N_15  and  C_25
REMARK    7  A    between atoms: C_16  and  C_17
REMARK    8  A    between atoms: C_20  and  O_23
REMARK    9  A    between atoms: O_23  and  C_24
REMARK   10  A    between atoms: C_25  and  C_26
REMARK   11  A    between atoms: C_29  and  O_32
REMARK   12  A    between atoms: O_32  and  C_33
REMARK                            x       y       z     vdW  Elec       q    Type
REMARK                         _______ _______ _______ _____ _____    ______ ____
ROOT
ATOM      1  N   UNL     1      -2.859   0.860   1.466  0.00  0.00    +0.384 N 
ATOM      2  H   UNL     1      -2.754   1.761   2.088  0.00  0.00    -0.081 HD
ENDROOT
BRANCH   1   3
ATOM      3  C   UNL     1      -2.130  -0.232   2.126  0.00  0.00    -0.094 C 
BRANCH   3  11
ATOM      4  C   UNL     1      -0.309   0.346   5.053  0.00  0.00    -0.025 C 
ATOM      5  C   UNL     1      -1.188   1.353   4.306  0.00  0.00    -0.075 C 
ATOM      6  N   UNL     1      -2.572   0.861   4.273  0.00  0.00    +0.381 N 
ATOM      7  C   UNL     1      -3.118   0.737   5.631  0.00  0.00    -0.078 C 
ATOM      8  C   UNL     1      -2.284  -0.291   6.433  0.00  0.00    -0.015 C 
ATOM      9  C   UNL     1      -1.182  -0.829   5.511  0.00  0.00    -0.013 C 
ATOM     10  C   UNL     1      -1.825  -1.471   4.275  0.00  0.00    -0.014 C 
ATOM     11  C   UNL     1      -2.662  -0.414   3.549  0.00  0.00    -0.085 C 
ATOM     12  H   UNL     1      -3.180   1.599   3.730  0.00  0.00    -0.082 HD
BRANCH   4  14
ATOM     13  C   UNL     1       1.725   0.989   3.754  0.00  0.00    +0.004 C 
ATOM     14  C   UNL     1       0.792  -0.165   4.122  0.00  0.00    -0.002 C 
ENDBRANCH   4  14
ENDBRANCH   3  11
ENDBRANCH   1   3
BRANCH   1  15
ATOM     15  C   UNL     1      -2.286   1.153   0.146  0.00  0.00    -0.043 C 
BRANCH  15  16
ATOM     16  C   UNL     1      -0.893   1.703   0.314  0.00  0.00    -0.064 A 
ATOM     17  C   UNL     1       0.190   0.844   0.337  0.00  0.00    +0.005 A 
ATOM     18  C   UNL     1       1.469   1.346   0.485  0.00  0.00    +0.046 A 
ATOM     19  C   UNL     1       1.665   2.713   0.616  0.00  0.00    +0.120 A 
ATOM     20  C   UNL     1       0.576   3.573   0.598  0.00  0.00    +0.046 A 
ATOM     21  C   UNL     1      -0.700   3.066   0.450  0.00  0.00    +0.005 A 
BRANCH  19  22
ATOM     22  O   UNL     1       2.922   3.209   0.763  0.00  0.00    -0.495 OA
ATOM     23  C   UNL     1       3.049   4.627   0.892  0.00  0.00    +0.277 C 
ENDBRANCH  19  22
ENDBRANCH  15  16
ENDBRANCH   1  15
BRANCH   1  24
ATOM     24  C   UNL     1      -4.290   0.548   1.361  0.00  0.00    -0.043 C 
BRANCH  24  25
ATOM     25  C   UNL     1      -5.067   1.821   1.141  0.00  0.00    -0.064 A 
ATOM     26  C   UNL     1      -5.442   2.596   2.223  0.00  0.00    +0.005 A 
ATOM     27  C   UNL     1      -6.148   3.767   2.024  0.00  0.00    +0.046 A 
ATOM     28  C   UNL     1      -6.492   4.157   0.738  0.00  0.00    +0.120 A 
ATOM     29  C   UNL     1      -6.120   3.375  -0.346  0.00  0.00    +0.046 A 
ATOM     30  C   UNL     1      -5.408   2.209  -0.141  0.00  0.00    +0.005 A 
BRANCH  28  31
ATOM     31  O   UNL     1      -7.192   5.305   0.539  0.00  0.00    -0.495 OA
ATOM     32  C   UNL     1      -7.542   6.061   1.701  0.00  0.00    +0.277 C 
ENDBRANCH  28  31
ENDBRANCH  24  25
ENDBRANCH   1  24
TORSDOF 9
