REMARK  Name = ZINC04580181
REMARK  3 active torsions:
REMARK  status: ('A' for Active; 'I' for Inactive)
REMARK    1  A    between atoms: C_3  and  N_25
REMARK    2  A    between atoms: C_6  and  C_7
REMARK    3  A    between atoms: C_10  and  C_12
REMARK                            x       y       z     vdW  Elec       q    Type
REMARK                         _______ _______ _______ _____ _____    ______ ____
ROOT
ATOM      1  C   UNL     1       2.402   3.940   0.001  0.00  0.00    +0.136 A 
ATOM      2  C   UNL     1       2.503   5.346   0.007  0.00  0.00    +0.050 A 
ATOM      3  C   UNL     1       3.827   5.663  -0.002  0.00  0.00    +0.050 A 
ATOM      4  C   UNL     1       4.555   4.390  -0.015  0.00  0.00    +0.130 A 
ATOM      5  O   UNL     1       3.632   3.401  -0.008  0.00  0.00    -0.455 OA
ENDROOT
BRANCH   4   6
ATOM      6  C   UNL     1       5.930   4.230  -0.028  0.00  0.00    +0.066 C 
ATOM      7  C   UNL     1       6.488   2.939  -0.039  0.00  0.00    +0.081 C 
ATOM      8  C   UNL     1       7.923   2.539  -0.054  0.00  0.00    +0.265 C 
ATOM      9  O   UNL     1       8.815   3.363  -0.057  0.00  0.00    -0.269 OA
ATOM     10  N   UNL     1       8.175   1.240  -0.062  0.00  0.00    -0.192 N 
ATOM     11  C   UNL     1       7.118   0.345  -0.058  0.00  0.00    +0.167 C 
ATOM     12  N   UNL     1       7.162  -0.954  -0.065  0.00  0.00    -0.279 NA
ATOM     13  S   UNL     1       5.682   1.402  -0.033  0.00  0.00    -0.049 S 
ATOM     14  C   UNL     1       9.486   0.778  -0.076  0.00  0.00    +0.173 A 
ATOM     15  N   UNL     1      10.609   1.472  -0.089  0.00  0.00    -0.233 NA
ATOM     16  C   UNL     1      11.782   0.873  -0.098  0.00  0.00    +0.120 A 
ATOM     17  C   UNL     1      11.814  -0.484  -0.105  0.00  0.00    +0.068 A 
ATOM     18  S   UNL     1      10.067  -0.858  -0.090  0.00  0.00    -0.060 S 
ATOM     19  H   UNL     1       6.339  -1.467  -0.060  0.00  0.00    +0.189 HD
ENDBRANCH   4   6
BRANCH   1  25
ATOM     20  C   UNL     1       1.171   1.778   0.000  0.00  0.00    +0.014 A 
ATOM     21  C   UNL     1      -0.013   1.076   0.008  0.00  0.00    +0.033 A 
ATOM     22  C   UNL     1      -1.224   1.750   0.017  0.00  0.00    +0.126 A 
ATOM     23  C   UNL     1      -1.257   3.136   0.031  0.00  0.00    +0.033 A 
ATOM     24  C   UNL     1      -0.084   3.857   0.024  0.00  0.00    +0.014 A 
ATOM     25  C   UNL     1       1.149   3.183   0.008  0.00  0.00    +0.017 A 
BRANCH  22  26
ATOM     26  N   UNL     1      -2.491   0.985   0.019  0.00  0.00    +0.056 N 
ATOM     27  O   UNL     1      -2.465  -0.332   0.012  0.00  0.00    -0.126 OA
ATOM     28  O   UNL     1      -3.644   1.621   0.028  0.00  0.00    -0.126 OA
ENDBRANCH  22  26
ENDBRANCH   1  25
TORSDOF 3
