REMARK  Name = ZINC32587041
REMARK  12 active torsions:
REMARK  status: ('A' for Active; 'I' for Inactive)
REMARK    1  A    between atoms: C_1  and  C_2
REMARK    2  A    between atoms: C_6  and  C_8
REMARK    3  A    between atoms: C_8  and  N_9
REMARK    4  A    between atoms: N_9  and  C_10
REMARK    5  A    between atoms: C_11  and  C_13
REMARK    6  A    between atoms: C_13  and  C_14
REMARK    7  A    between atoms: N_21  and  C_22
REMARK    8  A    between atoms: C_22  and  C_23
REMARK    9  A    between atoms: C_26  and  O_31
REMARK   10  A    between atoms: C_27  and  C_30
REMARK   11  A    between atoms: C_28  and  C_29
REMARK   12  A    between atoms: O_31  and  C_32
REMARK                            x       y       z     vdW  Elec       q    Type
REMARK                         _______ _______ _______ _____ _____    ______ ____
ROOT
ATOM      1  C   UNL     1      -3.841  -6.083   0.098  0.00  0.00    +0.028 C 
ATOM      2  C   UNL     1      -4.234  -7.279  -0.722  0.00  0.00    +0.200 C 
ATOM      3  O   UNL     1      -3.757  -7.407  -1.830  0.00  0.00    -0.278 OA
ATOM      4  N   UNL     1      -5.087  -8.210  -0.280  0.00  0.00    -0.318 N 
ATOM      5  C   UNL     1      -5.690  -8.156   1.050  0.00  0.00    +0.085 C 
ATOM      6  C   UNL     1      -5.559  -6.744   1.625  0.00  0.00    -0.058 C 
ATOM      7  N   UNL     1      -4.155  -6.318   1.512  0.00  0.00    +0.391 N 
ATOM      8  H   UNL     1      -5.315  -8.949  -0.865  0.00  0.00    +0.149 HD
ATOM      9  H   UNL     1      -3.552  -7.039   1.878  0.00  0.00    -0.080 HD
ENDROOT
BRANCH   1  10
ATOM     10  C   UNL     1      -2.338  -5.836  -0.053  0.00  0.00    +0.090 C 
BRANCH  10  13
ATOM     11  N   UNL     1      -0.248  -7.146   0.136  0.00  0.00    -0.297 N 
ATOM     12  C   UNL     1       0.470  -5.987  -0.400  0.00  0.00    +0.132 C 
ATOM     13  C   UNL     1      -1.584  -7.090   0.306  0.00  0.00    +0.215 C 
ATOM     14  O   UNL     1      -2.179  -8.049   0.750  0.00  0.00    -0.276 OA
BRANCH  11  15
ATOM     15  C   UNL     1       0.485  -8.365   0.485  0.00  0.00    +0.179 C 
BRANCH  15  21
ATOM     16  C   UNL     1       2.049  -9.722   5.048  0.00  0.00    +0.065 C 
ATOM     17  C   UNL     1       1.599  -8.867   3.892  0.00  0.00    +0.030 A 
ATOM     18  C   UNL     1       1.463  -7.527   3.904  0.00  0.00    +0.105 A 
ATOM     19  N   UNL     1       1.036  -7.161   2.657  0.00  0.00    -0.348 N 
ATOM     20  H   UNL     1       0.847  -6.258   2.355  0.00  0.00    +0.166 HD
ATOM     21  C   UNL     1       0.925  -8.290   1.925  0.00  0.00    +0.102 A 
ATOM     22  N   UNL     1       1.269  -9.306   2.668  0.00  0.00    -0.346 N 
ATOM     23  H   UNL     1       1.282 -10.233   2.382  0.00  0.00    +0.167 HD
ENDBRANCH  15  21
ENDBRANCH  11  15
ENDBRANCH  10  13
ENDBRANCH   1  10
BRANCH   7  24
ATOM     24  C   UNL     1      -3.959  -5.077   2.273  0.00  0.00    -0.042 C 
BRANCH  24  25
ATOM     25  C   UNL     1      -4.186  -5.344   3.738  0.00  0.00    -0.061 A 
ATOM     26  C   UNL     1      -5.396  -5.011   4.321  0.00  0.00    +0.005 A 
ATOM     27  C   UNL     1      -5.606  -5.254   5.664  0.00  0.00    +0.046 A 
ATOM     28  C   UNL     1      -4.604  -5.834   6.429  0.00  0.00    +0.123 A 
ATOM     29  C   UNL     1      -3.392  -6.167   5.842  0.00  0.00    -0.006 A 
ATOM     30  C   UNL     1      -3.188  -5.926   4.497  0.00  0.00    -0.043 A 
ATOM     31  C   UNL     1      -1.874  -6.293   3.857  0.00  0.00    +0.044 C 
ATOM     32  C   UNL     1      -2.301  -6.796   6.669  0.00  0.00    +0.048 C 
BRANCH  28  33
ATOM     33  O   UNL     1      -4.809  -6.074   7.751  0.00  0.00    -0.495 OA
ATOM     34  C   UNL     1      -6.080  -5.704   8.288  0.00  0.00    +0.277 C 
ENDBRANCH  28  33
ENDBRANCH  24  25
ENDBRANCH   7  24
TORSDOF 7
