REMARK  Name = ZINC40011056
REMARK  7 active torsions:
REMARK  status: ('A' for Active; 'I' for Inactive)
REMARK    1  A    between atoms: C_1  and  O_2
REMARK    2  A    between atoms: O_2  and  C_3
REMARK    3  A    between atoms: C_10  and  C_15
REMARK    4  A    between atoms: C_19  and  O_28
REMARK    5  A    between atoms: C_20  and  O_26
REMARK    6  A    between atoms: O_26  and  C_27
REMARK    7  A    between atoms: O_28  and  C_29
REMARK                            x       y       z     vdW  Elec       q    Type
REMARK                         _______ _______ _______ _____ _____    ______ ____
ROOT
ATOM      1  C   UNL     1       1.164  -5.489   4.215  0.00  0.00    -0.025 C 
ATOM      2  C   UNL     1       0.474  -6.378   3.213  0.00  0.00    -0.054 A 
ATOM      3  C   UNL     1       0.074  -5.826   2.005  0.00  0.00    +0.051 A 
ATOM      4  C   UNL     1      -0.566  -6.605   1.058  0.00  0.00    +0.162 A 
ATOM      5  C   UNL     1      -0.810  -7.950   1.320  0.00  0.00    +0.162 A 
ATOM      6  C   UNL     1      -0.408  -8.497   2.526  0.00  0.00    +0.053 A 
ATOM      7  C   UNL     1       0.234  -7.711   3.472  0.00  0.00    -0.044 A 
ATOM      8  C   UNL     1       0.661  -8.350   4.769  0.00  0.00    +0.016 C 
ATOM      9  C   UNL     1       0.970  -7.266   5.803  0.00  0.00    -0.077 C 
ATOM     10  N   UNL     1       1.893  -6.293   5.200  0.00  0.00    +0.385 N 
ATOM     11  H   UNL     1       2.649  -6.782   4.744  0.00  0.00    -0.085 HD
ATOM     12  H   UNL     1       2.264  -5.690   5.919  0.00  0.00    -0.085 HD
ENDROOT
BRANCH   1  20
ATOM     13  C   UNL     1       5.697  -2.205   5.870  0.00  0.00    +0.121 A 
ATOM     14  C   UNL     1       6.610  -3.078   5.266  0.00  0.00    +0.047 A 
ATOM     15  C   UNL     1       6.226  -4.060   4.412  0.00  0.00    +0.027 A 
ATOM     16  C   UNL     1       4.867  -4.242   4.093  0.00  0.00    +0.041 A 
ATOM     17  N   UNL     1       4.505  -5.211   3.253  0.00  0.00    -0.285 N 
ATOM     18  C   UNL     1       3.248  -5.438   2.910  0.00  0.00    +0.223 C 
ATOM     19  O   UNL     1       2.978  -6.338   2.138  0.00  0.00    -0.275 OA
ATOM     20  C   UNL     1       2.147  -4.574   3.483  0.00  0.00    +0.089 C 
ATOM     21  C   UNL     1       2.554  -3.470   4.440  0.00  0.00    -0.006 C 
ATOM     22  C   UNL     1       3.883  -3.338   4.714  0.00  0.00    -0.004 A 
ATOM     23  C   UNL     1       4.360  -2.303   5.631  0.00  0.00    +0.055 A 
ATOM     24  H   UNL     1       5.196  -5.777   2.874  0.00  0.00    +0.155 HD
BRANCH  13  26
ATOM     25  C   UNL     1       7.566  -1.186   6.931  0.00  0.00    +0.277 C 
ATOM     26  O   UNL     1       6.154  -1.244   6.716  0.00  0.00    -0.495 OA
ENDBRANCH  13  26
ENDBRANCH   1  20
BRANCH   5  27
ATOM     27  O   UNL     1      -1.440  -8.724   0.396  0.00  0.00    -0.491 OA
ATOM     28  C   UNL     1      -1.655 -10.095   0.735  0.00  0.00    +0.277 C 
ENDBRANCH   5  27
BRANCH   4  29
ATOM     29  O   UNL     1      -0.956  -6.059  -0.125  0.00  0.00    -0.491 OA
ATOM     30  C   UNL     1      -0.672  -4.673  -0.324  0.00  0.00    +0.277 C 
ENDBRANCH   4  29
TORSDOF 4
