REMARK  Name = ZINC08748162
REMARK  9 active torsions:
REMARK  status: ('A' for Active; 'I' for Inactive)
REMARK    1  A    between atoms: C_1  and  C_2
REMARK    2  A    between atoms: C_2  and  C_3
REMARK    3  A    between atoms: C_2  and  O_4
REMARK    4  A    between atoms: O_4  and  C_5
REMARK    5  A    between atoms: C_5  and  C_7
REMARK    6  A    between atoms: C_8  and  N_29
REMARK    7  A    between atoms: C_14  and  C_27
REMARK    8  A    between atoms: C_17  and  C_19
REMARK    9  A    between atoms: C_27  and  O_28
REMARK                            x       y       z     vdW  Elec       q    Type
REMARK                         _______ _______ _______ _____ _____    ______ ____
ROOT
ATOM      1  C   UNL     1       0.387  -4.231  -2.406  0.00  0.00    +0.108 C 
ATOM      2  C   UNL     1       0.673  -4.613  -1.133  0.00  0.00    +0.196 C 
ATOM      3  O   UNL     1       0.351  -3.840  -0.085  0.00  0.00    -0.435 OA
ATOM      4  C   UNL     1       0.101  -2.520  -0.268  0.00  0.00    +0.215 A 
ATOM      5  C   UNL     1       0.175  -1.636   0.846  0.00  0.00    +0.228 A 
ATOM      6  O   UNL     1       0.460  -2.052   1.958  0.00  0.00    -0.284 OA
ATOM      7  C   UNL     1      -0.091  -0.261   0.630  0.00  0.00    +0.098 A 
ATOM      8  C   UNL     1      -0.400   0.154  -0.615  0.00  0.00    +0.134 A 
ATOM      9  O   UNL     1      -0.464  -0.709  -1.633  0.00  0.00    -0.457 OA
ATOM     10  C   UNL     1      -0.216  -2.022  -1.481  0.00  0.00    +0.163 A 
ATOM     11  C   UNL     1      -0.305  -2.926  -2.683  0.00  0.00    +0.131 C 
ENDROOT
BRANCH  11  12
ATOM     12  C   UNL     1      -1.754  -3.187  -3.005  0.00  0.00    -0.031 A 
ATOM     13  C   UNL     1      -2.265  -2.822  -4.237  0.00  0.00    +0.006 A 
ATOM     14  C   UNL     1      -3.593  -3.062  -4.533  0.00  0.00    +0.022 A 
ATOM     15  C   UNL     1      -4.412  -3.667  -3.597  0.00  0.00    +0.059 A 
ATOM     16  C   UNL     1      -3.901  -4.032  -2.364  0.00  0.00    +0.060 A 
ATOM     17  C   UNL     1      -2.569  -3.797  -2.071  0.00  0.00    +0.026 A 
ATOM     18 CL   UNL     1      -4.928  -4.792  -1.188  0.00  0.00    -0.082 Cl
ATOM     19 CL   UNL     1      -6.082  -3.967  -3.969  0.00  0.00    -0.082 Cl
ENDBRANCH  11  12
BRANCH   2  20
ATOM     20  N   UNL     1       1.303  -5.810  -0.917  0.00  0.00    -0.329 N 
ATOM     21  H   UNL     1       2.027  -6.089  -1.499  0.00  0.00    +0.145 HD
ATOM     22  H   UNL     1       1.025  -6.378  -0.182  0.00  0.00    +0.145 HD
ENDBRANCH   2  20
BRANCH   1  23
ATOM     23  C   UNL     1       0.741  -5.066  -3.475  0.00  0.00    +0.341 C 
ATOM     24  O   UNL     1       1.194  -6.176  -3.257  0.00  0.00    -0.245 OA
BRANCH  23  25
ATOM     25  O   UNL     1       0.581  -4.640  -4.747  0.00  0.00    -0.459 OA
BRANCH  25  27
ATOM     26  C   UNL     1      -0.235  -6.413  -6.173  0.00  0.00    +0.052 C 
ATOM     27  C   UNL     1       0.963  -5.543  -5.787  0.00  0.00    +0.171 C 
ATOM     28  C   UNL     1       1.430  -4.747  -7.007  0.00  0.00    +0.052 C 
ENDBRANCH  25  27
ENDBRANCH  23  25
ENDBRANCH   1  23
BRANCH   8  29
ATOM     29  C   UNL     1      -0.686   1.613  -0.861  0.00  0.00    +0.230 C 
BRANCH  29  30
ATOM     30  O   UNL     1       0.530   2.287  -1.193  0.00  0.00    -0.387 OA
ATOM     31  H   UNL     1       0.422   3.232  -1.365  0.00  0.00    +0.210 HD
ENDBRANCH  29  30
ENDBRANCH   8  29
TORSDOF 7
