REMARK  Name = ZINC61751888
REMARK  6 active torsions:
REMARK  status: ('A' for Active; 'I' for Inactive)
REMARK    1  A    between atoms: C_1  and  C_2
REMARK    2  A    between atoms: C_2  and  C_3
REMARK    3  A    between atoms: C_2  and  N_10
REMARK    4  A    between atoms: C_11  and  C_13
REMARK    5  A    between atoms: N_15  and  C_16
REMARK    6  A    between atoms: C_19  and  N_22
REMARK                            x       y       z     vdW  Elec       q    Type
REMARK                         _______ _______ _______ _____ _____    ______ ____
ROOT
ATOM      1  C   UNL     1       3.092  -0.805   2.077  0.00  0.00    +0.303 C 
ATOM      2  O   UNL     1       2.639  -0.978   3.190  0.00  0.00    -0.265 OA
ATOM      3  N   UNL     1       4.402  -1.022   1.841  0.00  0.00    -0.278 N 
ATOM      4  H   UNL     1       4.779  -0.812   0.973  0.00  0.00    +0.155 HD
ENDROOT
BRANCH   3   5
ATOM      5  C   UNL     1       5.215  -1.548   2.848  0.00  0.00    +0.034 A 
ATOM      6  C   UNL     1       6.547  -1.161   2.939  0.00  0.00    +0.025 A 
ATOM      7  C   UNL     1       7.350  -1.681   3.934  0.00  0.00    +0.030 A 
ATOM      8  C   UNL     1       6.828  -2.591   4.843  0.00  0.00    +0.069 A 
ATOM      9  C   UNL     1       5.497  -2.978   4.753  0.00  0.00    +0.030 A 
ATOM     10  C   UNL     1       4.692  -2.454   3.763  0.00  0.00    +0.025 A 
BRANCH   8  11
ATOM     11  N   UNL     1       7.645  -3.119   5.854  0.00  0.00    -0.200 N 
ATOM     12  C   UNL     1       7.297  -4.011   6.807  0.00  0.00    +0.250 A 
ATOM     13  N   UNL     1       8.358  -4.230   7.540  0.00  0.00    -0.116 NA
ATOM     14  N   UNL     1       9.352  -3.537   7.114  0.00  0.00    -0.023 NA
ATOM     15  N   UNL     1       9.002  -2.839   6.088  0.00  0.00    -0.039 NA
ENDBRANCH   8  11
ENDBRANCH   3   5
BRANCH   1  17
ATOM     16  N   UNL     1       0.890  -0.136   1.205  0.00  0.00    -0.305 N 
ATOM     17  C   UNL     1       2.199  -0.352   0.970  0.00  0.00    +0.300 C 
ATOM     18  O   UNL     1       2.652  -0.179  -0.143  0.00  0.00    -0.265 OA
ATOM     19  H   UNL     1       0.528  -0.274   2.095  0.00  0.00    +0.149 HD
BRANCH  16  21
ATOM     20  C   UNL     1       0.091   1.831  -0.009  0.00  0.00    +0.028 C 
ATOM     21  C   UNL     1       0.013   0.308   0.119  0.00  0.00    +0.074 C 
BRANCH  21  22
ATOM     22  C   UNL     1      -1.428  -0.105   0.425  0.00  0.00    +0.012 C 
ATOM     23  C   UNL     1      -2.326   0.115  -0.814  0.00  0.00    +0.009 C 
ATOM     24  C   UNL     1      -2.864  -1.305  -1.169  0.00  0.00    -0.010 C 
ATOM     25  C   UNL     1      -1.619  -2.068  -1.715  0.00  0.00    +0.004 C 
ATOM     26  C   UNL     1      -0.720  -2.288  -0.476  0.00  0.00    +0.004 C 
ATOM     27  C   UNL     1      -1.507  -1.637   0.702  0.00  0.00    -0.006 C 
ATOM     28  C   UNL     1      -2.985  -1.935   0.264  0.00  0.00    +0.007 C 
ENDBRANCH  21  22
ENDBRANCH  16  21
ENDBRANCH   1  17
TORSDOF 5
