REMARK  Name = ZINC05485880
REMARK  4 active torsions:
REMARK  status: ('A' for Active; 'I' for Inactive)
REMARK    1  A    between atoms: C_4  and  S_7
REMARK    2  A    between atoms: S_7  and  C_8
REMARK    3  A    between atoms: C_9  and  C_19
REMARK    4  A    between atoms: N_20  and  N_21
REMARK                            x       y       z     vdW  Elec       q    Type
REMARK                         _______ _______ _______ _____ _____    ______ ____
ROOT
ATOM      1  C   UNL     1      -1.187  -1.997  -0.002  0.00  0.00    +0.118 A 
ATOM      2  C   UNL     1       0.020  -2.725  -0.014  0.00  0.00    +0.091 A 
ATOM      3  C   UNL     1       1.235  -2.011  -0.026  0.00  0.00    +0.268 A 
ATOM      4  O   UNL     1       2.301  -2.604  -0.037  0.00  0.00    -0.267 OA
ATOM      5  N   UNL     1       1.200  -0.662  -0.025  0.00  0.00    -0.268 N 
ATOM      6  C   UNL     1       2.372   0.037  -0.037  0.00  0.00    +0.096 A 
ATOM      7  C   UNL     1       2.371   1.388  -0.036  0.00  0.00    +0.018 A 
ATOM      8  C   UNL     1       1.158   2.092  -0.023  0.00  0.00    +0.005 A 
ATOM      9  C   UNL     1      -0.018   1.404  -0.012  0.00  0.00    +0.047 A 
ATOM     10  C   UNL     1       0.001  -0.003  -0.013  0.00  0.00    +0.141 A 
ATOM     11  N   UNL     1      -1.152  -0.669  -0.002  0.00  0.00    -0.222 NA
ENDROOT
BRANCH   2  12
ATOM     12  C   UNL     1       0.011  -4.194  -0.015  0.00  0.00    +0.146 C 
ATOM     13  N   UNL     1       1.133  -4.851  -0.026  0.00  0.00    -0.186 NA
BRANCH  13  14
ATOM     14  N   UNL     1       1.124  -6.252  -0.026  0.00  0.00    -0.191 N 
ATOM     15  C   UNL     1       2.287  -6.933  -0.038  0.00  0.00    +0.317 C 
ATOM     16  O   UNL     1       2.280  -8.149  -0.038  0.00  0.00    -0.251 OA
ATOM     17  N   UNL     1       3.458  -6.266  -0.050  0.00  0.00    -0.312 N 
ATOM     18  H   UNL     1       0.281  -6.731  -0.018  0.00  0.00    +0.179 HD
ATOM     19  H   UNL     1       3.464  -5.296  -0.050  0.00  0.00    +0.147 HD
ATOM     20  H   UNL     1       4.295  -6.756  -0.058  0.00  0.00    +0.147 HD
ENDBRANCH  13  14
ENDBRANCH   2  12
BRANCH   1  21
ATOM     21  S   UNL     1      -2.733  -2.842   0.013  0.00  0.00    -0.069 S 
BRANCH  21  25
ATOM     22  C   UNL     1      -5.550   0.677   0.449  0.00  0.00    +0.000 A 
ATOM     23  C   UNL     1      -5.264   0.173  -0.807  0.00  0.00    +0.001 A 
ATOM     24  C   UNL     1      -4.406  -0.899  -0.944  0.00  0.00    +0.015 A 
ATOM     25  C   UNL     1      -3.829  -1.473   0.183  0.00  0.00    +0.014 A 
ATOM     26  C   UNL     1      -4.123  -0.968   1.444  0.00  0.00    +0.015 A 
ATOM     27  C   UNL     1      -4.978   0.108   1.572  0.00  0.00    +0.001 A 
ENDBRANCH  21  25
ENDBRANCH   1  21
TORSDOF 4
