REMARK  Name = ZINC38502178
REMARK  12 active torsions:
REMARK  status: ('A' for Active; 'I' for Inactive)
REMARK    1  A    between atoms: C_1  and  C_2
REMARK    2  A    between atoms: C_2  and  O_3
REMARK    3  A    between atoms: O_3  and  C_4
REMARK    4  A    between atoms: C_4  and  C_5
REMARK    5  A    between atoms: C_5  and  N_6
REMARK    6  A    between atoms: C_10  and  S_26
REMARK    7  A    between atoms: N_15  and  C_16
REMARK    8  A    between atoms: C_16  and  C_18
REMARK    9  A    between atoms: N_22  and  C_23
REMARK   10  A    between atoms: C_23  and  C_24
REMARK   11  A    between atoms: C_23  and  C_25
REMARK   12  A    between atoms: S_26  and  N_29
REMARK                            x       y       z     vdW  Elec       q    Type
REMARK                         _______ _______ _______ _____ _____    ______ ____
ROOT
ATOM      1  N   UNL     1      -3.545  -1.903  -1.226  0.00  0.00    -0.319 N 
ATOM      2  C   UNL     1      -4.131  -0.652  -1.297  0.00  0.00    +0.058 A 
ATOM      3  C   UNL     1      -4.204   0.318  -0.282  0.00  0.00    +0.029 A 
ATOM      4  C   UNL     1      -4.824   1.524  -0.502  0.00  0.00    +0.030 A 
ATOM      5  C   UNL     1      -5.397   1.825  -1.726  0.00  0.00    +0.106 A 
ATOM      6  C   UNL     1      -5.340   0.890  -2.744  0.00  0.00    +0.045 A 
ATOM      7  C   UNL     1      -4.720  -0.317  -2.525  0.00  0.00    +0.041 A 
ATOM      8  S   UNL     1      -4.431  -1.757  -3.525  0.00  0.00    -0.052 S 
ATOM      9  C   UNL     1      -3.555  -2.729  -2.310  0.00  0.00    +0.167 A 
ATOM     10  N   UNL     1      -3.045  -3.949  -2.431  0.00  0.00    -0.151 NA
ENDROOT
BRANCH   5  11
ATOM     11  S   UNL     1      -6.188   3.378  -1.984  0.00  0.00    +0.056 S 
ATOM     12  O   UNL     1      -7.117   3.190  -3.043  0.00  0.00    -0.153 OA
ATOM     13  O   UNL     1      -6.579   3.852  -0.703  0.00  0.00    -0.153 OA
BRANCH  11  14
ATOM     14  N   UNL     1      -5.036   4.427  -2.546  0.00  0.00    -0.204 NA
ATOM     15  H   UNL     1      -4.123   4.123  -2.670  0.00  0.00    +0.144 HD
ATOM     16  H   UNL     1      -5.274   5.345  -2.751  0.00  0.00    +0.144 HD
ENDBRANCH  11  14
ENDBRANCH   5  11
BRANCH  10  17
ATOM     17  C   UNL     1      -3.158  -4.610  -3.590  0.00  0.00    +0.287 C 
ATOM     18  O   UNL     1      -3.728  -4.091  -4.534  0.00  0.00    -0.266 OA
BRANCH  17  19
ATOM     19  C   UNL     1      -2.591  -5.965  -3.724  0.00  0.00    +0.126 A 
ATOM     20  C   UNL     1      -2.624  -6.759  -4.851  0.00  0.00    +0.054 A 
ATOM     21  C   UNL     1      -1.976  -7.954  -4.546  0.00  0.00    +0.135 A 
ATOM     22  N   UNL     1      -1.565  -7.905  -3.304  0.00  0.00    -0.179 NA
ATOM     23  N   UNL     1      -1.929  -6.668  -2.758  0.00  0.00    -0.257 N 
BRANCH  23  24
ATOM     24  C   UNL     1      -1.652  -6.210  -1.394  0.00  0.00    +0.102 C 
ATOM     25  C   UNL     1      -2.305  -7.165  -0.393  0.00  0.00    +0.032 C 
ATOM     26  C   UNL     1      -0.140  -6.184  -1.162  0.00  0.00    +0.032 C 
ENDBRANCH  23  24
ENDBRANCH  17  19
ENDBRANCH  10  17
BRANCH   1  27
ATOM     27  C   UNL     1      -2.905  -2.339   0.017  0.00  0.00    +0.152 C 
BRANCH  27  28
ATOM     28  C   UNL     1      -1.432  -1.925   0.005  0.00  0.00    +0.181 C 
BRANCH  28  29
ATOM     29  O   UNL     1      -1.339  -0.499   0.012  0.00  0.00    -0.378 OA
BRANCH  29  31
ATOM     30  C   UNL     1      -0.019   1.526   0.010  0.00  0.00    +0.034 C 
ATOM     31  C   UNL     1       0.002  -0.004   0.002  0.00  0.00    +0.156 C 
ENDBRANCH  29  31
ENDBRANCH  28  29
ENDBRANCH  27  28
ENDBRANCH   1  27
TORSDOF 9
