REMARK  Name = ZINC05713557
REMARK  4 active torsions:
REMARK  status: ('A' for Active; 'I' for Inactive)
REMARK    1  A    between atoms: C_3  and  N_9
REMARK    2  A    between atoms: C_10  and  C_12
REMARK    3  A    between atoms: N_14  and  N_15
REMARK    4  A    between atoms: C_16  and  C_18
REMARK                            x       y       z     vdW  Elec       q    Type
REMARK                         _______ _______ _______ _____ _____    ______ ____
ROOT
ATOM      1  C   UNL     1      -6.058   3.292   0.059  0.00  0.00    +0.315 C 
ATOM      2  O   UNL     1      -6.072   2.078   0.049  0.00  0.00    -0.264 OA
ATOM      3  N   UNL     1      -4.883   3.952   0.046  0.00  0.00    -0.226 N 
ATOM      4  H   UNL     1      -4.872   4.922   0.054  0.00  0.00    +0.173 HD
ENDROOT
BRANCH   1   6
ATOM      5  N   UNL     1      -8.517   3.393   0.101  0.00  0.00    -0.276 N 
ATOM      6  C   UNL     1      -7.342   4.053   0.087  0.00  0.00    +0.305 C 
ATOM      7  O   UNL     1      -7.328   5.267   0.097  0.00  0.00    -0.265 OA
ATOM      8  H   UNL     1      -8.531   2.426   0.026  0.00  0.00    +0.155 HD
BRANCH   5  11
ATOM      9  C   UNL     1     -11.031   6.054  -0.242  0.00  0.00    +0.022 A 
ATOM     10  C   UNL     1      -9.845   5.356  -0.362  0.00  0.00    +0.026 A 
ATOM     11  C   UNL     1      -9.716   4.102   0.221  0.00  0.00    +0.052 A 
ATOM     12  C   UNL     1     -10.784   3.551   0.921  0.00  0.00    +0.064 A 
ATOM     13  C   UNL     1     -11.966   4.257   1.042  0.00  0.00    +0.041 A 
ATOM     14  C   UNL     1     -12.090   5.506   0.459  0.00  0.00    +0.042 A 
ATOM     15 CL   UNL     1     -13.579   6.387   0.609  0.00  0.00    -0.083 Cl
ATOM     16 CL   UNL     1     -10.630   1.982   1.647  0.00  0.00    -0.082 Cl
ENDBRANCH   5  11
ENDBRANCH   1   6
BRANCH   3  17
ATOM     17  N   UNL     1      -3.678   3.237   0.020  0.00  0.00    -0.230 N 
ATOM     18  C   UNL     1      -2.503   3.898   0.006  0.00  0.00    +0.260 C 
ATOM     19  O   UNL     1      -2.489   5.113   0.016  0.00  0.00    -0.269 OA
ATOM     20  H   UNL     1      -3.690   2.268   0.011  0.00  0.00    +0.173 HD
BRANCH  18  21
ATOM     21  C   UNL     1      -1.230   3.142  -0.021  0.00  0.00    +0.041 A 
ATOM     22  C   UNL     1      -1.224   1.744  -0.038  0.00  0.00    +0.033 A 
ATOM     23  C   UNL     1      -0.013   1.079  -0.059  0.00  0.00    +0.111 A 
ATOM     24  N   UNL     1       1.125   1.746  -0.071  0.00  0.00    -0.263 NA
ATOM     25  C   UNL     1       1.164   3.063  -0.061  0.00  0.00    +0.111 A 
ATOM     26  C   UNL     1       0.000   3.807  -0.036  0.00  0.00    +0.033 A 
ENDBRANCH  18  21
ENDBRANCH   3  17
TORSDOF 4
