REMARK  Name = ZINC13149424
REMARK  6 active torsions:
REMARK  status: ('A' for Active; 'I' for Inactive)
REMARK    1  A    between atoms: C_1  and  C_2
REMARK    2  A    between atoms: C_2  and  C_4
REMARK    3  A    between atoms: C_2  and  N_16
REMARK    4  A    between atoms: N_6  and  C_7
REMARK    5  A    between atoms: N_16  and  S_17
REMARK    6  A    between atoms: S_17  and  C_20
REMARK                            x       y       z     vdW  Elec       q    Type
REMARK                         _______ _______ _______ _____ _____    ______ ____
ROOT
ATOM      1  C   UNL     1       7.842  -1.597   2.523  0.00  0.00    +0.035 C 
ATOM      2  C   UNL     1       6.728  -1.853   3.541  0.00  0.00    +0.159 C 
ENDROOT
BRANCH   2   3
ATOM      3  C   UNL     1       5.391  -1.784   2.850  0.00  0.00    +0.236 C 
ATOM      4  O   UNL     1       4.657  -2.749   2.852  0.00  0.00    -0.274 OA
ATOM      5  N   UNL     1       5.011  -0.649   2.230  0.00  0.00    -0.284 N 
ATOM      6  H   UNL     1       5.627   0.097   2.162  0.00  0.00    +0.155 HD
BRANCH   5   7
ATOM      7  C   UNL     1       3.725  -0.547   1.683  0.00  0.00    +0.037 A 
ATOM      8  C   UNL     1       3.517   0.200   0.531  0.00  0.00    +0.027 A 
ATOM      9  C   UNL     1       2.250   0.302  -0.009  0.00  0.00    +0.051 A 
ATOM     10  C   UNL     1       1.182  -0.341   0.597  0.00  0.00    +0.166 A 
ATOM     11  C   UNL     1       1.387  -1.090   1.753  0.00  0.00    +0.168 A 
ATOM     12  C   UNL     1       2.658  -1.192   2.293  0.00  0.00    +0.072 A 
ATOM     13  O   UNL     1       0.191  -1.616   2.150  0.00  0.00    -0.453 OA
ATOM     14  C   UNL     1      -0.671  -1.520   1.001  0.00  0.00    +0.466 C 
ATOM     15  O   UNL     1      -0.143  -0.398   0.269  0.00  0.00    -0.453 OA
ENDBRANCH   5   7
ENDBRANCH   2   3
BRANCH   2  16
ATOM     16  N   UNL     1       6.904  -3.181   4.133  0.00  0.00    -0.178 NA
ATOM     17  H   UNL     1       6.546  -3.963   3.685  0.00  0.00    +0.149 HD
BRANCH  16  18
ATOM     18  S   UNL     1       7.713  -3.347   5.569  0.00  0.00    +0.062 S 
ATOM     19  O   UNL     1       7.692  -4.731   5.889  0.00  0.00    -0.153 OA
ATOM     20  O   UNL     1       8.923  -2.613   5.441  0.00  0.00    -0.153 OA
BRANCH  18  21
ATOM     21  C   UNL     1       6.757  -2.531   6.803  0.00  0.00    +0.142 A 
ATOM     22  C   UNL     1       6.977  -1.193   7.076  0.00  0.00    +0.069 A 
ATOM     23  C   UNL     1       6.223  -0.551   8.043  0.00  0.00    +0.022 A 
ATOM     24  C   UNL     1       5.256  -1.249   8.742  0.00  0.00    +0.003 A 
ATOM     25  C   UNL     1       5.039  -2.587   8.473  0.00  0.00    +0.022 A 
ATOM     26  C   UNL     1       5.790  -3.229   7.503  0.00  0.00    +0.069 A 
ATOM     27 CL   UNL     1       5.518  -4.910   7.166  0.00  0.00    -0.081 Cl
ATOM     28 CL   UNL     1       8.195  -0.317   6.203  0.00  0.00    -0.081 Cl
ENDBRANCH  18  21
ENDBRANCH  16  18
ENDBRANCH   2  16
TORSDOF 5
