REMARK  Name = ZINC04740108
REMARK  10 active torsions:
REMARK  status: ('A' for Active; 'I' for Inactive)
REMARK    1  A    between atoms: C_1  and  C_2
REMARK    2  A    between atoms: C_2  and  C_3
REMARK    3  A    between atoms: C_3  and  C_4
REMARK    4  A    between atoms: C_11  and  N_27
REMARK    5  A    between atoms: C_12  and  C_25
REMARK    6  A    between atoms: C_13  and  C_15
REMARK    7  A    between atoms: C_18  and  O_23
REMARK    8  A    between atoms: C_20  and  O_21
REMARK    9  A    between atoms: O_21  and  C_22
REMARK   10  A    between atoms: O_23  and  C_24
REMARK                            x       y       z     vdW  Elec       q    Type
REMARK                         _______ _______ _______ _____ _____    ______ ____
ROOT
ATOM      1  C   UNL     1       0.762  -2.018   1.233  0.00  0.00    +0.071 A 
ATOM      2  C   UNL     1      -0.197  -2.849   1.795  0.00  0.00    +0.050 A 
ATOM      3  C   UNL     1       0.183  -4.144   1.575  0.00  0.00    +0.222 A 
ATOM      4  N   UNL     1       1.343  -4.117   0.900  0.00  0.00    -0.246 N 
ATOM      5  H   UNL     1       1.851  -4.889   0.606  0.00  0.00    +0.192 HD
ATOM      6  N   UNL     1       1.687  -2.773   0.689  0.00  0.00    -0.176 NA
ATOM      7  O   UNL     1      -0.548  -5.204   2.001  0.00  0.00    -0.423 OA
ATOM      8  C   UNL     1      -1.810  -4.967   2.414  0.00  0.00    +0.200 C 
ATOM      9  C   UNL     1      -2.297  -3.734   2.675  0.00  0.00    +0.098 C 
ATOM     10  C   UNL     1      -1.460  -2.486   2.532  0.00  0.00    +0.105 C 
ENDROOT
BRANCH  10  11
ATOM     11  C   UNL     1      -1.115  -1.946   3.897  0.00  0.00    +0.007 A 
ATOM     12  C   UNL     1      -0.417  -2.732   4.794  0.00  0.00    +0.012 A 
ATOM     13  C   UNL     1      -0.100  -2.240   6.045  0.00  0.00    +0.046 A 
ATOM     14  C   UNL     1      -0.482  -0.955   6.404  0.00  0.00    +0.124 A 
ATOM     15  C   UNL     1      -1.182  -0.165   5.506  0.00  0.00    +0.091 A 
ATOM     16  C   UNL     1      -1.494  -0.659   4.248  0.00  0.00    +0.128 A 
BRANCH  16  17
ATOM     17  O   UNL     1      -2.176   0.115   3.363  0.00  0.00    -0.495 OA
ATOM     18  C   UNL     1      -2.534   1.430   3.793  0.00  0.00    +0.277 C 
ENDBRANCH  16  17
BRANCH  14  19
ATOM     19  O   UNL     1      -0.170  -0.471   7.635  0.00  0.00    -0.495 OA
ATOM     20  C   UNL     1       0.553  -1.341   8.509  0.00  0.00    +0.277 C 
ENDBRANCH  14  19
ENDBRANCH  10  11
BRANCH   8  21
ATOM     21  N   UNL     1      -2.649  -6.041   2.578  0.00  0.00    -0.328 N 
ATOM     22  H   UNL     1      -2.328  -6.939   2.398  0.00  0.00    +0.145 HD
ATOM     23  H   UNL     1      -3.562  -5.902   2.873  0.00  0.00    +0.145 HD
ENDBRANCH   8  21
BRANCH   9  24
ATOM     24  C   UNL     1      -3.657  -3.606   3.103  0.00  0.00    +0.101 C 
ATOM     25  N   UNL     1      -4.737  -3.505   3.443  0.00  0.00    -0.191 NA
ENDBRANCH   9  24
BRANCH   1  26
ATOM     26  C   UNL     1       0.742  -0.511   1.242  0.00  0.00    +0.057 C 
BRANCH  26  28
ATOM     27  C   UNL     1      -0.019   1.526   0.010  0.00  0.00    +0.004 C 
ATOM     28  C   UNL     1       0.002  -0.004   0.002  0.00  0.00    +0.003 C 
ENDBRANCH  26  28
ENDBRANCH   1  26
TORSDOF 7
