REMARK  Name = ZINC51150588
REMARK  8 active torsions:
REMARK  status: ('A' for Active; 'I' for Inactive)
REMARK    1  A    between atoms: C_1  and  C_2
REMARK    2  A    between atoms: C_3  and  C_21
REMARK    3  A    between atoms: C_7  and  N_19
REMARK    4  A    between atoms: C_9  and  C_11
REMARK    5  A    between atoms: C_11  and  S_12
REMARK    6  A    between atoms: S_12  and  C_13
REMARK    7  A    between atoms: N_17  and  C_18
REMARK    8  A    between atoms: N_19  and  N_20
REMARK                            x       y       z     vdW  Elec       q    Type
REMARK                         _______ _______ _______ _____ _____    ______ ____
ROOT
ATOM      1  C   UNL     1      -1.563   1.389   0.641  0.00  0.00    +0.045 C 
ATOM      2  C   UNL     1      -1.394  -0.106   0.572  0.00  0.00    -0.028 A 
ATOM      3  C   UNL     1      -2.038  -0.819  -0.364  0.00  0.00    -0.008 A 
ATOM      4  S   UNL     1      -1.524  -2.495  -0.038  0.00  0.00    -0.074 S 
ATOM      5  C   UNL     1      -0.459  -2.193   1.347  0.00  0.00    +0.114 A 
ATOM      6  C   UNL     1      -0.527  -0.792   1.514  0.00  0.00    +0.052 A 
ATOM      7  C   UNL     1       0.255  -0.267   2.579  0.00  0.00    +0.144 A 
ATOM      8  N   UNL     1       0.978  -1.093   3.318  0.00  0.00    -0.215 NA
ATOM      9  C   UNL     1       0.998  -2.396   3.100  0.00  0.00    +0.143 A 
ATOM     10  N   UNL     1       0.285  -2.944   2.135  0.00  0.00    -0.224 NA
ATOM     11  C   UNL     1      -2.973  -0.322  -1.436  0.00  0.00    +0.052 C 
ENDROOT
BRANCH   7  12
ATOM     12  N   UNL     1       0.262   1.092   2.839  0.00  0.00    -0.267 N 
ATOM     13  H   UNL     1       0.110   1.724   2.119  0.00  0.00    +0.167 HD
BRANCH  12  14
ATOM     14  N   UNL     1       0.482   1.543   4.109  0.00  0.00    -0.255 NA
ATOM     15  H   UNL     1       1.355   1.190   4.472  0.00  0.00    +0.140 HD
ATOM     16  H   UNL     1       0.458   2.551   4.144  0.00  0.00    +0.140 HD
ENDBRANCH  12  14
ENDBRANCH   7  12
BRANCH   9  17
ATOM     17  C   UNL     1       1.844  -3.278   3.982  0.00  0.00    +0.153 C 
BRANCH  17  18
ATOM     18  S   UNL     1       0.863  -3.830   5.405  0.00  0.00    -0.078 S 
BRANCH  18  19
ATOM     19  C   UNL     1       1.978  -4.836   6.326  0.00  0.00    +0.192 A 
ATOM     20  N   UNL     1       3.228  -5.097   6.022  0.00  0.00    -0.123 NA
ATOM     21  N   UNL     1       3.744  -5.865   6.914  0.00  0.00    -0.137 NA
ATOM     22  C   UNL     1       2.862  -6.138   7.833  0.00  0.00    +0.225 A 
ATOM     23  N   UNL     1       1.707  -5.488   7.495  0.00  0.00    -0.312 N 
ATOM     24  C   UNL     1       0.441  -5.493   8.232  0.00  0.00    +0.152 C 
ENDBRANCH  18  19
ENDBRANCH  17  18
ENDBRANCH   9  17
TORSDOF 5
