REMARK  Name = ZINC43208590
REMARK  3 active torsions:
REMARK  status: ('A' for Active; 'I' for Inactive)
REMARK    1  A    between atoms: C_1  and  C_2
REMARK    2  A    between atoms: C_19  and  C_27
REMARK    3  A    between atoms: C_21  and  N_24
REMARK                            x       y       z     vdW  Elec       q    Type
REMARK                         _______ _______ _______ _____ _____    ______ ____
ROOT
ATOM      1  C   UNL     1      -0.143   1.458   0.098  0.00  0.00    +0.040 C 
ATOM      2  C   UNL     1      -0.074  -0.069   0.026  0.00  0.00    +0.144 C 
ATOM      3  C   UNL     1       0.761  -0.522  -1.198  0.00  0.00    +0.194 C 
ATOM      4  O   UNL     1       1.237  -1.819  -0.765  0.00  0.00    -0.346 OA
ATOM      5  C   UNL     1       1.480  -1.670   0.644  0.00  0.00    +0.173 C 
ATOM      6  O   UNL     1       0.664  -0.599   1.145  0.00  0.00    -0.343 OA
ATOM      7  C   UNL     1       2.957  -1.345   0.874  0.00  0.00    +0.084 C 
ATOM      8  C   UNL     1       3.819  -2.476   0.305  0.00  0.00    +0.112 C 
ATOM      9  N   UNL     1       3.378  -3.748   0.894  0.00  0.00    -0.311 N 
ATOM     10  C   UNL     1       1.959  -4.116   0.800  0.00  0.00    +0.112 C 
ATOM     11  C   UNL     1       1.114  -2.970   1.364  0.00  0.00    +0.084 C 
ATOM     12  C   UNL     1       4.273  -4.574   1.518  0.00  0.00    +0.142 A 
ATOM     13  N   UNL     1       5.588  -4.368   1.487  0.00  0.00    -0.305 N 
ATOM     14  C   UNL     1       6.515  -5.103   2.053  0.00  0.00    +0.259 A 
ATOM     15  O   UNL     1       7.654  -4.704   1.879  0.00  0.00    -0.267 OA
ATOM     16  C   UNL     1       6.415  -6.319   2.856  0.00  0.00    +0.056 A 
ATOM     17  C   UNL     1       7.550  -6.953   3.373  0.00  0.00    +0.027 A 
ATOM     18  C   UNL     1       7.412  -8.097   4.125  0.00  0.00    +0.058 A 
ATOM     19  C   UNL     1       6.163  -8.642   4.387  0.00  0.00    +0.046 A 
ATOM     20  C   UNL     1       5.024  -8.035   3.888  0.00  0.00    +0.141 A 
ATOM     21  C   UNL     1       5.155  -6.892   3.136  0.00  0.00    +0.058 A 
ATOM     22  S   UNL     1       3.773  -6.016   2.448  0.00  0.00    -0.053 S 
ATOM     23  H   UNL     1       5.892  -3.591   0.993  0.00  0.00    +0.171 HD
ENDROOT
BRANCH  18  24
ATOM     24  C   UNL     1       8.642  -8.771   4.676  0.00  0.00    +0.418 C 
ATOM     25  F   UNL     1       8.934  -8.248   5.941  0.00  0.00    -0.166 F 
ATOM     26  F   UNL     1       8.412 -10.147   4.781  0.00  0.00    -0.166 F 
ATOM     27  F   UNL     1       9.723  -8.543   3.817  0.00  0.00    -0.166 F 
ENDBRANCH  18  24
BRANCH  20  28
ATOM     28  N   UNL     1       3.687  -8.608   4.160  0.00  0.00    +0.058 N 
ATOM     29  O   UNL     1       3.583  -9.614   4.822  0.00  0.00    -0.126 OA
ATOM     30  O   UNL     1       2.698  -8.069   3.719  0.00  0.00    -0.126 OA
ENDBRANCH  20  28
TORSDOF 2
