REMARK  Name = ZINC63480602
REMARK  7 active torsions:
REMARK  status: ('A' for Active; 'I' for Inactive)
REMARK    1  A    between atoms: C_1  and  C_2
REMARK    2  A    between atoms: C_2  and  C_3
REMARK    3  A    between atoms: C_2  and  C_4
REMARK    4  A    between atoms: C_4  and  C_5
REMARK    5  A    between atoms: C_5  and  N_6
REMARK    6  A    between atoms: C_7  and  C_9
REMARK    7  A    between atoms: N_23  and  C_24
REMARK                            x       y       z     vdW  Elec       q    Type
REMARK                         _______ _______ _______ _____ _____    ______ ____
ROOT
ATOM      1  C   UNL     1      -5.674  -0.826  -2.322  0.00  0.00    +0.183 C 
ATOM      2  C   UNL     1      -6.477  -0.247  -1.180  0.00  0.00    +0.019 C 
ATOM      3  C   UNL     1      -7.579   0.322  -1.720  0.00  0.00    +0.057 C 
ATOM      4  C   UNL     1      -7.553   0.151  -3.178  0.00  0.00    +0.051 C 
ATOM      5  C   UNL     1      -8.633   0.686  -3.917  0.00  0.00    +0.018 A 
ATOM      6  C   UNL     1      -8.669   0.556  -5.315  0.00  0.00    +0.011 A 
ATOM      7  C   UNL     1      -9.716   1.076  -6.016  0.00  0.00    +0.001 A 
ATOM      8  C   UNL     1     -10.751   1.735  -5.360  0.00  0.00    +0.002 A 
ATOM      9  C   UNL     1     -10.747   1.878  -4.005  0.00  0.00    +0.024 A 
ATOM     10  C   UNL     1      -9.685   1.356  -3.245  0.00  0.00    +0.043 A 
ATOM     11  N   UNL     1      -9.692   1.502  -1.913  0.00  0.00    -0.281 N 
ATOM     12  C   UNL     1      -8.732   1.040  -1.129  0.00  0.00    +0.250 C 
ATOM     13  O   UNL     1      -8.795   1.205   0.080  0.00  0.00    -0.270 OA
ATOM     14  N   UNL     1      -6.432  -0.527  -3.544  0.00  0.00    -0.317 N 
ATOM     15  C   UNL     1      -6.048  -0.892  -4.910  0.00  0.00    +0.130 C 
ATOM     16  H   UNL     1     -10.437   1.970  -1.504  0.00  0.00    +0.155 HD
ENDROOT
BRANCH   1  18
ATOM     17  N   UNL     1      -3.459  -0.308  -1.349  0.00  0.00    -0.314 N 
ATOM     18  C   UNL     1      -4.315  -0.177  -2.382  0.00  0.00    +0.237 C 
ATOM     19  O   UNL     1      -3.991   0.463  -3.361  0.00  0.00    -0.273 OA
ATOM     20  H   UNL     1      -3.718  -0.820  -0.567  0.00  0.00    +0.149 HD
BRANCH  17  21
ATOM     21  C   UNL     1      -2.138   0.322  -1.408  0.00  0.00    +0.104 C 
BRANCH  21  22
ATOM     22  C   UNL     1      -1.372   0.021  -0.118  0.00  0.00    +0.022 C 
BRANCH  22  24
ATOM     23  C   UNL     1      -0.154   2.201  -0.208  0.00  0.00    +0.007 C 
ATOM     24  C   UNL     1       0.008   0.680  -0.180  0.00  0.00    -0.016 C 
ATOM     25  C   UNL     1       0.820   0.277   1.053  0.00  0.00    +0.007 C 
ENDBRANCH  22  24
ENDBRANCH  21  22
ENDBRANCH  17  21
ENDBRANCH   1  18
TORSDOF 4
