REMARK  Name = ZINC35030924
REMARK  9 active torsions:
REMARK  status: ('A' for Active; 'I' for Inactive)
REMARK    1  A    between atoms: C_1  and  C_2
REMARK    2  A    between atoms: C_2  and  C_3
REMARK    3  A    between atoms: C_3  and  N_4
REMARK    4  A    between atoms: N_4  and  C_5
REMARK    5  A    between atoms: N_4  and  S_21
REMARK    6  A    between atoms: C_5  and  C_7
REMARK    7  A    between atoms: C_5  and  C_8
REMARK    8  A    between atoms: N_18  and  C_19
REMARK    9  A    between atoms: S_21  and  C_24
REMARK                            x       y       z     vdW  Elec       q    Type
REMARK                         _______ _______ _______ _____ _____    ______ ____
ROOT
ATOM      1  C   UNL     1      -1.131  -2.650   0.731  0.00  0.00    +0.143 C 
ATOM      2  C   UNL     1      -2.507  -2.438   1.364  0.00  0.00    +0.034 C 
ENDROOT
BRANCH   1   3
ATOM      3  C   UNL     1      -0.059  -2.348   1.747  0.00  0.00    +0.131 A 
ATOM      4  N   UNL     1      -0.082  -1.194   2.341  0.00  0.00    -0.232 NA
ATOM      5  C   UNL     1       0.849  -0.852   3.267  0.00  0.00    +0.078 A 
ATOM      6  C   UNL     1       0.825   0.390   3.906  0.00  0.00    +0.030 A 
ATOM      7  C   UNL     1       1.789   0.695   4.839  0.00  0.00    +0.022 A 
ATOM      8  C   UNL     1       2.790  -0.217   5.154  0.00  0.00    +0.042 A 
ATOM      9  C   UNL     1       2.836  -1.448   4.535  0.00  0.00    +0.035 A 
ATOM     10  C   UNL     1       1.867  -1.776   3.588  0.00  0.00    +0.066 A 
ATOM     11  C   UNL     1       1.864  -3.074   2.897  0.00  0.00    +0.262 A 
ATOM     12  O   UNL     1       2.713  -3.916   3.128  0.00  0.00    -0.267 OA
ATOM     13  N   UNL     1       0.878  -3.299   1.998  0.00  0.00    -0.298 N 
ATOM     14  C   UNL     1       0.824  -4.577   1.284  0.00  0.00    +0.154 C 
ATOM     15 CL   UNL     1       3.993   0.198   6.334  0.00  0.00    -0.084 Cl
ENDBRANCH   1   3
BRANCH   1  16
ATOM     16  N   UNL     1      -0.979  -1.756  -0.419  0.00  0.00    -0.167 NA
BRANCH  16  17
ATOM     17  S   UNL     1      -0.896  -2.383  -1.950  0.00  0.00    +0.061 S 
ATOM     18  O   UNL     1      -1.536  -3.651  -1.905  0.00  0.00    -0.153 OA
ATOM     19  O   UNL     1      -1.310  -1.351  -2.835  0.00  0.00    -0.153 OA
BRANCH  17  20
ATOM     20  C   UNL     1       0.804  -2.690  -2.296  0.00  0.00    +0.106 A 
ATOM     21  C   UNL     1       1.581  -1.703  -2.873  0.00  0.00    +0.029 A 
ATOM     22  C   UNL     1       2.915  -1.943  -3.144  0.00  0.00    +0.017 A 
ATOM     23  C   UNL     1       3.473  -3.171  -2.838  0.00  0.00    +0.018 A 
ATOM     24  C   UNL     1       2.695  -4.159  -2.260  0.00  0.00    +0.017 A 
ATOM     25  C   UNL     1       1.363  -3.916  -1.984  0.00  0.00    +0.029 A 
ATOM     26 BR   UNL     1       5.298  -3.500  -3.209  0.00  0.00    -0.050 Br
ENDBRANCH  17  20
ENDBRANCH  16  17
BRANCH  16  27
ATOM     27  C   UNL     1      -0.900  -0.307  -0.216  0.00  0.00    +0.110 C 
BRANCH  27  29
ATOM     28  C   UNL     1       0.651   1.622   0.119  0.00  0.00    +0.005 C 
ATOM     29  C   UNL     1       0.560   0.100  -0.009  0.00  0.00    +0.014 C 
ENDBRANCH  27  29
ENDBRANCH  16  27
ENDBRANCH   1  16
TORSDOF 6
