REMARK  Name = ZINC38599318
REMARK  7 active torsions:
REMARK  status: ('A' for Active; 'I' for Inactive)
REMARK    1  A    between atoms: C_1  and  O_2
REMARK    2  A    between atoms: O_2  and  C_3
REMARK    3  A    between atoms: C_3  and  C_5
REMARK    4  A    between atoms: C_7  and  N_16
REMARK    5  A    between atoms: C_17  and  C_19
REMARK    6  A    between atoms: C_19  and  N_20
REMARK    7  A    between atoms: N_23  and  C_26
REMARK                            x       y       z     vdW  Elec       q    Type
REMARK                         _______ _______ _______ _____ _____    ______ ____
ROOT
ATOM      1  N   UNL     1       0.068  -2.520  -1.992  0.00  0.00    -0.285 N 
ATOM      2  C   UNL     1       0.146  -2.939  -3.271  0.00  0.00    +0.231 C 
ATOM      3  O   UNL     1      -0.837  -3.384  -3.825  0.00  0.00    -0.274 OA
ATOM      4  H   UNL     1       0.830  -2.088  -1.576  0.00  0.00    +0.155 HD
ENDROOT
BRANCH   1   6
ATOM      5  C   UNL     1      -2.293  -3.506  -1.703  0.00  0.00    +0.234 C 
ATOM      6  C   UNL     1      -1.083  -2.702  -1.285  0.00  0.00    +0.053 C 
ATOM      7  C   UNL     1      -1.385  -2.190  -0.035  0.00  0.00    +0.019 A 
ATOM      8  C   UNL     1      -0.659  -1.368   0.861  0.00  0.00    +0.031 A 
ATOM      9  C   UNL     1      -1.215  -1.012   2.046  0.00  0.00    +0.042 A 
ATOM     10  C   UNL     1      -2.496  -1.438   2.412  0.00  0.00    +0.022 A 
ATOM     11  C   UNL     1      -3.246  -2.225   1.605  0.00  0.00    +0.027 A 
ATOM     12  C   UNL     1      -2.734  -2.639   0.347  0.00  0.00    +0.045 A 
ATOM     13  N   UNL     1      -3.256  -3.391  -0.603  0.00  0.00    -0.367 N 
ATOM     14 CL   UNL     1      -0.314  -0.004   3.135  0.00  0.00    -0.084 Cl
ATOM     15  H   UNL     1      -4.135  -3.801  -0.579  0.00  0.00    +0.161 HD
BRANCH   5  16
ATOM     16  C   UNL     1      -1.912  -4.949  -1.909  0.00  0.00    +0.335 C 
ATOM     17  O   UNL     1      -2.018  -5.738  -1.000  0.00  0.00    -0.248 OA
BRANCH  16  19
ATOM     18  C   UNL     1      -1.112  -6.740  -3.228  0.00  0.00    +0.280 C 
ATOM     19  O   UNL     1      -1.454  -5.359  -3.103  0.00  0.00    -0.466 OA
ENDBRANCH  16  19
ENDBRANCH   5  16
ENDBRANCH   1   6
BRANCH   2  20
ATOM     20  C   UNL     1       1.456  -2.855  -4.013  0.00  0.00    +0.180 C 
BRANCH  20  21
ATOM     21  N   UNL     1       1.279  -3.369  -5.377  0.00  0.00    -0.291 NA
ATOM     22  C   UNL     1       0.969  -4.805  -5.362  0.00  0.00    +0.104 C 
ATOM     23  C   UNL     1       0.616  -5.263  -6.781  0.00  0.00    +0.120 C 
ATOM     24  N   UNL     1       1.709  -4.872  -7.684  0.00  0.00    -0.327 N 
ATOM     25  C   UNL     1       2.169  -3.475  -7.656  0.00  0.00    +0.120 C 
ATOM     26  C   UNL     1       2.461  -3.088  -6.203  0.00  0.00    +0.104 C 
BRANCH  24  27
ATOM     27  C   UNL     1       2.296  -5.804  -8.546  0.00  0.00    +0.030 A 
ATOM     28  C   UNL     1       1.921  -7.139  -8.486  0.00  0.00    +0.026 A 
ATOM     29  C   UNL     1       2.502  -8.058  -9.338  0.00  0.00    +0.040 A 
ATOM     30  C   UNL     1       3.457  -7.648 -10.252  0.00  0.00    +0.124 A 
ATOM     31  C   UNL     1       3.833  -6.316 -10.314  0.00  0.00    +0.040 A 
ATOM     32  C   UNL     1       3.251  -5.394  -9.467  0.00  0.00    +0.026 A 
ATOM     33  F   UNL     1       4.024  -8.548 -11.085  0.00  0.00    -0.205 F 
ENDBRANCH  24  27
ENDBRANCH  20  21
ENDBRANCH   2  20
TORSDOF 6
