REMARK  Name = ZINC20000144
REMARK  7 active torsions:
REMARK  status: ('A' for Active; 'I' for Inactive)
REMARK    1  A    between atoms: C_1  and  C_2
REMARK    2  A    between atoms: C_4  and  N_22
REMARK    3  A    between atoms: C_6  and  S_9
REMARK    4  A    between atoms: C_7  and  C_8
REMARK    5  A    between atoms: S_9  and  N_12
REMARK    6  A    between atoms: C_13  and  C_21
REMARK    7  A    between atoms: C_18  and  C_20
REMARK                            x       y       z     vdW  Elec       q    Type
REMARK                         _______ _______ _______ _____ _____    ______ ____
ROOT
ATOM      1  C   UNL     1      -4.989   2.044  -4.798  0.00  0.00    +0.044 C 
ATOM      2  C   UNL     1      -4.100   3.224  -4.501  0.00  0.00    -0.044 A 
ATOM      3  C   UNL     1      -4.555   4.507  -4.737  0.00  0.00    +0.026 A 
ATOM      4  C   UNL     1      -3.735   5.594  -4.462  0.00  0.00    +0.027 A 
ATOM      5  C   UNL     1      -2.462   5.387  -3.947  0.00  0.00    +0.051 A 
ATOM      6  C   UNL     1      -2.011   4.102  -3.719  0.00  0.00    +0.110 A 
ATOM      7  C   UNL     1      -2.830   3.022  -3.993  0.00  0.00    -0.021 A 
ATOM      8  C   UNL     1      -2.337   1.621  -3.738  0.00  0.00    +0.046 C 
ENDROOT
BRANCH   6   9
ATOM      9  S   UNL     1      -0.393   3.838  -3.072  0.00  0.00    +0.062 S 
ATOM     10  O   UNL     1       0.211   5.119  -2.955  0.00  0.00    -0.153 OA
ATOM     11  O   UNL     1       0.185   2.790  -3.838  0.00  0.00    -0.153 OA
BRANCH   9  12
ATOM     12  N   UNL     1      -0.571   3.256  -1.532  0.00  0.00    -0.171 NA
ATOM     13  C   UNL     1      -0.836   4.169  -0.412  0.00  0.00    +0.077 C 
ATOM     14  C   UNL     1      -2.088   3.691   0.329  0.00  0.00    +0.020 C 
ATOM     15  C   UNL     1      -1.905   2.228   0.741  0.00  0.00    +0.003 C 
ATOM     16  C   UNL     1      -1.723   1.363  -0.509  0.00  0.00    +0.020 C 
ATOM     17  C   UNL     1      -0.466   1.816  -1.260  0.00  0.00    +0.077 C 
ATOM     18  C   UNL     1       0.770   1.545  -0.400  0.00  0.00    +0.026 C 
ATOM     19  C   UNL     1      -1.066   5.584  -0.948  0.00  0.00    +0.026 C 
ENDBRANCH   9  12
ENDBRANCH   6   9
BRANCH   4  20
ATOM     20  N   UNL     1      -4.192   6.892  -4.699  0.00  0.00    -0.358 N 
ATOM     21  H   UNL     1      -3.542   7.753  -4.481  0.00  0.00    +0.142 HD
ATOM     22  H   UNL     1      -5.202   7.055  -5.103  0.00  0.00    +0.142 HD
ENDBRANCH   4  20
TORSDOF 3
