REMARK  Name = ZINC22196013
REMARK  9 active torsions:
REMARK  status: ('A' for Active; 'I' for Inactive)
REMARK    1  A    between atoms: C_1  and  C_2
REMARK    2  A    between atoms: N_5  and  S_8
REMARK    3  A    between atoms: S_8  and  C_11
REMARK    4  A    between atoms: C_14  and  N_20
REMARK    5  A    between atoms: C_15  and  N_17
REMARK    6  A    between atoms: N_23  and  C_26
REMARK    7  A    between atoms: C_26  and  C_28
REMARK    8  A    between atoms: C_26  and  C_29
REMARK    9  A    between atoms: N_31  and  C_32
REMARK                            x       y       z     vdW  Elec       q    Type
REMARK                         _______ _______ _______ _____ _____    ______ ____
ROOT
ATOM      1  C   UNL     1       3.737   7.370  -6.059  0.00  0.00    +0.108 A 
ATOM      2  C   UNL     1       4.961   6.763  -5.843  0.00  0.00    +0.030 A 
ATOM      3  C   UNL     1       5.239   5.540  -6.421  0.00  0.00    +0.027 A 
ATOM      4  C   UNL     1       4.291   4.925  -7.229  0.00  0.00    +0.060 A 
ATOM      5  C   UNL     1       3.065   5.540  -7.449  0.00  0.00    +0.149 A 
ATOM      6  C   UNL     1       2.792   6.761  -6.864  0.00  0.00    +0.063 A 
ENDROOT
BRANCH   4   7
ATOM      7  N   UNL     1       4.570   3.690  -7.819  0.00  0.00    -0.332 N 
ATOM      8  C   UNL     1       4.758   2.649  -6.799  0.00  0.00    +0.086 C 
ATOM      9  C   UNL     1       4.982   1.300  -7.486  0.00  0.00    -0.059 C 
ATOM     10  N   UNL     1       6.157   1.390  -8.364  0.00  0.00    +0.389 N 
ATOM     11  C   UNL     1       5.969   2.430  -9.385  0.00  0.00    -0.059 C 
ATOM     12  C   UNL     1       5.745   3.780  -8.698  0.00  0.00    +0.086 C 
ATOM     13  H   UNL     1       7.022   1.671  -7.747  0.00  0.00    -0.081 HD
BRANCH  10  14
ATOM     14  C   UNL     1       6.451   0.091  -8.985  0.00  0.00    +0.016 C 
ATOM     15  C   UNL     1       6.412  -1.005  -7.918  0.00  0.00    -0.004 C 
BRANCH  14  16
ATOM     16  C   UNL     1       5.421  -0.204 -10.045  0.00  0.00    +0.199 C 
ATOM     17  O   UNL     1       4.300   0.249  -9.944  0.00  0.00    -0.278 OA
ATOM     18  N   UNL     1       5.745  -0.970 -11.105  0.00  0.00    -0.314 N 
ATOM     19  H   UNL     1       6.761  -1.381 -11.196  0.00  0.00    +0.149 HD
BRANCH  18  20
ATOM     20  C   UNL     1       4.744  -1.257 -12.135  0.00  0.00    +0.073 C 
ATOM     21  C   UNL     1       4.653  -2.694 -12.652  0.00  0.00    +0.024 C 
ATOM     22  C   UNL     1       5.251  -1.598 -13.538  0.00  0.00    +0.024 C 
ENDBRANCH  18  20
ENDBRANCH  14  16
ENDBRANCH  10  14
ENDBRANCH   4   7
BRANCH   1  23
ATOM     23  S   UNL     1       3.385   8.928  -5.315  0.00  0.00    +0.061 S 
ATOM     24  O   UNL     1       2.386   9.544  -6.116  0.00  0.00    -0.153 OA
ATOM     25  O   UNL     1       4.637   9.545  -5.051  0.00  0.00    -0.153 OA
BRANCH  23  30
ATOM     26  C   UNL     1       1.337   5.771  -0.988  0.00  0.00    +0.007 C 
ATOM     27  C   UNL     1       1.673   7.084  -1.698  0.00  0.00    -0.012 C 
ATOM     28  C   UNL     1       0.920   7.152  -3.028  0.00  0.00    +0.020 C 
ATOM     29  C   UNL     1       1.231   8.482  -3.720  0.00  0.00    +0.110 C 
ATOM     30  N   UNL     1       2.689   8.621  -3.844  0.00  0.00    -0.177 NA
ATOM     31  C   UNL     1       3.517   8.482  -2.638  0.00  0.00    +0.110 C 
ATOM     32  C   UNL     1       3.180   7.151  -1.959  0.00  0.00    +0.020 C 
ENDBRANCH  23  30
ENDBRANCH   1  23
BRANCH   5  33
ATOM     33  N   UNL     1       2.053   4.888  -8.309  0.00  0.00    +0.058 N 
ATOM     34  O   UNL     1       0.978   5.427  -8.501  0.00  0.00    -0.126 OA
ATOM     35  O   UNL     1       2.294   3.811  -8.825  0.00  0.00    -0.126 OA
ENDBRANCH   5  33
TORSDOF 7
