REMARK  Name = ZINC09973637
REMARK  10 active torsions:
REMARK  status: ('A' for Active; 'I' for Inactive)
REMARK    1  A    between atoms: C_1  and  C_2
REMARK    2  A    between atoms: C_5  and  N_8
REMARK    3  A    between atoms: C_9  and  C_11
REMARK    4  A    between atoms: C_11  and  S_12
REMARK    5  A    between atoms: S_12  and  C_13
REMARK    6  A    between atoms: C_13  and  N_25
REMARK    7  A    between atoms: N_17  and  C_24
REMARK    8  A    between atoms: N_20  and  C_23
REMARK    9  A    between atoms: N_25  and  C_26
REMARK   10  A    between atoms: C_29  and  C_32
REMARK                            x       y       z     vdW  Elec       q    Type
REMARK                         _______ _______ _______ _____ _____    ______ ____
ROOT
ATOM      1  C   UNL     1       3.908  -6.591  -0.274  0.00  0.00    +0.083 C 
ATOM      2  C   UNL     1       4.877  -7.549   0.059  0.00  0.00    +0.127 C 
ATOM      3  C   UNL     1       4.527  -8.919   0.209  0.00  0.00    +0.261 C 
ATOM      4  O   UNL     1       3.377  -9.284   0.050  0.00  0.00    -0.269 OA
ATOM      5  N   UNL     1       5.490  -9.808   0.526  0.00  0.00    -0.224 N 
ATOM      6  C   UNL     1       6.761  -9.413   0.710  0.00  0.00    +0.317 C 
ATOM      7  O   UNL     1       7.600 -10.243   1.000  0.00  0.00    -0.252 OA
ATOM      8  N   UNL     1       7.132  -8.128   0.583  0.00  0.00    -0.224 N 
ATOM      9  C   UNL     1       6.233  -7.176   0.263  0.00  0.00    +0.261 C 
ATOM     10  O   UNL     1       6.578  -6.014   0.150  0.00  0.00    -0.269 OA
ATOM     11  C   UNL     1       8.533  -7.757   0.795  0.00  0.00    +0.143 C 
ATOM     12  C   UNL     1       5.144 -11.223   0.678  0.00  0.00    +0.143 C 
ENDROOT
BRANCH   1  13
ATOM     13  N   UNL     1       2.653  -6.987  -0.636  0.00  0.00    -0.309 N 
ATOM     14  H   UNL     1       1.977  -7.135   0.044  0.00  0.00    +0.153 HD
BRANCH  13  15
ATOM     15  C   UNL     1       2.343  -7.179  -1.985  0.00  0.00    +0.032 A 
ATOM     16  C   UNL     1       3.315  -6.986  -2.958  0.00  0.00    +0.023 A 
ATOM     17  C   UNL     1       3.006  -7.181  -4.290  0.00  0.00    +0.005 A 
ATOM     18  C   UNL     1       1.727  -7.559  -4.656  0.00  0.00    -0.050 A 
ATOM     19  C   UNL     1       0.755  -7.748  -3.691  0.00  0.00    +0.005 A 
ATOM     20  C   UNL     1       1.059  -7.559  -2.357  0.00  0.00    +0.023 A 
ATOM     21  C   UNL     1       1.392  -7.765  -6.111  0.00  0.00    +0.044 C 
ENDBRANCH  13  15
ENDBRANCH   1  13
BRANCH   1  22
ATOM     22  S   UNL     1       4.301  -4.926  -0.228  0.00  0.00    -0.100 S 
BRANCH  22  23
ATOM     23  C   UNL     1       2.680  -4.211  -0.598  0.00  0.00    +0.171 C 
BRANCH  23  25
ATOM     24  N   UNL     1       1.658  -1.960  -0.692  0.00  0.00    -0.285 N 
ATOM     25  C   UNL     1       2.770  -2.707  -0.544  0.00  0.00    +0.227 C 
ATOM     26  O   UNL     1       3.842  -2.170  -0.369  0.00  0.00    -0.275 OA
ATOM     27  H   UNL     1       0.797  -2.390  -0.819  0.00  0.00    +0.155 HD
BRANCH  24  32
ATOM     28  C   UNL     1       2.007   3.701  -0.568  0.00  0.00    +0.044 C 
ATOM     29  C   UNL     1       1.914   2.197  -0.601  0.00  0.00    -0.050 A 
ATOM     30  C   UNL     1       0.961   1.582  -1.392  0.00  0.00    +0.005 A 
ATOM     31  C   UNL     1       0.874   0.204  -1.424  0.00  0.00    +0.023 A 
ATOM     32  C   UNL     1       1.744  -0.564  -0.662  0.00  0.00    +0.033 A 
ATOM     33  C   UNL     1       2.700   0.057   0.131  0.00  0.00    +0.023 A 
ATOM     34  C   UNL     1       2.783   1.436   0.159  0.00  0.00    +0.005 A 
ENDBRANCH  24  32
ENDBRANCH  23  25
ENDBRANCH  22  23
ENDBRANCH   1  22
TORSDOF 6
