REMARK  Name = ZINC15026788
REMARK  8 active torsions:
REMARK  status: ('A' for Active; 'I' for Inactive)
REMARK    1  A    between atoms: C_1  and  C_2
REMARK    2  A    between atoms: C_2  and  C_4
REMARK    3  A    between atoms: C_2  and  N_53
REMARK    4  A    between atoms: C_7  and  N_10
REMARK    5  A    between atoms: C_15  and  N_53
REMARK    6  A    between atoms: C_16  and  C_17
REMARK    7  A    between atoms: C_16  and  N_53
REMARK    8  A    between atoms: N_22  and  C_23
REMARK                            x       y       z     vdW  Elec       q    Type
REMARK                         _______ _______ _______ _____ _____    ______ ____
ROOT
ATOM      1  C   UNL     1       8.335  -3.109   4.609  0.00  0.00    +0.019 C 
ENDROOT
BRANCH   1   2
ATOM      2  C   UNL     1       7.030  -3.138   3.856  0.00  0.00    +0.204 C 
ATOM      3  O   UNL     1       6.306  -4.108   3.934  0.00  0.00    -0.277 OA
ATOM      4  N   UNL     1       6.666  -2.086   3.096  0.00  0.00    -0.241 N 
ATOM      5  C   UNL     1       5.499  -2.112   2.422  0.00  0.00    +0.310 C 
ATOM      6  O   UNL     1       4.774  -3.084   2.501  0.00  0.00    -0.252 OA
ATOM      7  N   UNL     1       5.136  -1.060   1.663  0.00  0.00    -0.269 N 
ATOM      8  H   UNL     1       7.245  -1.310   3.033  0.00  0.00    +0.159 HD
ATOM      9  H   UNL     1       5.747  -0.316   1.539  0.00  0.00    +0.156 HD
BRANCH   7  10
ATOM     10  C   UNL     1       3.876  -1.040   1.050  0.00  0.00    +0.038 A 
ATOM     11  C   UNL     1       2.789  -1.634   1.678  0.00  0.00    +0.027 A 
ATOM     12  C   UNL     1       1.546  -1.615   1.075  0.00  0.00    +0.051 A 
ATOM     13  C   UNL     1       1.379  -1.003  -0.156  0.00  0.00    +0.166 A 
ATOM     14  C   UNL     1       2.467  -0.405  -0.788  0.00  0.00    +0.168 A 
ATOM     15  C   UNL     1       3.713  -0.425  -0.184  0.00  0.00    +0.073 A 
ATOM     16  O   UNL     1       2.047   0.122  -1.975  0.00  0.00    -0.453 OA
ATOM     17  C   UNL     1       0.613   0.200  -1.875  0.00  0.00    +0.466 C 
ATOM     18  O   UNL     1       0.277  -0.850  -0.948  0.00  0.00    -0.453 OA
ENDBRANCH   7  10
ENDBRANCH   1   2
BRANCH   1  20
ATOM     19  C   UNL     1       8.646  -5.504   4.442  0.00  0.00    -0.095 C 
ATOM     20  N   UNL     1       8.474  -4.367   5.371  0.00  0.00    +0.388 N 
ATOM     21  H   UNL     1       7.623  -4.516   5.926  0.00  0.00    -0.081 HD
BRANCH  20  23
ATOM     22  C   UNL     1       9.766  -5.599   7.047  0.00  0.00    -0.008 C 
ATOM     23  C   UNL     1       9.633  -4.280   6.283  0.00  0.00    -0.041 C 
BRANCH  23  24
ATOM     24  C   UNL     1       9.403  -3.155   7.259  0.00  0.00    -0.061 A 
ATOM     25  C   UNL     1       8.172  -3.016   7.874  0.00  0.00    +0.004 A 
ATOM     26  C   UNL     1       7.960  -1.989   8.773  0.00  0.00    +0.028 A 
ATOM     27  C   UNL     1       8.980  -1.090   9.051  0.00  0.00    +0.067 A 
ATOM     28  C   UNL     1      10.213  -1.229   8.428  0.00  0.00    +0.028 A 
ATOM     29  C   UNL     1      10.421  -2.261   7.535  0.00  0.00    +0.004 A 
BRANCH  27  30
ATOM     30  N   UNL     1       8.766  -0.043   9.959  0.00  0.00    -0.220 N 
ATOM     31  C   UNL     1       7.630   0.222  10.633  0.00  0.00    +0.225 A 
ATOM     32  N   UNL     1       7.838   1.277  11.378  0.00  0.00    -0.222 NA
ATOM     33  C   UNL     1       9.084   1.717  11.203  0.00  0.00    +0.245 A 
ATOM     34  N   UNL     1       9.691   0.941  10.343  0.00  0.00    -0.154 NA
ENDBRANCH  27  30
ENDBRANCH  23  24
ENDBRANCH  20  23
ENDBRANCH   1  20
TORSDOF 6
