REMARK  Name = ZINC09389874
REMARK  11 active torsions:
REMARK  status: ('A' for Active; 'I' for Inactive)
REMARK    1  A    between atoms: C_1  and  C_2
REMARK    2  A    between atoms: C_2  and  C_3
REMARK    3  A    between atoms: C_2  and  C_4
REMARK    4  A    between atoms: C_2  and  O_5
REMARK    5  A    between atoms: O_5  and  C_6
REMARK    6  A    between atoms: C_13  and  C_14
REMARK    7  A    between atoms: C_13  and  N_63
REMARK    8  A    between atoms: N_16  and  C_17
REMARK    9  A    between atoms: C_17  and  C_18
REMARK   10  A    between atoms: C_18  and  N_19
REMARK   11  A    between atoms: C_23  and  C_24
REMARK                            x       y       z     vdW  Elec       q    Type
REMARK                         _______ _______ _______ _____ _____    ______ ____
ROOT
ATOM      1  C   UNL     1      -3.650  -2.235  -1.994  0.00  0.00    +0.196 C 
ATOM      2  O   UNL     1      -3.136  -2.042  -3.076  0.00  0.00    -0.278 OA
ATOM      3  N   UNL     1      -3.046  -1.791  -0.874  0.00  0.00    -0.315 N 
ATOM      4  H   UNL     1      -3.457  -1.945  -0.009  0.00  0.00    +0.149 HD
ENDROOT
BRANCH   1   5
ATOM      5  C   UNL     1      -4.962  -2.970  -1.903  0.00  0.00    +0.019 C 
BRANCH   5  13
ATOM      6  C   UNL     1      -8.145  -3.498  -6.266  0.00  0.00    +0.403 C 
ATOM      7  O   UNL     1      -8.999  -4.362  -6.243  0.00  0.00    -0.226 OA
ATOM      8  N   UNL     1      -7.051  -3.610  -5.486  0.00  0.00    -0.271 N 
ATOM      9  C   UNL     1      -6.871  -4.771  -4.601  0.00  0.00    +0.092 C 
ATOM     10  C   UNL     1      -6.553  -4.264  -3.191  0.00  0.00    -0.059 C 
ATOM     11  C   UNL     1      -5.721  -2.155  -4.052  0.00  0.00    -0.059 C 
ATOM     12  C   UNL     1      -6.006  -2.576  -5.498  0.00  0.00    +0.092 C 
ATOM     13  N   UNL     1      -5.384  -3.360  -3.264  0.00  0.00    +0.387 N 
ATOM     14  H   UNL     1      -4.610  -3.853  -3.725  0.00  0.00    -0.081 HD
BRANCH   6  15
ATOM     15  O   UNL     1      -8.292  -2.428  -7.069  0.00  0.00    -0.445 OA
BRANCH  15  17
ATOM     16  C   UNL     1     -10.725  -2.375  -6.971  0.00  0.00    +0.055 C 
ATOM     17  C   UNL     1      -9.495  -2.373  -7.881  0.00  0.00    +0.107 C 
ATOM     18  C   UNL     1      -9.485  -1.094  -8.721  0.00  0.00    +0.055 C 
ATOM     19  C   UNL     1      -9.542  -3.590  -8.806  0.00  0.00    +0.055 C 
ENDBRANCH  15  17
ENDBRANCH   6  15
ENDBRANCH   5  13
ENDBRANCH   1   5
BRANCH   3  20
ATOM     20  C   UNL     1      -1.771  -1.076  -0.963  0.00  0.00    +0.123 C 
BRANCH  20  21
ATOM     21  C   UNL     1      -1.306  -0.685   0.442  0.00  0.00    +0.136 C 
BRANCH  21  22
ATOM     22  N   UNL     1      -0.031   0.030   0.353  0.00  0.00    -0.227 N 
ATOM     23  C   UNL     1      -0.035   1.346   0.223  0.00  0.00    +0.260 C 
ATOM     24  O   UNL     1      -1.073   1.980   0.171  0.00  0.00    -0.269 OA
ATOM     25  C   UNL     1       1.283   2.007   0.139  0.00  0.00    +0.080 C 
ATOM     26  C   UNL     1       1.583   3.323   0.004  0.00  0.00    +0.031 C 
ATOM     27  S   UNL     1       2.373   0.596   0.262  0.00  0.00    -0.026 S 
ATOM     28  C   UNL     1       1.121  -0.669   0.405  0.00  0.00    +0.286 C 
ATOM     29  O   UNL     1       1.272  -1.870   0.520  0.00  0.00    -0.262 OA
BRANCH  26  30
ATOM     30  C   UNL     1       2.978   3.772   0.104  0.00  0.00    +0.011 A 
ATOM     31  C   UNL     1       3.941   2.951   0.702  0.00  0.00    +0.011 A 
ATOM     32  C   UNL     1       5.249   3.377   0.787  0.00  0.00    +0.001 A 
ATOM     33  C   UNL     1       5.611   4.619   0.294  0.00  0.00    +0.003 A 
ATOM     34  C   UNL     1       4.667   5.442  -0.294  0.00  0.00    +0.039 A 
ATOM     35  C   UNL     1       3.352   5.029  -0.393  0.00  0.00    +0.131 A 
ATOM     36  F   UNL     1       2.430   5.833  -0.966  0.00  0.00    -0.205 F 
ENDBRANCH  26  30
ENDBRANCH  21  22
ENDBRANCH  20  21
ENDBRANCH   3  20
TORSDOF 8
