REMARK  Name = ZINC09586707
REMARK  12 active torsions:
REMARK  status: ('A' for Active; 'I' for Inactive)
REMARK    1  A    between atoms: C_1  and  C_2
REMARK    2  A    between atoms: C_2  and  O_3
REMARK    3  A    between atoms: O_3  and  C_4
REMARK    4  A    between atoms: C_6  and  C_18
REMARK    5  A    between atoms: C_9  and  O_10
REMARK    6  A    between atoms: O_10  and  C_11
REMARK    7  A    between atoms: C_11  and  C_13
REMARK    8  A    between atoms: C_22  and  C_24
REMARK    9  A    between atoms: C_29  and  O_30
REMARK   10  A    between atoms: O_30  and  C_31
REMARK   11  A    between atoms: C_31  and  C_33
REMARK   12  A    between atoms: C_35  and  C_37
REMARK                            x       y       z     vdW  Elec       q    Type
REMARK                         _______ _______ _______ _____ _____    ______ ____
ROOT
ATOM      1  C   UNL     1      -0.608   1.764   3.871  0.00  0.00    +0.320 C 
ATOM      2  N   UNL     1      -0.069   1.381   2.554  0.00  0.00    -0.146 N 
ATOM      3  N   UNL     1       1.011   0.529   2.828  0.00  0.00    -0.135 NA
ATOM      4  C   UNL     1       1.150   0.377   4.105  0.00  0.00    +0.243 C 
ATOM      5  O   UNL     1       0.228   1.072   4.809  0.00  0.00    -0.447 OA
ATOM      6  C   UNL     1      -0.516   1.772   1.342  0.00  0.00    +0.235 C 
ATOM      7  O   UNL     1      -1.468   2.519   1.259  0.00  0.00    -0.274 OA
ATOM      8  C   UNL     1       0.169   1.280   0.093  0.00  0.00    +0.111 C 
ENDROOT
BRANCH   4   9
ATOM      9  C   UNL     1       2.197  -0.462   4.724  0.00  0.00    +0.082 A 
ATOM     10  C   UNL     1       2.277  -0.572   6.113  0.00  0.00    +0.037 A 
ATOM     11  C   UNL     1       3.257  -1.357   6.685  0.00  0.00    +0.042 A 
ATOM     12  C   UNL     1       4.162  -2.036   5.886  0.00  0.00    +0.023 A 
ATOM     13  C   UNL     1       4.093  -1.934   4.510  0.00  0.00    +0.048 A 
ATOM     14  C   UNL     1       3.110  -1.155   3.920  0.00  0.00    +0.144 A 
ATOM     15 CL   UNL     1       3.356  -1.495   8.413  0.00  0.00    -0.084 Cl
BRANCH  14  16
ATOM     16  O   UNL     1       3.038  -1.058   2.567  0.00  0.00    -0.425 OA
BRANCH  16  17
ATOM     17  C   UNL     1       3.685  -0.032   1.993  0.00  0.00    +0.309 C 
ATOM     18  O   UNL     1       4.218   0.807   2.681  0.00  0.00    -0.251 OA
ATOM     19  C   UNL     1       3.748   0.075   0.491  0.00  0.00    +0.136 C 
ENDBRANCH  16  17
ENDBRANCH  14  16
ENDBRANCH   4   9
BRANCH   1  22
ATOM     20  C   UNL     1      -1.341   5.282   5.038  0.00  0.00    +0.163 A 
ATOM     21  C   UNL     1      -1.437   3.912   4.851  0.00  0.00    +0.058 A 
ATOM     22  C   UNL     1      -0.506   3.255   4.069  0.00  0.00    +0.017 A 
ATOM     23  C   UNL     1       0.516   3.963   3.463  0.00  0.00    +0.013 A 
ATOM     24  C   UNL     1       0.614   5.330   3.641  0.00  0.00    +0.050 A 
ATOM     25  C   UNL     1      -0.313   5.994   4.428  0.00  0.00    +0.173 A 
BRANCH  20  26
ATOM     26  O   UNL     1      -2.253   5.929   5.812  0.00  0.00    -0.489 OA
BRANCH  26  28
ATOM     27  C   UNL     1      -4.205   6.029   7.233  0.00  0.00    +0.048 C 
ATOM     28  C   UNL     1      -3.281   5.133   6.406  0.00  0.00    +0.226 C 
ENDBRANCH  26  28
ENDBRANCH  20  26
BRANCH  25  29
ATOM     29  O   UNL     1      -0.218   7.339   4.605  0.00  0.00    -0.416 OA
BRANCH  29  30
ATOM     30  C   UNL     1       0.348   7.768   5.752  0.00  0.00    +0.380 C 
ATOM     31  O   UNL     1       0.830   6.966   6.529  0.00  0.00    -0.241 OA
BRANCH  30  32
ATOM     32  C   UNL     1       0.381   9.199   6.062  0.00  0.00    +0.212 A 
ATOM     33  C   UNL     1       0.920   9.765   7.182  0.00  0.00    +0.056 A 
ATOM     34  C   UNL     1       0.733  11.151   7.064  0.00  0.00    +0.042 A 
ATOM     35  C   UNL     1       0.095  11.367   5.892  0.00  0.00    +0.196 A 
ATOM     36  O   UNL     1      -0.109  10.189   5.288  0.00  0.00    -0.456 OA
ENDBRANCH  30  32
ENDBRANCH  29  30
ENDBRANCH  25  29
ENDBRANCH   1  22
TORSDOF 9
