REMARK  Name = ZINC43641774
REMARK  5 active torsions:
REMARK  status: ('A' for Active; 'I' for Inactive)
REMARK    1  A    between atoms: C_1  and  C_2
REMARK    2  A    between atoms: C_5  and  C_7
REMARK    3  A    between atoms: C_7  and  N_8
REMARK    4  A    between atoms: C_17  and  C_19
REMARK    5  A    between atoms: C_19  and  N_20
REMARK                            x       y       z     vdW  Elec       q    Type
REMARK                         _______ _______ _______ _____ _____    ______ ____
ROOT
ATOM      1  N   UNL     1       1.983  -3.620  -1.407  0.00  0.00    -0.321 N 
ATOM      2  C   UNL     1       2.829  -4.676  -1.668  0.00  0.00    +0.130 A 
ATOM      3  C   UNL     1       3.135  -5.051  -2.999  0.00  0.00    +0.040 A 
ATOM      4  C   UNL     1       2.603  -4.377  -4.104  0.00  0.00    +0.013 A 
ATOM      5  C   UNL     1       2.935  -4.784  -5.362  0.00  0.00    +0.001 A 
ATOM      6  C   UNL     1       3.795  -5.860  -5.563  0.00  0.00    +0.002 A 
ATOM      7  C   UNL     1       4.330  -6.537  -4.508  0.00  0.00    +0.028 A 
ATOM      8  C   UNL     1       4.011  -6.146  -3.200  0.00  0.00    +0.076 A 
ATOM      9  N   UNL     1       4.510  -6.778  -2.128  0.00  0.00    -0.234 NA
ATOM     10  C   UNL     1       4.191  -6.387  -0.917  0.00  0.00    +0.115 A 
ATOM     11  N   UNL     1       3.382  -5.367  -0.680  0.00  0.00    -0.219 NA
ATOM     12  H   UNL     1       1.586  -3.124  -2.140  0.00  0.00    +0.148 HD
ENDROOT
BRANCH   1  13
ATOM     13  C   UNL     1       1.684  -3.245  -0.023  0.00  0.00    +0.177 C 
BRANCH  13  18
ATOM     14  C   UNL     1      -0.018   1.503   0.010  0.00  0.00    +0.086 C 
ATOM     15  C   UNL     1       0.002  -0.004   0.002  0.00  0.00    +0.102 A 
ATOM     16  C   UNL     1      -1.078  -0.805   0.003  0.00  0.00    +0.045 A 
ATOM     17  C   UNL     1      -0.601  -2.136  -0.007  0.00  0.00    +0.046 A 
ATOM     18  C   UNL     1       0.742  -2.069  -0.013  0.00  0.00    +0.122 A 
ATOM     19  O   UNL     1       1.102  -0.775  -0.013  0.00  0.00    -0.463 OA
ENDBRANCH  13  18
ENDBRANCH   1  13
BRANCH  10  20
ATOM     20  C   UNL     1       4.777  -7.128   0.257  0.00  0.00    -0.001 C 
BRANCH  20  21
ATOM     21  N   UNL     1       6.050  -6.505   0.644  0.00  0.00    +0.385 N 
ATOM     22  C   UNL     1       6.555  -7.144   1.862  0.00  0.00    -0.073 C 
ATOM     23  C   UNL     1       7.876  -6.530   2.299  0.00  0.00    -0.007 C 
ATOM     24  C   UNL     1       8.909  -6.610   1.171  0.00  0.00    +0.011 C 
ATOM     25  C   UNL     1       8.306  -5.912  -0.054  0.00  0.00    +0.020 C 
ATOM     26  C   UNL     1       7.024  -6.666  -0.445  0.00  0.00    -0.069 C 
ATOM     27  C   UNL     1       7.920  -4.499   0.321  0.00  0.00    +0.023 A 
ATOM     28  C   UNL     1       7.940  -3.561  -0.662  0.00  0.00    +0.022 A 
ATOM     29  C   UNL     1       7.533  -2.248  -0.399  0.00  0.00    +0.007 A 
ATOM     30  C   UNL     1       7.093  -1.933   0.854  0.00  0.00    +0.070 A 
ATOM     31  C   UNL     1       7.082  -2.925   1.843  0.00  0.00    +0.251 A 
ATOM     32  O   UNL     1       6.633  -2.671   2.949  0.00  0.00    -0.268 OA
ATOM     33  N   UNL     1       7.566  -4.165   1.584  0.00  0.00    -0.312 N 
ATOM     34  C   UNL     1       7.712  -5.077   2.715  0.00  0.00    +0.126 C 
ATOM     35  H   UNL     1       5.902  -5.522   0.819  0.00  0.00    -0.081 HD
ENDBRANCH  20  21
ENDBRANCH  10  20
TORSDOF 4
