REMARK  Name = ZINC15929185
REMARK  7 active torsions:
REMARK  status: ('A' for Active; 'I' for Inactive)
REMARK    1  A    between atoms: C_1  and  C_2
REMARK    2  A    between atoms: C_5  and  N_31
REMARK    3  A    between atoms: C_7  and  S_8
REMARK    4  A    between atoms: S_8  and  N_11
REMARK    5  A    between atoms: C_17  and  C_19
REMARK    6  A    between atoms: C_20  and  C_21
REMARK    7  A    between atoms: C_25  and  C_27
REMARK                            x       y       z     vdW  Elec       q    Type
REMARK                         _______ _______ _______ _____ _____    ______ ____
ROOT
ATOM      1  N   UNL     1      -7.133   0.969  -0.826  0.00  0.00    -0.174 NA
ATOM      2  C   UNL     1      -7.102  -0.501  -0.837  0.00  0.00    +0.128 C 
ATOM      3  C   UNL     1      -6.154  -0.979   0.270  0.00  0.00    +0.125 C 
ATOM      4  N   UNL     1      -4.888  -0.243   0.155  0.00  0.00    -0.295 N 
ATOM      5  C   UNL     1      -4.918   1.226   0.172  0.00  0.00    +0.125 C 
ATOM      6  C   UNL     1      -5.866   1.705  -0.941  0.00  0.00    +0.128 C 
ATOM      7  C   UNL     1      -3.718  -0.903   0.041  0.00  0.00    +0.240 C 
ATOM      8  O   UNL     1      -3.712  -2.116  -0.062  0.00  0.00    -0.271 OA
ENDROOT
BRANCH   1   9
ATOM      9  S   UNL     1      -8.570   1.780  -0.684  0.00  0.00    +0.061 S 
ATOM     10  O   UNL     1      -8.402   3.023  -1.353  0.00  0.00    -0.153 OA
ATOM     11  O   UNL     1      -9.593   0.858  -1.036  0.00  0.00    -0.153 OA
BRANCH   9  18
ATOM     12  C   UNL     1      -9.132  -0.290   1.448  0.00  0.00    +0.046 C 
ATOM     13  C   UNL     1      -9.045   1.137   1.925  0.00  0.00    -0.024 A 
ATOM     14  C   UNL     1      -9.220   1.430   3.265  0.00  0.00    +0.007 A 
ATOM     15  C   UNL     1      -9.140   2.738   3.703  0.00  0.00    +0.033 A 
ATOM     16  C   UNL     1      -8.886   3.755   2.800  0.00  0.00    +0.128 A 
ATOM     17  C   UNL     1      -8.708   3.462   1.462  0.00  0.00    +0.061 A 
ATOM     18  C   UNL     1      -8.792   2.153   1.023  0.00  0.00    +0.111 A 
BRANCH  16  19
ATOM     19  N   UNL     1      -8.800   5.156   3.269  0.00  0.00    +0.056 N 
ATOM     20  O   UNL     1      -8.954   5.414   4.450  0.00  0.00    -0.126 OA
ATOM     21  O   UNL     1      -8.576   6.051   2.474  0.00  0.00    -0.126 OA
ENDBRANCH  16  19
ENDBRANCH   9  18
ENDBRANCH   1   9
BRANCH   7  22
ATOM     22  C   UNL     1      -2.456  -0.162   0.040  0.00  0.00    +0.068 C 
ATOM     23  C   UNL     1      -1.283  -0.827   0.028  0.00  0.00    +0.013 C 
BRANCH  23  24
ATOM     24  C   UNL     1      -0.014  -0.082   0.028  0.00  0.00    -0.024 A 
ATOM     25  C   UNL     1      -0.020   1.317   0.040  0.00  0.00    +0.008 A 
ATOM     26  C   UNL     1       1.173   2.008   0.039  0.00  0.00    +0.001 A 
ATOM     27  C   UNL     1       2.375   1.321   0.026  0.00  0.00    +0.012 A 
ATOM     28  C   UNL     1       2.389  -0.062   0.014  0.00  0.00    +0.055 A 
ATOM     29  C   UNL     1       1.204  -0.768   0.015  0.00  0.00    +0.020 A 
BRANCH  28  30
ATOM     30  C   UNL     1       3.703  -0.800  -0.001  0.00  0.00    +0.417 C 
ATOM     31  F   UNL     1       4.102  -1.017  -1.324  0.00  0.00    -0.166 F 
ATOM     32  F   UNL     1       4.673  -0.039   0.660  0.00  0.00    -0.166 F 
ATOM     33  F   UNL     1       3.554  -2.031   0.648  0.00  0.00    -0.166 F 
ENDBRANCH  28  30
ENDBRANCH  23  24
ENDBRANCH   7  22
TORSDOF 6
