REMARK  Name = ZINC32721500
REMARK  3 active torsions:
REMARK  status: ('A' for Active; 'I' for Inactive)
REMARK    1  A    between atoms: C_1  and  C_2
REMARK    2  A    between atoms: C_5  and  C_7
REMARK    3  A    between atoms: N_9  and  C_10
REMARK                            x       y       z     vdW  Elec       q    Type
REMARK                         _______ _______ _______ _____ _____    ______ ____
ROOT
ATOM      1  C   UNL     1      -1.136  -2.159   0.001  0.00  0.00    +0.079 C 
ATOM      2  C   UNL     1      -1.017  -2.659  -1.440  0.00  0.00    +0.010 C 
ATOM      3  C   UNL     1      -2.213  -2.161  -2.253  0.00  0.00    +0.009 C 
ATOM      4  C   UNL     1      -3.508  -2.692  -1.634  0.00  0.00    -0.010 C 
ATOM      5  C   UNL     1      -3.487  -4.222  -1.642  0.00  0.00    +0.007 C 
ATOM      6  C   UNL     1      -2.291  -4.720  -0.829  0.00  0.00    -0.010 C 
ATOM      7  C   UNL     1      -0.996  -4.189  -1.448  0.00  0.00    +0.009 C 
ATOM      8  C   UNL     1      -2.410  -4.220   0.612  0.00  0.00    +0.009 C 
ATOM      9  C   UNL     1      -2.430  -2.690   0.621  0.00  0.00    +0.010 C 
ATOM     10  C   UNL     1      -3.627  -2.191  -0.193  0.00  0.00    +0.009 C 
ENDROOT
BRANCH   1  13
ATOM     11  C   UNL     1       0.002  -0.004   0.002  0.00  0.00    +0.217 C 
ATOM     12  O   UNL     1       1.060  -0.596  -0.011  0.00  0.00    -0.275 OA
ATOM     13  N   UNL     1      -1.156  -0.694   0.009  0.00  0.00    -0.312 N 
ATOM     14  H   UNL     1      -2.116  -0.157   0.021  0.00  0.00    +0.149 HD
BRANCH  11  18
ATOM     15  C   UNL     1       1.432   3.537   0.786  0.00  0.00    +0.008 C 
ATOM     16  C   UNL     1       1.329   2.228   0.001  0.00  0.00    -0.002 C 
ATOM     17  C   UNL     1       0.455   2.223  -1.254  0.00  0.00    +0.017 C 
ATOM     18  C   UNL     1      -0.018   1.503   0.010  0.00  0.00    +0.078 C 
ENDBRANCH  11  18
ENDBRANCH   1  13
TORSDOF 2
