REMARK  Name = ZINC23147971
REMARK  9 active torsions:
REMARK  status: ('A' for Active; 'I' for Inactive)
REMARK    1  A    between atoms: C_4  and  C_7
REMARK    2  A    between atoms: C_7  and  N_8
REMARK    3  A    between atoms: N_8  and  S_9
REMARK    4  A    between atoms: S_9  and  C_12
REMARK    5  A    between atoms: C_16  and  C_18
REMARK    6  A    between atoms: N_20  and  N_21
REMARK    7  A    between atoms: C_22  and  C_24
REMARK    8  A    between atoms: C_24  and  C_25
REMARK    9  A    between atoms: C_25  and  C_26
REMARK                            x       y       z     vdW  Elec       q    Type
REMARK                         _______ _______ _______ _____ _____    ______ ____
ROOT
ATOM      1  C   UNL     1      -4.859   0.834   0.029  0.00  0.00    +0.106 A 
ATOM      2  C   UNL     1      -4.837  -0.550   0.021  0.00  0.00    +0.028 A 
ATOM      3  C   UNL     1      -3.631  -1.228   0.012  0.00  0.00    +0.003 A 
ATOM      4  C   UNL     1      -2.442  -0.528   0.005  0.00  0.00    +0.013 A 
ATOM      5  C   UNL     1      -2.458   0.867   0.018  0.00  0.00    +0.040 A 
ATOM      6  C   UNL     1      -3.678   1.546   0.028  0.00  0.00    +0.041 A 
ENDROOT
BRANCH   5   7
ATOM      7  C   UNL     1      -1.187   1.624   0.017  0.00  0.00    +0.260 C 
ATOM      8  O   UNL     1      -1.204   2.839   0.023  0.00  0.00    -0.269 OA
ATOM      9  N   UNL     1      -0.011   0.966   0.007  0.00  0.00    -0.230 N 
ATOM     10  H   UNL     1       0.004  -0.134   0.006  0.00  0.00    +0.173 HD
BRANCH   9  11
ATOM     11  N   UNL     1       1.193   1.683  -0.000  0.00  0.00    -0.234 N 
ATOM     12  C   UNL     1       2.369   1.025  -0.015  0.00  0.00    +0.229 C 
ATOM     13  O   UNL     1       2.385  -0.188  -0.022  0.00  0.00    -0.274 OA
ATOM     14  H   UNL     1       1.178   2.783   0.006  0.00  0.00    +0.173 HD
BRANCH  12  15
ATOM     15  C   UNL     1       3.663   1.796  -0.023  0.00  0.00    +0.102 C 
BRANCH  15  16
ATOM     16  C   UNL     1       4.840   0.818  -0.040  0.00  0.00    +0.051 C 
BRANCH  16  17
ATOM     17  C   UNL     1       6.134   1.589  -0.048  0.00  0.00    -0.010 A 
ATOM     18  C   UNL     1       6.875   2.025   1.000  0.00  0.00    +0.011 A 
ATOM     19  C   UNL     1       8.045   2.718   0.752  0.00  0.00    +0.008 A 
ATOM     20  C   UNL     1       8.411   2.951  -0.532  0.00  0.00    +0.045 A 
ATOM     21  S   UNL     1       7.087   2.172  -1.441  0.00  0.00    -0.102 S 
ENDBRANCH  16  17
ENDBRANCH  15  16
ENDBRANCH  12  15
ENDBRANCH   9  11
ENDBRANCH   5   7
BRANCH   1  22
ATOM     22  S   UNL     1      -6.400   1.688   0.041  0.00  0.00    +0.059 S 
ATOM     23  O   UNL     1      -7.357   0.793   0.591  0.00  0.00    -0.153 OA
ATOM     24  O   UNL     1      -6.149   2.971   0.597  0.00  0.00    -0.153 OA
BRANCH  22  25
ATOM     25  N   UNL     1      -6.835   1.934  -1.538  0.00  0.00    -0.186 NA
ATOM     26  H   UNL     1      -6.735   2.940  -1.973  0.00  0.00    +0.148 HD
BRANCH  25  27
ATOM     27  C   UNL     1      -7.138   0.790  -2.401  0.00  0.00    +0.141 C 
BRANCH  27  31
ATOM     28  C   UNL     1      -9.150   2.150  -5.916  0.00  0.00    +0.000 A 
ATOM     29  C   UNL     1      -7.770   2.066  -5.898  0.00  0.00    +0.000 A 
ATOM     30  C   UNL     1      -7.119   1.626  -4.761  0.00  0.00    +0.005 A 
ATOM     31  C   UNL     1      -7.848   1.270  -3.641  0.00  0.00    -0.032 A 
ATOM     32  C   UNL     1      -9.228   1.348  -3.661  0.00  0.00    +0.005 A 
ATOM     33  C   UNL     1      -9.878   1.793  -4.796  0.00  0.00    +0.000 A 
ENDBRANCH  27  31
ENDBRANCH  25  27
ENDBRANCH  22  25
ENDBRANCH   1  22
TORSDOF 9
