REMARK  Name = ZINC27052760
REMARK  6 active torsions:
REMARK  status: ('A' for Active; 'I' for Inactive)
REMARK    1  A    between atoms: C_12  and  N_13
REMARK    2  A    between atoms: N_13  and  C_14
REMARK    3  A    between atoms: C_14  and  C_15
REMARK    4  A    between atoms: C_15  and  C_16
REMARK    5  A    between atoms: C_19  and  S_22
REMARK    6  A    between atoms: S_22  and  N_25
REMARK                            x       y       z     vdW  Elec       q    Type
REMARK                         _______ _______ _______ _____ _____    ______ ____
ROOT
ATOM      1  N   UNL     1      -0.721   1.571  -1.179  0.00  0.00    -0.349 N 
ATOM      2  H   UNL     1      -1.745   1.226  -1.388  0.00  0.00    +0.146 HD
ENDROOT
BRANCH   1  14
ATOM      3  C   UNL     1      -1.131   5.530  -7.163  0.00  0.00    +0.001 A 
ATOM      4  C   UNL     1      -2.425   5.054  -7.369  0.00  0.00    +0.002 A 
ATOM      5  C   UNL     1      -2.998   4.177  -6.500  0.00  0.00    +0.024 A 
ATOM      6  C   UNL     1      -2.280   3.739  -5.374  0.00  0.00    +0.041 A 
ATOM      7  C   UNL     1      -0.964   4.224  -5.166  0.00  0.00    -0.003 A 
ATOM      8  C   UNL     1      -0.404   5.129  -6.084  0.00  0.00    +0.010 A 
ATOM      9  C   UNL     1      -0.241   3.789  -4.042  0.00  0.00    +0.024 C 
ATOM     10  C   UNL     1      -0.856   2.893  -3.176  0.00  0.00    +0.051 C 
ATOM     11  C   UNL     1      -2.169   2.451  -3.453  0.00  0.00    +0.249 C 
ATOM     12  N   UNL     1      -2.825   2.877  -4.508  0.00  0.00    -0.281 N 
ATOM     13  O   UNL     1      -2.764   1.573  -2.611  0.00  0.00    -0.270 OA
ATOM     14  C   UNL     1      -0.143   2.405  -1.982  0.00  0.00    +0.080 C 
ATOM     15  H   UNL     1      -3.848   2.507  -4.670  0.00  0.00    +0.155 HD
ENDBRANCH   1  14
BRANCH   1  16
ATOM     16  C   UNL     1      -0.013   1.086   0.008  0.00  0.00    +0.105 C 
BRANCH  16  17
ATOM     17  C   UNL     1      -0.729   1.579   1.267  0.00  0.00    +0.054 C 
BRANCH  17  18
ATOM     18  C   UNL     1       0.000   1.080   2.488  0.00  0.00    -0.046 A 
ATOM     19  C   UNL     1      -0.347  -0.133   3.052  0.00  0.00    +0.005 A 
ATOM     20  C   UNL     1       0.324  -0.593   4.170  0.00  0.00    +0.029 A 
ATOM     21  C   UNL     1       1.337   0.164   4.728  0.00  0.00    +0.105 A 
ATOM     22  C   UNL     1       1.681   1.380   4.166  0.00  0.00    +0.029 A 
ATOM     23  C   UNL     1       1.012   1.838   3.046  0.00  0.00    +0.005 A 
BRANCH  21  24
ATOM     24  S   UNL     1       2.190  -0.420   6.154  0.00  0.00    +0.056 S 
ATOM     25  O   UNL     1       2.048  -1.834   6.162  0.00  0.00    -0.153 OA
ATOM     26  O   UNL     1       3.459   0.218   6.158  0.00  0.00    -0.153 OA
BRANCH  24  27
ATOM     27  N   UNL     1       1.372   0.145   7.479  0.00  0.00    -0.204 NA
ATOM     28  H   UNL     1       1.875  -0.200   8.395  0.00  0.00    +0.144 HD
ATOM     29  H   UNL     1       0.340  -0.236   7.463  0.00  0.00    +0.144 HD
ENDBRANCH  24  27
ENDBRANCH  21  24
ENDBRANCH  17  18
ENDBRANCH  16  17
ENDBRANCH   1  16
TORSDOF 6
