REMARK  Name = ZINC20171788
REMARK  9 active torsions:
REMARK  status: ('A' for Active; 'I' for Inactive)
REMARK    1  A    between atoms: C_1  and  C_2
REMARK    2  A    between atoms: C_2  and  O_3
REMARK    3  A    between atoms: O_3  and  C_4
REMARK    4  A    between atoms: C_4  and  C_6
REMARK    5  A    between atoms: C_7  and  N_19
REMARK    6  A    between atoms: C_20  and  C_22
REMARK    7  A    between atoms: C_22  and  N_23
REMARK    8  A    between atoms: C_25  and  C_32
REMARK    9  A    between atoms: C_28  and  C_31
REMARK                            x       y       z     vdW  Elec       q    Type
REMARK                         _______ _______ _______ _____ _____    ______ ____
ROOT
ATOM      1  C   UNL     1      -0.302   2.825   0.901  0.00  0.00    +0.147 A 
ATOM      2  C   UNL     1       0.706   3.106   0.001  0.00  0.00    +0.073 A 
ATOM      3  C   UNL     1       0.746   1.990  -0.946  0.00  0.00    +0.025 A 
ATOM      4  C   UNL     1       1.539   1.707  -2.064  0.00  0.00    +0.061 A 
ATOM      5  C   UNL     1       1.332   0.545  -2.773  0.00  0.00    +0.167 A 
ATOM      6  C   UNL     1       0.333  -0.353  -2.378  0.00  0.00    +0.168 A 
ATOM      7  C   UNL     1      -0.454  -0.082  -1.276  0.00  0.00    +0.075 A 
ATOM      8  C   UNL     1      -0.256   1.086  -0.546  0.00  0.00    +0.053 A 
ATOM      9  N   UNL     1      -0.880   1.609   0.565  0.00  0.00    -0.347 N 
ATOM     10  H   UNL     1      -1.710   1.210   1.166  0.00  0.00    +0.166 HD
ATOM     11  O   UNL     1       0.338  -1.412  -3.240  0.00  0.00    -0.453 OA
ATOM     12  C   UNL     1       1.063  -0.963  -4.399  0.00  0.00    +0.466 C 
ATOM     13  O   UNL     1       1.955   0.041  -3.880  0.00  0.00    -0.453 OA
ENDROOT
BRANCH   2  14
ATOM     14  N   UNL     1       1.525   4.231  -0.006  0.00  0.00    -0.282 N 
ATOM     15  C   UNL     1       2.802   4.132  -0.424  0.00  0.00    +0.231 C 
ATOM     16  O   UNL     1       3.213   3.085  -0.876  0.00  0.00    -0.274 OA
ATOM     17  H   UNL     1       1.129   5.201   0.329  0.00  0.00    +0.155 HD
BRANCH  15  18
ATOM     18  C   UNL     1       3.720   5.324  -0.329  0.00  0.00    +0.181 C 
BRANCH  18  19
ATOM     19  N   UNL     1       5.047   4.962  -0.844  0.00  0.00    -0.289 NA
ATOM     20  C   UNL     1       5.693   3.962   0.019  0.00  0.00    +0.116 C 
ATOM     21  C   UNL     1       7.044   3.570  -0.585  0.00  0.00    +0.130 C 
ATOM     22  O   UNL     1       7.846   4.742  -0.748  0.00  0.00    -0.371 OA
ATOM     23  C   UNL     1       7.248   5.737  -1.584  0.00  0.00    +0.130 C 
ATOM     24  C   UNL     1       5.899   6.151  -0.990  0.00  0.00    +0.116 C 
ATOM     25  C   UNL     1       7.034   5.165  -2.987  0.00  0.00    +0.039 C 
ATOM     26  C   UNL     1       7.756   2.589   0.349  0.00  0.00    +0.039 C 
ENDBRANCH  18  19
ENDBRANCH  15  18
ENDBRANCH   2  14
BRANCH   1  27
ATOM     27  C   UNL     1      -0.684   3.645   1.992  0.00  0.00    +0.358 C 
ATOM     28  O   UNL     1      -0.042   4.645   2.255  0.00  0.00    -0.243 OA
BRANCH  27  29
ATOM     29  O   UNL     1      -1.759   3.317   2.739  0.00  0.00    -0.460 OA
BRANCH  29  31
ATOM     30  C   UNL     1      -3.325   3.658   4.548  0.00  0.00    +0.048 C 
ATOM     31  C   UNL     1      -2.087   4.189   3.822  0.00  0.00    +0.229 C 
ENDBRANCH  29  31
ENDBRANCH  27  29
ENDBRANCH   1  27
TORSDOF 6
