REMARK  Name = ZINC16031224
REMARK  4 active torsions:
REMARK  status: ('A' for Active; 'I' for Inactive)
REMARK    1  A    between atoms: C_1  and  C_2
REMARK    2  A    between atoms: C_6  and  N_9
REMARK    3  A    between atoms: C_7  and  C_8
REMARK    4  A    between atoms: C_10  and  C_12
REMARK                            x       y       z     vdW  Elec       q    Type
REMARK                         _______ _______ _______ _____ _____    ______ ____
ROOT
ATOM      1  N   UNL     1       3.982   1.703  -2.835  0.00  0.00    -0.285 N 
ATOM      2  C   UNL     1       3.324   1.992  -1.695  0.00  0.00    +0.221 C 
ATOM      3  O   UNL     1       3.851   2.685  -0.850  0.00  0.00    -0.275 OA
ATOM      4  H   UNL     1       3.595   1.085  -3.475  0.00  0.00    +0.155 HD
ENDROOT
BRANCH   1  10
ATOM      5  C   UNL     1       8.336   1.575  -5.116  0.00  0.00    +0.044 C 
ATOM      6  C   UNL     1       7.353   2.254  -4.197  0.00  0.00    -0.046 A 
ATOM      7  C   UNL     1       7.678   3.463  -3.611  0.00  0.00    +0.004 A 
ATOM      8  C   UNL     1       6.779   4.090  -2.767  0.00  0.00    +0.002 A 
ATOM      9  C   UNL     1       5.553   3.509  -2.508  0.00  0.00    +0.023 A 
ATOM     10  C   UNL     1       5.224   2.294  -3.095  0.00  0.00    +0.037 A 
ATOM     11  C   UNL     1       6.131   1.665  -3.937  0.00  0.00    -0.026 A 
ATOM     12  C   UNL     1       5.780   0.344  -4.572  0.00  0.00    +0.046 C 
ENDBRANCH   1  10
BRANCH   2  13
ATOM     13  C   UNL     1       1.934   1.455  -1.470  0.00  0.00    +0.083 C 
ATOM     14  C   UNL     1       1.944  -0.093  -1.459  0.00  0.00    +0.021 C 
ATOM     15  C   UNL     1       1.439  -0.456  -0.026  0.00  0.00    +0.013 C 
ATOM     16  C   UNL     1       2.100   0.685   0.829  0.00  0.00    +0.016 C 
ATOM     17  C   UNL     1       1.425   1.831  -0.010  0.00  0.00    +0.024 C 
ATOM     18  C   UNL     1      -0.027   1.337  -0.004  0.00  0.00    -0.027 C 
ATOM     19  C   UNL     1      -0.019   0.019  -0.014  0.00  0.00    -0.027 C 
ENDBRANCH   2  13
TORSDOF 2
