REMARK  Name = ZINC39854928
REMARK  3 active torsions:
REMARK  status: ('A' for Active; 'I' for Inactive)
REMARK    1  A    between atoms: C_1  and  C_2
REMARK    2  A    between atoms: C_2  and  C_23
REMARK    3  A    between atoms: C_7  and  C_20
REMARK                            x       y       z     vdW  Elec       q    Type
REMARK                         _______ _______ _______ _____ _____    ______ ____
ROOT
ATOM      1  C   UNL     1      -0.019   1.526   0.010  0.00  0.00    +0.013 C 
ATOM      2  C   UNL     1       0.002  -0.004   0.002  0.00  0.00    -0.007 C 
ATOM      3  C   UNL     1      -1.391  -0.623   0.390  0.00  0.00    +0.047 C 
ATOM      4  C   UNL     1      -1.577  -0.021   1.819  0.00  0.00    +0.012 C 
ATOM      5  C   UNL     1      -0.145   0.007   2.404  0.00  0.00    +0.024 C 
ATOM      6  C   UNL     1       0.750  -0.599   1.252  0.00  0.00    +0.096 C 
ATOM      7  C   UNL     1       0.322  -2.064   1.145  0.00  0.00    +0.079 A 
ATOM      8  C   UNL     1      -0.981  -2.079   0.621  0.00  0.00    +0.068 A 
ATOM      9  N   UNL     1      -1.609  -3.208   0.420  0.00  0.00    -0.248 NA
ATOM     10  C   UNL     1      -1.000  -4.363   0.716  0.00  0.00    +0.091 A 
ATOM     11  C   UNL     1      -1.647  -5.595   0.511  0.00  0.00    +0.051 A 
ATOM     12  C   UNL     1      -1.003  -6.754   0.818  0.00  0.00    +0.061 A 
ATOM     13  C   UNL     1       0.294  -6.740   1.336  0.00  0.00    +0.061 A 
ATOM     14  C   UNL     1       0.950  -5.565   1.549  0.00  0.00    +0.051 A 
ATOM     15  C   UNL     1       0.316  -4.348   1.243  0.00  0.00    +0.091 A 
ATOM     16  N   UNL     1       0.937  -3.179   1.443  0.00  0.00    -0.247 NA
ATOM     17 CL   UNL     1       1.081  -8.240   1.715  0.00  0.00    -0.082 Cl
ATOM     18 CL   UNL     1      -1.805  -8.272   0.563  0.00  0.00    -0.082 Cl
ATOM     19  C   UNL     1       0.541  -0.561  -1.317  0.00  0.00    +0.013 C 
ENDROOT
BRANCH   6  20
ATOM     20  C   UNL     1       2.229  -0.326   1.344  0.00  0.00    +0.223 C 
ATOM     21  O   UNL     1       2.781   0.323   0.481  0.00  0.00    -0.275 OA
ATOM     22  N   UNL     1       2.938  -0.802   2.387  0.00  0.00    -0.329 N 
ATOM     23  H   UNL     1       2.496  -1.321   3.077  0.00  0.00    +0.145 HD
ATOM     24  H   UNL     1       3.890  -0.627   2.446  0.00  0.00    +0.145 HD
ENDBRANCH   6  20
TORSDOF 1
