REMARK  Name = ZINC19318881
REMARK  4 active torsions:
REMARK  status: ('A' for Active; 'I' for Inactive)
REMARK    1  A    between atoms: C_9  and  C_11
REMARK    2  A    between atoms: C_11  and  C_24
REMARK    3  A    between atoms: C_12  and  N_13
REMARK    4  A    between atoms: N_13  and  C_14
REMARK                            x       y       z     vdW  Elec       q    Type
REMARK                         _______ _______ _______ _____ _____    ______ ____
ROOT
ATOM      1  C   UNL     1       5.925   0.756  -0.052  0.00  0.00    +0.089 C 
ATOM      2  C   UNL     1       6.603   1.959  -0.052  0.00  0.00    +0.084 C 
ENDROOT
BRANCH   1  11
ATOM      3  C   UNL     1      -0.017   1.383   0.010  0.00  0.00    +0.024 A 
ATOM      4  C   UNL     1       1.163   2.099   0.002  0.00  0.00    +0.050 A 
ATOM      5  C   UNL     1       2.377   1.431  -0.013  0.00  0.00    +0.156 A 
ATOM      6  C   UNL     1       2.401   0.027  -0.021  0.00  0.00    +0.111 A 
ATOM      7  C   UNL     1       1.201  -0.685  -0.012  0.00  0.00    +0.051 A 
ATOM      8  C   UNL     1       0.002  -0.004   0.002  0.00  0.00    +0.043 A 
ATOM      9 CL   UNL     1      -1.492  -0.887   0.012  0.00  0.00    -0.083 Cl
ATOM     10  N   UNL     1       3.710  -0.340  -0.036  0.00  0.00    -0.209 NA
ATOM     11  C   UNL     1       4.451   0.741  -0.037  0.00  0.00    +0.233 A 
ATOM     12  O   UNL     1       3.667   1.837  -0.024  0.00  0.00    -0.435 OA
ENDBRANCH   1  11
BRANCH   2  13
ATOM     13  N   UNL     1       7.954   1.973  -0.066  0.00  0.00    -0.340 N 
ATOM     14  H   UNL     1       8.447   1.138  -0.075  0.00  0.00    +0.146 HD
BRANCH  13  15
ATOM     15  C   UNL     1       8.674   3.249  -0.066  0.00  0.00    +0.070 C 
ATOM     16  C   UNL     1       8.303   4.069  -1.310  0.00  0.00    +0.115 C 
ATOM     17  N   UNL     1       9.055   5.334  -1.276  0.00  0.00    -0.275 NA
ATOM     18  C   UNL     1      10.503   5.069  -1.301  0.00  0.00    +0.173 C 
ATOM     19  N   UNL     1      10.871   4.310  -0.095  0.00  0.00    -0.275 NA
ATOM     20  C   UNL     1      10.189   3.006  -0.082  0.00  0.00    +0.115 C 
ATOM     21  C   UNL     1      10.530   5.078   1.114  0.00  0.00    +0.173 C 
ATOM     22  N   UNL     1       9.082   5.343   1.120  0.00  0.00    -0.275 NA
ATOM     23  C   UNL     1       8.327   4.056   1.193  0.00  0.00    +0.115 C 
ATOM     24  C   UNL     1       8.700   6.110  -0.077  0.00  0.00    +0.173 C 
ENDBRANCH  13  15
ENDBRANCH   2  13
BRANCH   1  25
ATOM     25  C   UNL     1       6.644  -0.462  -0.065  0.00  0.00    +0.265 C 
ATOM     26  O   UNL     1       6.048  -1.520  -0.065  0.00  0.00    -0.295 OA
ENDBRANCH   1  25
TORSDOF 4
