REMARK  Name = ZINC18204219
REMARK  10 active torsions:
REMARK  status: ('A' for Active; 'I' for Inactive)
REMARK    1  A    between atoms: C_1  and  O_2
REMARK    2  A    between atoms: O_2  and  C_3
REMARK    3  A    between atoms: C_6  and  C_11
REMARK    4  A    between atoms: C_8  and  O_9
REMARK    5  A    between atoms: O_9  and  C_10
REMARK    6  A    between atoms: C_12  and  C_13
REMARK    7  A    between atoms: C_13  and  C_15
REMARK    8  A    between atoms: N_19  and  C_22
REMARK    9  A    between atoms: C_22  and  C_23
REMARK   10  A    between atoms: C_23  and  C_24
REMARK                            x       y       z     vdW  Elec       q    Type
REMARK                         _______ _______ _______ _____ _____    ______ ____
ROOT
ATOM      1  C   UNL     1       4.510  -1.647   7.399  0.00  0.00    +0.150 A 
ATOM      2  C   UNL     1       5.250  -2.255   8.415  0.00  0.00    +0.269 A 
ATOM      3  N   UNL     1       5.888  -1.469   9.331  0.00  0.00    -0.274 N 
ATOM      4  C   UNL     1       5.817  -0.130   9.271  0.00  0.00    +0.332 A 
ATOM      5  N   UNL     1       5.121   0.510   8.318  0.00  0.00    -0.260 N 
ATOM      6  C   UNL     1       4.461  -0.181   7.365  0.00  0.00    +0.271 A 
ATOM      7  O   UNL     1       3.835   0.400   6.498  0.00  0.00    -0.267 OA
ATOM      8  O   UNL     1       6.404   0.526  10.110  0.00  0.00    -0.246 OA
ATOM      9  O   UNL     1       5.332  -3.596   8.492  0.00  0.00    -0.267 OA
ATOM     10  H   UNL     1       6.403  -1.887  10.039  0.00  0.00    +0.173 HD
ENDROOT
BRANCH   1  11
ATOM     11  C   UNL     1       3.807  -2.450   6.391  0.00  0.00    +0.197 C 
ATOM     12  O   UNL     1       3.775  -3.664   6.494  0.00  0.00    -0.287 OA
BRANCH  11  14
ATOM     13  C   UNL     1       2.586  -2.535   4.283  0.00  0.00    +0.012 C 
ATOM     14  C   UNL     1       3.143  -1.793   5.264  0.00  0.00    +0.052 C 
BRANCH  13  18
ATOM     15  C   UNL     1       0.665  -0.624   1.016  0.00  0.00    +0.162 A 
ATOM     16  C   UNL     1       1.238   0.138   2.025  0.00  0.00    +0.050 A 
ATOM     17  C   UNL     1       1.862  -0.478   3.088  0.00  0.00    +0.012 A 
ATOM     18  C   UNL     1       1.920  -1.875   3.151  0.00  0.00    -0.021 A 
ATOM     19  C   UNL     1       1.342  -2.642   2.133  0.00  0.00    +0.057 A 
ATOM     20  C   UNL     1       0.713  -2.016   1.074  0.00  0.00    +0.162 A 
BRANCH  15  22
ATOM     21  C   UNL     1       0.037   1.418  -0.026  0.00  0.00    +0.277 C 
ATOM     22  O   UNL     1       0.050  -0.011  -0.029  0.00  0.00    -0.491 OA
ENDBRANCH  15  22
BRANCH  20  23
ATOM     23  O   UNL     1       0.145  -2.758   0.086  0.00  0.00    -0.491 OA
ATOM     24  C   UNL     1       0.232  -4.179   0.210  0.00  0.00    +0.277 C 
ENDBRANCH  20  23
ENDBRANCH  13  18
ENDBRANCH  11  14
ENDBRANCH   1  11
BRANCH   5  25
ATOM     25  C   UNL     1       5.082   1.974   8.308  0.00  0.00    +0.134 C 
BRANCH  25  26
ATOM     26  C   UNL     1       6.242   2.510   7.466  0.00  0.00    +0.052 C 
BRANCH  26  27
ATOM     27  C   UNL     1       6.202   4.016   7.456  0.00  0.00    -0.072 C 
ATOM     28  C   UNL     1       6.934   4.648   8.317  0.00  0.00    -0.028 C 
ATOM     29  C   UNL     1       6.991   6.143   8.435  0.00  0.00    +0.027 C 
ATOM     30  C   UNL     1       6.429   6.794   7.169  0.00  0.00    +0.004 C 
ATOM     31  C   UNL     1       5.075   6.147   6.851  0.00  0.00    +0.005 C 
ATOM     32  C   UNL     1       5.322   4.690   6.445  0.00  0.00    +0.030 C 
ENDBRANCH  26  27
ENDBRANCH  25  26
ENDBRANCH   5  25
TORSDOF 8
