REMARK  Name = ZINC00381509
REMARK  5 active torsions:
REMARK  status: ('A' for Active; 'I' for Inactive)
REMARK    1  A    between atoms: C_1  and  C_2
REMARK    2  A    between atoms: C_4  and  C_8
REMARK    3  A    between atoms: C_5  and  C_7
REMARK    4  A    between atoms: N_10  and  N_11
REMARK    5  A    between atoms: C_12  and  C_13
REMARK                            x       y       z     vdW  Elec       q    Type
REMARK                         _______ _______ _______ _____ _____    ______ ____
ROOT
ATOM      1  N   UNL     1      -3.465  -4.539  -0.005  0.00  0.00    -0.187 NA
ATOM      2  C   UNL     1      -4.763  -4.481   0.002  0.00  0.00    +0.140 C 
ENDROOT
BRANCH   2   3
ATOM      3  C   UNL     1      -5.555  -5.722  -0.001  0.00  0.00    +0.020 A 
ATOM      4  C   UNL     1      -6.911  -5.820  -0.000  0.00  0.00    +0.093 A 
ATOM      5  N   UNL     1      -7.277  -7.133  -0.004  0.00  0.00    -0.360 N 
ATOM      6  H   UNL     1      -8.192  -7.454  -0.005  0.00  0.00    +0.165 HD
ATOM      7  C   UNL     1      -6.159  -7.940  -0.006  0.00  0.00    +0.047 A 
ATOM      8  C   UNL     1      -5.033  -7.100  -0.010  0.00  0.00    +0.008 A 
ATOM      9  C   UNL     1      -3.752  -7.649  -0.018  0.00  0.00    +0.010 A 
ATOM     10  C   UNL     1      -3.597  -9.017  -0.026  0.00  0.00    +0.001 A 
ATOM     11  C   UNL     1      -4.708  -9.848  -0.026  0.00  0.00    +0.002 A 
ATOM     12  C   UNL     1      -5.980  -9.320  -0.010  0.00  0.00    +0.026 A 
ENDBRANCH   2   3
BRANCH   1  15
ATOM     13  C   UNL     1      -1.365  -3.418  -0.009  0.00  0.00    +0.267 C 
ATOM     14  O   UNL     1      -0.804  -4.498  -0.018  0.00  0.00    -0.268 OA
ATOM     15  N   UNL     1      -2.711  -3.358  -0.003  0.00  0.00    -0.203 N 
ATOM     16  H   UNL     1      -3.158  -2.497   0.004  0.00  0.00    +0.178 HD
BRANCH  13  20
ATOM     17  C   UNL     1      -0.018   1.503   0.010  0.00  0.00    +0.086 C 
ATOM     18  C   UNL     1       0.002  -0.004   0.002  0.00  0.00    +0.103 A 
ATOM     19  C   UNL     1      -1.081  -0.797   0.003  0.00  0.00    +0.057 A 
ATOM     20  C   UNL     1      -0.572  -2.176  -0.007  0.00  0.00    +0.079 A 
ATOM     21  C   UNL     1       0.788  -2.066  -0.013  0.00  0.00    +0.114 A 
ATOM     22  O   UNL     1       1.106  -0.767  -0.013  0.00  0.00    -0.464 OA
ATOM     23  C   UNL     1       1.766  -3.213  -0.024  0.00  0.00    +0.087 C 
ENDBRANCH  13  20
ENDBRANCH   1  15
TORSDOF 3
