REMARK  Name = ZINC09356567
REMARK  15 active torsions:
REMARK  status: ('A' for Active; 'I' for Inactive)
REMARK    1  A    between atoms: C_1  and  C_2
REMARK    2  A    between atoms: C_2  and  C_3
REMARK    3  A    between atoms: C_3  and  C_4
REMARK    4  A    between atoms: C_4  and  N_75
REMARK    5  A    between atoms: C_5  and  C_6
REMARK    6  A    between atoms: C_5  and  N_75
REMARK    7  A    between atoms: C_6  and  C_7
REMARK    8  A    between atoms: C_7  and  C_8
REMARK    9  A    between atoms: C_9  and  C_10
REMARK   10  A    between atoms: C_9  and  N_75
REMARK   11  A    between atoms: C_10  and  C_11
REMARK   12  A    between atoms: C_11  and  N_77
REMARK   13  A    between atoms: C_12  and  C_13
REMARK   14  A    between atoms: C_12  and  N_77
REMARK   15  A    between atoms: C_20  and  C_33
REMARK                            x       y       z     vdW  Elec       q    Type
REMARK                         _______ _______ _______ _____ _____    ______ ____
ROOT
ATOM      1  C   UNL     1      -1.360  -0.118   4.727  0.00  0.00    -0.068 C 
ENDROOT
BRANCH   1   2
ATOM      2  C   UNL     1      -2.287   0.269   5.874  0.00  0.00    +0.087 C 
ATOM      3  C   UNL     1      -1.940  -0.416   7.197  0.00  0.00    +0.042 C 
ATOM      4  C   UNL     1      -0.494  -0.717   7.430  0.00  0.00    +0.014 C 
ATOM      5  C   UNL     1       0.026  -2.040   6.884  0.00  0.00    +0.030 C 
ATOM      6  C   UNL     1      -0.934  -3.175   7.244  0.00  0.00    -0.023 C 
ATOM      7  C   UNL     1      -1.028  -3.331   8.757  0.00  0.00    +0.007 C 
ATOM      8  C   UNL     1       0.330  -3.676   9.362  0.00  0.00    +0.003 C 
ATOM      9  C   UNL     1       1.351  -2.584   9.043  0.00  0.00    +0.037 C 
ATOM     10  C   UNL     1       1.387  -2.324   7.538  0.00  0.00    +0.096 C 
ATOM     11  C   UNL     1       2.471  -2.991   6.700  0.00  0.00    +0.196 C 
ATOM     12  O   UNL     1       2.510  -1.600   7.025  0.00  0.00    -0.368 OA
ATOM     13  C   UNL     1      -2.305  -2.866   6.651  0.00  0.00    +0.052 C 
ATOM     14  C   UNL     1      -2.905  -1.603   7.264  0.00  0.00    +0.181 C 
ATOM     15  O   UNL     1      -4.028  -1.211   6.405  0.00  0.00    -0.461 OA
ATOM     16  C   UNL     1      -3.708  -0.194   5.596  0.00  0.00    +0.309 C 
ATOM     17  O   UNL     1      -4.438   0.294   4.758  0.00  0.00    -0.251 OA
ATOM     18  C   UNL     1      -0.439  -4.485   6.620  0.00  0.00    +0.011 C 
ENDBRANCH   1   2
BRANCH   1  19
ATOM     19  N   UNL     1      -1.745   0.636   3.519  0.00  0.00    +0.380 N 
ATOM     20  H   UNL     1      -2.716   0.410   3.274  0.00  0.00    -0.086 HD
ATOM     21  H   UNL     1      -1.665   1.642   3.708  0.00  0.00    -0.086 HD
BRANCH  19  22
ATOM     22  C   UNL     1      -0.863   0.281   2.391  0.00  0.00    -0.084 C 
BRANCH  22  23
ATOM     23  C   UNL     1      -1.286   1.078   1.154  0.00  0.00    -0.038 C 
BRANCH  23  24
ATOM     24  C   UNL     1      -0.376   0.715  -0.021  0.00  0.00    -0.081 C 
BRANCH  24  25
ATOM     25  N   UNL     1      -0.810   1.476  -1.212  0.00  0.00    +0.380 N 
ATOM     26  H   UNL     1      -1.818   1.336  -1.348  0.00  0.00    -0.082 HD
BRANCH  25  27
ATOM     27  C   UNL     1      -0.547   2.917  -1.014  0.00  0.00    -0.079 C 
BRANCH  27  28
ATOM     28  C   UNL     1       0.945   3.163  -0.782  0.00  0.00    -0.019 C 
BRANCH  28  30
ATOM     29  C   UNL     1       2.677   4.903  -0.317  0.00  0.00    +0.004 C 
ATOM     30  C   UNL     1       1.185   4.656  -0.549  0.00  0.00    -0.005 C 
ENDBRANCH  28  30
ENDBRANCH  27  28
ENDBRANCH  25  27
BRANCH  25  31
ATOM     31  C   UNL     1      -0.092   0.991  -2.410  0.00  0.00    -0.079 C 
BRANCH  31  32
ATOM     32  C   UNL     1      -0.805   1.519  -3.657  0.00  0.00    -0.019 C 
BRANCH  32  33
ATOM     33  C   UNL     1      -0.086   1.011  -4.908  0.00  0.00    -0.005 C 
ATOM     34  C   UNL     1      -0.798   1.540  -6.155  0.00  0.00    +0.004 C 
ENDBRANCH  32  33
ENDBRANCH  31  32
ENDBRANCH  25  31
ENDBRANCH  24  25
ENDBRANCH  23  24
ENDBRANCH  22  23
ENDBRANCH  19  22
ENDBRANCH   1  19
TORSDOF 12
