REMARK  Name = ZINC39731442
REMARK  9 active torsions:
REMARK  status: ('A' for Active; 'I' for Inactive)
REMARK    1  A    between atoms: C_1  and  C_2
REMARK    2  A    between atoms: C_2  and  N_3
REMARK    3  A    between atoms: C_4  and  C_29
REMARK    4  A    between atoms: C_7  and  S_8
REMARK    5  A    between atoms: S_8  and  C_9
REMARK    6  A    between atoms: C_11  and  N_21
REMARK    7  A    between atoms: N_21  and  C_22
REMARK    8  A    between atoms: C_22  and  C_23
REMARK    9  A    between atoms: C_33  and  C_34
REMARK                            x       y       z     vdW  Elec       q    Type
REMARK                         _______ _______ _______ _____ _____    ______ ____
ROOT
ATOM      1  C   UNL     1      -3.196  -0.984  -3.590  0.00  0.00    +0.183 C 
ATOM      2  C   UNL     1      -2.987  -0.732  -5.071  0.00  0.00    +0.020 C 
ATOM      3  C   UNL     1      -3.857   0.117  -5.689  0.00  0.00    +0.013 A 
ATOM      4  C   UNL     1      -3.728   0.416  -7.116  0.00  0.00    +0.011 A 
ATOM      5  C   UNL     1      -4.617   1.268  -7.689  0.00  0.00    +0.001 A 
ATOM      6  C   UNL     1      -5.641   1.857  -6.947  0.00  0.00    +0.002 A 
ATOM      7  C   UNL     1      -5.814   1.620  -5.620  0.00  0.00    +0.024 A 
ATOM      8  C   UNL     1      -4.948   0.752  -4.930  0.00  0.00    +0.042 A 
ATOM      9  N   UNL     1      -5.128   0.527  -3.629  0.00  0.00    -0.284 N 
ATOM     10  C   UNL     1      -4.350  -0.274  -2.921  0.00  0.00    +0.236 C 
ATOM     11  O   UNL     1      -4.564  -0.439  -1.735  0.00  0.00    -0.274 OA
ATOM     12  H   UNL     1      -5.864   0.973  -3.180  0.00  0.00    +0.155 HD
ENDROOT
BRANCH   2  13
ATOM     13  N   UNL     1      -1.946  -1.345  -5.774  0.00  0.00    -0.403 NA
ATOM     14  H   UNL     1      -1.699  -0.779  -6.572  0.00  0.00    +0.123 HD
ATOM     15  H   UNL     1      -1.143  -1.442  -5.169  0.00  0.00    +0.123 HD
BRANCH  13  16
ATOM     16  C   UNL     1      -2.378  -2.673  -6.230  0.00  0.00    +0.118 C 
BRANCH  16  17
ATOM     17  C   UNL     1      -1.262  -3.327  -7.003  0.00  0.00    -0.032 A 
ATOM     18  C   UNL     1      -1.163  -3.138  -8.369  0.00  0.00    +0.005 A 
ATOM     19  C   UNL     1      -0.139  -3.738  -9.078  0.00  0.00    +0.000 A 
ATOM     20  C   UNL     1       0.787  -4.526  -8.420  0.00  0.00    +0.000 A 
ATOM     21  C   UNL     1       0.689  -4.714  -7.054  0.00  0.00    +0.000 A 
ATOM     22  C   UNL     1      -0.333  -4.111  -6.345  0.00  0.00    +0.005 A 
ENDBRANCH  16  17
ENDBRANCH  13  16
ENDBRANCH   2  13
BRANCH   1  23
ATOM     23  S   UNL     1      -1.673  -0.510  -2.725  0.00  0.00    -0.067 S 
BRANCH  23  28
ATOM     24  N   UNL     1      -1.049  -0.957  -0.034  0.00  0.00    -0.302 N 
ATOM     25  C   UNL     1      -1.674  -1.538   1.045  0.00  0.00    +0.168 A 
ATOM     26  N   UNL     1      -2.840  -1.970   0.627  0.00  0.00    -0.128 NA
ATOM     27  N   UNL     1      -2.986  -1.704  -0.622  0.00  0.00    -0.122 NA
ATOM     28  C   UNL     1      -1.924  -1.080  -1.077  0.00  0.00    +0.193 A 
BRANCH  25  29
ATOM     29  C   UNL     1      -1.133  -1.653   2.416  0.00  0.00    +0.060 A 
ATOM     30  C   UNL     1       0.213  -2.092   2.804  0.00  0.00    +0.053 A 
ATOM     31  C   UNL     1       0.249  -2.038   4.146  0.00  0.00    +0.196 A 
ATOM     32  O   UNL     1      -0.940  -1.611   4.599  0.00  0.00    -0.467 OA
ATOM     33  C   UNL     1      -1.778  -1.370   3.580  0.00  0.00    +0.112 A 
ATOM     34  C   UNL     1      -3.195  -0.873   3.704  0.00  0.00    +0.087 C 
ENDBRANCH  25  29
BRANCH  24  36
ATOM     35  C   UNL     1       0.161   1.124   0.402  0.00  0.00    +0.027 C 
ATOM     36  C   UNL     1       0.275  -0.331  -0.059  0.00  0.00    +0.122 C 
ENDBRANCH  24  36
ENDBRANCH  23  28
ENDBRANCH   1  23
TORSDOF 7
