REMARK  Name = ZINC64015556
REMARK  7 active torsions:
REMARK  status: ('A' for Active; 'I' for Inactive)
REMARK    1  A    between atoms: C_1  and  N_2
REMARK    2  A    between atoms: N_2  and  C_3
REMARK    3  A    between atoms: C_3  and  C_4
REMARK    4  A    between atoms: C_13  and  C_15
REMARK    5  A    between atoms: N_17  and  C_20
REMARK    6  A    between atoms: C_20  and  C_21
REMARK    7  A    between atoms: C_25  and  C_27
REMARK                            x       y       z     vdW  Elec       q    Type
REMARK                         _______ _______ _______ _____ _____    ______ ____
ROOT
ATOM      1  C   UNL     1      -0.065   1.461   0.012  0.00  0.00    +0.132 C 
ATOM      2  N   UNL     1      -0.018  -0.003   0.003  0.00  0.00    -0.295 N 
ATOM      3  C   UNL     1      -0.102  -0.673  -1.163  0.00  0.00    +0.268 C 
ATOM      4  O   UNL     1      -0.159  -1.888  -1.164  0.00  0.00    -0.268 OA
ENDROOT
BRANCH   3   5
ATOM      5  C   UNL     1      -0.124   0.067  -2.439  0.00  0.00    +0.167 A 
ATOM      6  C   UNL     1      -0.326  -0.478  -3.675  0.00  0.00    +0.143 A 
ATOM      7  N   UNL     1      -0.271   0.535  -4.563  0.00  0.00    -0.247 N 
ATOM      8  N   UNL     1      -0.030   1.705  -3.829  0.00  0.00    -0.065 NA
ATOM      9  N   UNL     1       0.045   1.393  -2.582  0.00  0.00    -0.125 NA
BRANCH   7  10
ATOM     10  C   UNL     1      -0.432   0.433  -6.016  0.00  0.00    +0.180 C 
BRANCH  10  11
ATOM     11  C   UNL     1      -1.525   1.367  -6.466  0.00  0.00    -0.026 A 
ATOM     12  C   UNL     1      -2.834   0.925  -6.518  0.00  0.00    +0.005 A 
ATOM     13  C   UNL     1      -3.837   1.781  -6.931  0.00  0.00    +0.001 A 
ATOM     14  C   UNL     1      -3.532   3.080  -7.293  0.00  0.00    +0.012 A 
ATOM     15  C   UNL     1      -2.224   3.522  -7.241  0.00  0.00    +0.055 A 
ATOM     16  C   UNL     1      -1.221   2.667  -6.824  0.00  0.00    +0.017 A 
BRANCH  15  17
ATOM     17  C   UNL     1      -1.891   4.938  -7.637  0.00  0.00    +0.417 C 
ATOM     18  F   UNL     1      -3.061   5.604  -8.016  0.00  0.00    -0.166 F 
ATOM     19  F   UNL     1      -1.308   5.600  -6.551  0.00  0.00    -0.166 F 
ATOM     20  F   UNL     1      -0.993   4.923  -8.710  0.00  0.00    -0.166 F 
ENDBRANCH  15  17
ENDBRANCH  10  11
ENDBRANCH   7  10
ENDBRANCH   3   5
BRANCH   2  21
ATOM     21  C   UNL     1       0.120  -0.739   1.262  0.00  0.00    +0.154 C 
BRANCH  21  22
ATOM     22  C   UNL     1      -1.268  -1.042   1.830  0.00  0.00    +0.192 C 
ATOM     23  N   UNL     1      -2.062  -1.792   0.849  0.00  0.00    -0.362 N 
ATOM     24  C   UNL     1      -3.110  -1.075   0.564  0.00  0.00    +0.060 A 
ATOM     25  C   UNL     1      -4.252  -1.289  -0.335  0.00  0.00    +0.027 A 
ATOM     26  C   UNL     1      -5.212  -0.347  -0.427  0.00  0.00    +0.002 A 
ATOM     27  C   UNL     1      -5.172   0.850   0.309  0.00  0.00    +0.002 A 
ATOM     28  C   UNL     1      -4.170   1.146   1.162  0.00  0.00    +0.027 A 
ATOM     29  C   UNL     1      -3.068   0.192   1.344  0.00  0.00    +0.060 A 
ATOM     30  N   UNL     1      -1.995   0.210   2.080  0.00  0.00    -0.362 N 
ATOM     31  H   UNL     1      -1.844  -2.663   0.480  0.00  0.00    +0.162 HD
ATOM     32  H   UNL     1      -1.724   0.919   2.684  0.00  0.00    +0.162 HD
ENDBRANCH  21  22
ENDBRANCH   2  21
TORSDOF 6
