REMARK  Name = ZINC53746200
REMARK  3 active torsions:
REMARK  status: ('A' for Active; 'I' for Inactive)
REMARK    1  A    between atoms: C_6  and  C_7
REMARK    2  A    between atoms: N_9  and  C_10
REMARK    3  A    between atoms: C_12  and  C_18
REMARK                            x       y       z     vdW  Elec       q    Type
REMARK                         _______ _______ _______ _____ _____    ______ ____
ROOT
ATOM      1  C   UNL     1      -1.281  -0.760   0.183  0.00  0.00    +0.248 C 
ATOM      2  O   UNL     1      -1.285  -1.967   0.331  0.00  0.00    -0.270 OA
ATOM      3  N   UNL     1      -2.443  -0.096   0.025  0.00  0.00    -0.277 N 
ATOM      4  H   UNL     1      -2.446   0.873  -0.021  0.00  0.00    +0.155 HD
ENDROOT
BRANCH   1  10
ATOM      5  C   UNL     1      -0.000   1.371   0.006  0.00  0.00    +0.015 A 
ATOM      6  C   UNL     1       1.173   2.064  -0.002  0.00  0.00    +0.030 A 
ATOM      7  C   UNL     1       2.383   1.394   0.160  0.00  0.00    +0.086 A 
ATOM      8  C   UNL     1       2.401  -0.003   0.332  0.00  0.00    +0.113 A 
ATOM      9  C   UNL     1       1.195  -0.708   0.340  0.00  0.00    +0.044 A 
ATOM     10  C   UNL     1      -0.002  -0.021   0.176  0.00  0.00    +0.039 A 
ATOM     11  N   UNL     1       3.695  -0.382   0.463  0.00  0.00    -0.130 NA
ATOM     12  N   UNL     1       4.467   0.644   0.387  0.00  0.00    -0.067 NA
ATOM     13  N   UNL     1       3.694   1.798   0.195  0.00  0.00    -0.257 N 
ATOM     14  H   UNL     1       4.023   2.707   0.105  0.00  0.00    +0.191 HD
ENDBRANCH   1  10
BRANCH   3  15
ATOM     15  C   UNL     1      -3.647  -0.805  -0.073  0.00  0.00    +0.099 A 
ATOM     16  C   UNL     1      -4.659  -0.579   0.819  0.00  0.00    +0.042 A 
ATOM     17  C   UNL     1      -5.854  -1.302   0.698  0.00  0.00    +0.073 A 
ATOM     18  C   UNL     1      -5.997  -2.212  -0.292  0.00  0.00    +0.098 A 
ATOM     19  N   UNL     1      -4.992  -2.439  -1.180  0.00  0.00    -0.327 N 
ATOM     20  H   UNL     1      -5.114  -3.096  -1.883  0.00  0.00    +0.168 HD
ATOM     21  C   UNL     1      -3.833  -1.759  -1.097  0.00  0.00    +0.270 A 
ATOM     22  O   UNL     1      -2.942  -1.970  -1.905  0.00  0.00    -0.266 OA
BRANCH  17  23
ATOM     23  C   UNL     1      -6.979  -1.066   1.672  0.00  0.00    +0.419 C 
ATOM     24  F   UNL     1      -8.057  -1.898   1.350  0.00  0.00    -0.166 F 
ATOM     25  F   UNL     1      -6.541  -1.351   2.969  0.00  0.00    -0.166 F 
ATOM     26  F   UNL     1      -7.385   0.271   1.601  0.00  0.00    -0.166 F 
ENDBRANCH  17  23
ENDBRANCH   3  15
TORSDOF 3
