REMARK  Name = ZINC66977174
REMARK  6 active torsions:
REMARK  status: ('A' for Active; 'I' for Inactive)
REMARK    1  A    between atoms: C_5  and  C_7
REMARK    2  A    between atoms: C_7  and  C_8
REMARK    3  A    between atoms: N_10  and  N_11
REMARK    4  A    between atoms: N_14  and  C_15
REMARK    5  A    between atoms: C_15  and  C_16
REMARK    6  A    between atoms: C_16  and  N_21
REMARK                            x       y       z     vdW  Elec       q    Type
REMARK                         _______ _______ _______ _____ _____    ______ ____
ROOT
ATOM      1  N   UNL     1       1.731  -4.473   2.853  0.00  0.00    -0.218 N 
ATOM      2  C   UNL     1       1.685  -5.793   3.120  0.00  0.00    +0.316 C 
ATOM      3  O   UNL     1       1.731  -6.182   4.271  0.00  0.00    -0.251 OA
ATOM      4  N   UNL     1       1.587  -6.682   2.111  0.00  0.00    -0.300 N 
ATOM      5  H   UNL     1       1.801  -3.833   3.579  0.00  0.00    +0.174 HD
ATOM      6  H   UNL     1       1.551  -6.371   1.193  0.00  0.00    +0.150 HD
ENDROOT
BRANCH   1   9
ATOM      7  C   UNL     1       1.724  -2.704   1.259  0.00  0.00    +0.234 C 
ATOM      8  O   UNL     1       1.812  -1.904   2.167  0.00  0.00    -0.274 OA
ATOM      9  N   UNL     1       1.678  -4.024   1.527  0.00  0.00    -0.233 N 
ATOM     10  H   UNL     1       1.608  -4.664   0.801  0.00  0.00    +0.173 HD
BRANCH   7  11
ATOM     11  C   UNL     1       1.667  -2.222  -0.167  0.00  0.00    +0.135 C 
BRANCH  11  16
ATOM     12  C   UNL     1       0.634   1.409  -0.264  0.00  0.00    +0.000 A 
ATOM     13  C   UNL     1       1.861   2.047  -0.237  0.00  0.00    +0.003 A 
ATOM     14  C   UNL     1       3.025   1.305  -0.188  0.00  0.00    +0.038 A 
ATOM     15  C   UNL     1       2.964  -0.079  -0.165  0.00  0.00    +0.127 A 
ATOM     16  C   UNL     1       1.736  -0.716  -0.191  0.00  0.00    -0.003 A 
ATOM     17  C   UNL     1       0.572   0.028  -0.241  0.00  0.00    +0.007 A 
ATOM     18  F   UNL     1       4.102  -0.805  -0.117  0.00  0.00    -0.205 F 
ENDBRANCH  11  16
ENDBRANCH   7  11
ENDBRANCH   1   9
BRANCH   4  19
ATOM     19  C   UNL     1       1.537  -8.117   2.402  0.00  0.00    +0.094 C 
BRANCH  19  20
ATOM     20  C   UNL     1       1.304  -8.892   1.103  0.00  0.00    -0.050 C 
ATOM     21  C   UNL     1      -0.048  -8.488   0.482  0.00  0.00    -0.010 C 
ATOM     22  C   UNL     1      -0.603  -9.807  -0.110  0.00  0.00    -0.001 C 
ATOM     23  C   UNL     1      -0.181 -10.860   0.945  0.00  0.00    -0.001 C 
ATOM     24  C   UNL     1       1.220 -10.400   1.398  0.00  0.00    -0.010 C 
BRANCH  20  25
ATOM     25  N   UNL     1       2.395  -8.624   0.156  0.00  0.00    +0.386 N 
ATOM     26  C   UNL     1       2.065  -9.227  -1.137  0.00  0.00    -0.067 C 
ATOM     27  C   UNL     1       2.983  -8.659  -2.226  0.00  0.00    +0.050 C 
ATOM     28  S   UNL     1       4.699  -9.103  -1.815  0.00  0.00    -0.164 S 
ATOM     29  C   UNL     1       4.837  -8.592  -0.074  0.00  0.00    +0.050 C 
ATOM     30  C   UNL     1       3.642  -9.171   0.693  0.00  0.00    -0.067 C 
ATOM     31  H   UNL     1       2.494  -7.627   0.039  0.00  0.00    -0.081 HD
ENDBRANCH  20  25
ENDBRANCH  19  20
ENDBRANCH   4  19
TORSDOF 6
