REMARK  Name = ZINC41634643
REMARK  10 active torsions:
REMARK  status: ('A' for Active; 'I' for Inactive)
REMARK    1  A    between atoms: C_1  and  C_2
REMARK    2  A    between atoms: C_2  and  C_3
REMARK    3  A    between atoms: C_3  and  C_4
REMARK    4  A    between atoms: C_4  and  N_5
REMARK    5  A    between atoms: N_5  and  C_6
REMARK    6  A    between atoms: N_5  and  C_7
REMARK    7  A    between atoms: C_7  and  C_9
REMARK    8  A    between atoms: C_7  and  C_18
REMARK    9  A    between atoms: C_12  and  N_15
REMARK   10  A    between atoms: C_19  and  O_26
REMARK                            x       y       z     vdW  Elec       q    Type
REMARK                         _______ _______ _______ _____ _____    ______ ____
ROOT
ATOM      1  C   UNL     1       1.585  -3.954  -2.328  0.00  0.00    +0.129 C 
ENDROOT
BRANCH   1   2
ATOM      2  C   UNL     1       0.222  -4.565  -2.124  0.00  0.00    +0.076 A 
ATOM      3  C   UNL     1      -0.372  -5.552  -2.805  0.00  0.00    +0.228 A 
ATOM      4  N   UNL     1      -1.634  -5.976  -2.465  0.00  0.00    -0.174 N 
ATOM      5  C   UNL     1      -2.240  -5.353  -1.418  0.00  0.00    +0.199 A 
ATOM      6  S   UNL     1      -1.021  -4.167  -0.905  0.00  0.00    -0.047 S 
ATOM      7  N   UNL     1      -3.424  -5.869  -1.226  0.00  0.00    -0.208 NA
ATOM      8  C   UNL     1      -3.634  -6.831  -2.122  0.00  0.00    +0.246 A 
ATOM      9  N   UNL     1      -2.586  -6.937  -2.894  0.00  0.00    -0.150 NA
BRANCH   3  10
ATOM     10  O   UNL     1       0.280  -6.141  -3.844  0.00  0.00    -0.492 OA
ATOM     11  H   UNL     1      -0.225  -6.843  -4.277  0.00  0.00    +0.294 HD
ENDBRANCH   3  10
ENDBRANCH   1   2
BRANCH   1  12
ATOM     12  C   UNL     1       2.451  -4.248  -1.131  0.00  0.00    -0.025 A 
ATOM     13  C   UNL     1       3.465  -5.183  -1.224  0.00  0.00    +0.008 A 
ATOM     14  C   UNL     1       4.260  -5.452  -0.125  0.00  0.00    +0.033 A 
ATOM     15  C   UNL     1       4.041  -4.786   1.066  0.00  0.00    +0.126 A 
ATOM     16  C   UNL     1       3.028  -3.850   1.159  0.00  0.00    +0.033 A 
ATOM     17  C   UNL     1       2.236  -3.578   0.059  0.00  0.00    +0.008 A 
BRANCH  15  18
ATOM     18  N   UNL     1       4.892  -5.075   2.243  0.00  0.00    +0.056 N 
ATOM     19  O   UNL     1       5.778  -5.893   2.162  0.00  0.00    -0.126 OA
ATOM     20  O   UNL     1       4.700  -4.492   3.285  0.00  0.00    -0.126 OA
ENDBRANCH  15  18
ENDBRANCH   1  12
BRANCH   1  21
ATOM     21  N   UNL     1       1.450  -2.501  -2.491  0.00  0.00    -0.294 NA
ATOM     22  C   UNL     1       2.765  -1.864  -2.645  0.00  0.00    +0.105 C 
BRANCH  21  23
ATOM     23  C   UNL     1       0.573  -2.176  -3.624  0.00  0.00    +0.085 C 
BRANCH  23  24
ATOM     24  C   UNL     1       0.064  -0.741  -3.480  0.00  0.00    +0.015 C 
BRANCH  24  26
ATOM     25  C   UNL     1      -1.358   1.033  -4.517  0.00  0.00    +0.004 C 
ATOM     26  C   UNL     1      -0.850  -0.403  -4.660  0.00  0.00    -0.002 C 
ENDBRANCH  24  26
ENDBRANCH  23  24
ENDBRANCH  21  23
ENDBRANCH   1  21
TORSDOF 8
