REMARK  Name = ZINC03598679
REMARK  4 active torsions:
REMARK  status: ('A' for Active; 'I' for Inactive)
REMARK    1  A    between atoms: C_5  and  N_7
REMARK    2  A    between atoms: N_12  and  C_15
REMARK    3  A    between atoms: C_15  and  C_16
REMARK    4  A    between atoms: N_18  and  C_19
REMARK                            x       y       z     vdW  Elec       q    Type
REMARK                         _______ _______ _______ _____ _____    ______ ____
ROOT
ATOM      1  C   UNL     1       3.974  -8.723  -0.148  0.00  0.00    +0.003 A 
ATOM      2  C   UNL     1       4.199  -7.596  -0.924  0.00  0.00    +0.014 A 
ATOM      3  C   UNL     1       4.375  -6.365  -0.314  0.00  0.00    +0.052 A 
ATOM      4  C   UNL     1       4.324  -6.266   1.092  0.00  0.00    +0.080 A 
ATOM      5  C   UNL     1       4.099  -7.401   1.855  0.00  0.00    +0.139 A 
ATOM      6  C   UNL     1       3.924  -8.626   1.229  0.00  0.00    +0.033 A 
ATOM      7  C   UNL     1       4.553  -4.840   1.405  0.00  0.00    +0.256 C 
ATOM      8  O   UNL     1       4.587  -4.356   2.518  0.00  0.00    -0.269 OA
ATOM      9  N   UNL     1       4.714  -4.168   0.251  0.00  0.00    -0.225 N 
ATOM     10  C   UNL     1       4.627  -4.995  -0.806  0.00  0.00    +0.254 C 
ATOM     11  O   UNL     1       4.736  -4.669  -1.971  0.00  0.00    -0.270 OA
ENDROOT
BRANCH   5  12
ATOM     12  N   UNL     1       4.045  -7.305   3.331  0.00  0.00    +0.057 N 
ATOM     13  O   UNL     1       3.846  -8.304   3.999  0.00  0.00    -0.126 OA
ATOM     14  O   UNL     1       4.198  -6.227   3.877  0.00  0.00    -0.126 OA
ENDBRANCH   5  12
BRANCH   9  15
ATOM     15  C   UNL     1       4.959  -2.727   0.159  0.00  0.00    +0.213 C 
BRANCH  15  16
ATOM     16  C   UNL     1       3.643  -1.999   0.061  0.00  0.00    +0.235 C 
ATOM     17  O   UNL     1       2.603  -2.623   0.067  0.00  0.00    -0.274 OA
ATOM     18  N   UNL     1       3.622  -0.655  -0.035  0.00  0.00    -0.283 N 
ATOM     19  H   UNL     1       4.452  -0.161  -0.121  0.00  0.00    +0.155 HD
BRANCH  18  20
ATOM     20  C   UNL     1       2.401   0.029  -0.009  0.00  0.00    +0.053 A 
ATOM     21  C   UNL     1       1.295  -0.543   0.606  0.00  0.00    +0.025 A 
ATOM     22  C   UNL     1       0.092   0.134   0.631  0.00  0.00    +0.003 A 
ATOM     23  C   UNL     1      -0.014   1.382   0.043  0.00  0.00    +0.021 A 
ATOM     24  C   UNL     1       1.085   1.956  -0.571  0.00  0.00    +0.061 A 
ATOM     25  C   UNL     1       2.293   1.282  -0.599  0.00  0.00    +0.080 A 
ATOM     26 CL   UNL     1       3.672   2.003  -1.369  0.00  0.00    -0.080 Cl
ATOM     27 CL   UNL     1       0.947   3.522  -1.307  0.00  0.00    -0.082 Cl
ENDBRANCH  18  20
ENDBRANCH  15  16
ENDBRANCH   9  15
TORSDOF 4
