REMARK  Name = ZINC13177076
REMARK  8 active torsions:
REMARK  status: ('A' for Active; 'I' for Inactive)
REMARK    1  A    between atoms: C_9  and  S_17
REMARK    2  A    between atoms: N_10  and  C_13
REMARK    3  A    between atoms: C_13  and  C_14
REMARK    4  A    between atoms: C_14  and  C_15
REMARK    5  A    between atoms: S_17  and  C_18
REMARK    6  A    between atoms: C_18  and  C_19
REMARK    7  A    between atoms: N_21  and  C_22
REMARK    8  A    between atoms: C_22  and  C_28
REMARK                            x       y       z     vdW  Elec       q    Type
REMARK                         _______ _______ _______ _____ _____    ______ ____
ROOT
ATOM      1  C   UNL     1      -3.933   1.148   4.738  0.00  0.00    +0.021 A 
ATOM      2  C   UNL     1      -3.353   0.623   3.616  0.00  0.00    +0.017 A 
ATOM      3  C   UNL     1      -2.333   1.325   2.974  0.00  0.00    +0.065 A 
ATOM      4  C   UNL     1      -1.903   2.572   3.483  0.00  0.00    +0.080 A 
ATOM      5  C   UNL     1      -2.511   3.087   4.631  0.00  0.00    +0.048 A 
ATOM      6  C   UNL     1      -3.517   2.373   5.246  0.00  0.00    +0.043 A 
ATOM      7 CL   UNL     1      -4.274   3.012   6.672  0.00  0.00    -0.083 Cl
ATOM      8  N   UNL     1      -0.912   3.238   2.846  0.00  0.00    -0.223 NA
ATOM      9  C   UNL     1      -0.340   2.752   1.772  0.00  0.00    +0.173 A 
ATOM     10  N   UNL     1      -0.698   1.558   1.213  0.00  0.00    -0.287 N 
ATOM     11  C   UNL     1      -1.678   0.806   1.766  0.00  0.00    +0.262 A 
ATOM     12  O   UNL     1      -2.003  -0.262   1.281  0.00  0.00    -0.267 OA
ENDROOT
BRANCH  10  13
ATOM     13  C   UNL     1      -0.013   1.086   0.008  0.00  0.00    +0.138 C 
BRANCH  13  14
ATOM     14  C   UNL     1      -0.753   1.593  -1.232  0.00  0.00    +0.147 C 
BRANCH  14  15
ATOM     15  C   UNL     1      -0.047   1.107  -2.471  0.00  0.00    +0.358 C 
ATOM     16  O   UNL     1       0.945   0.425  -2.374  0.00  0.00    -0.246 OA
ATOM     17  O   UNL     1      -0.522   1.431  -3.684  0.00  0.00    -0.246 OA
ENDBRANCH  14  15
ENDBRANCH  13  14
ENDBRANCH  10  13
BRANCH   9  18
ATOM     18  S   UNL     1       0.947   3.683   1.011  0.00  0.00    -0.078 S 
BRANCH  18  19
ATOM     19  C   UNL     1       1.003   5.110   2.123  0.00  0.00    +0.173 C 
BRANCH  19  20
ATOM     20  C   UNL     1       2.065   6.071   1.655  0.00  0.00    +0.224 C 
ATOM     21  O   UNL     1       2.719   5.817   0.666  0.00  0.00    -0.275 OA
ATOM     22  N   UNL     1       2.287   7.214   2.334  0.00  0.00    -0.297 N 
ATOM     23  H   UNL     1       1.763   7.417   3.125  0.00  0.00    +0.150 HD
BRANCH  22  24
ATOM     24  C   UNL     1       3.319   8.148   1.879  0.00  0.00    +0.121 C 
ATOM     25  C   UNL     1       4.679   7.447   1.881  0.00  0.00    +0.041 C 
ATOM     26  C   UNL     1       5.757   8.423   1.405  0.00  0.00    +0.003 C 
ATOM     27  C   UNL     1       5.803   9.629   2.345  0.00  0.00    +0.000 C 
ATOM     28  C   UNL     1       4.444  10.330   2.343  0.00  0.00    +0.003 C 
ATOM     29  C   UNL     1       3.366   9.354   2.819  0.00  0.00    +0.041 C 
BRANCH  24  30
ATOM     30  C   UNL     1       3.003   8.601   0.514  0.00  0.00    +0.088 C 
ATOM     31  N   UNL     1       2.759   8.951  -0.539  0.00  0.00    -0.194 NA
ENDBRANCH  24  30
ENDBRANCH  22  24
ENDBRANCH  19  20
ENDBRANCH  18  19
ENDBRANCH   9  18
TORSDOF 8
