REMARK  Name = ZINC09264116
REMARK  8 active torsions:
REMARK  status: ('A' for Active; 'I' for Inactive)
REMARK    1  A    between atoms: C_1  and  C_2
REMARK    2  A    between atoms: C_2  and  C_36
REMARK    3  A    between atoms: C_6  and  C_27
REMARK    4  A    between atoms: N_8  and  C_16
REMARK    5  A    between atoms: C_16  and  C_17
REMARK    6  A    between atoms: C_24  and  C_25
REMARK    7  A    between atoms: C_24  and  N_72
REMARK    8  A    between atoms: C_25  and  O_26
REMARK                            x       y       z     vdW  Elec       q    Type
REMARK                         _______ _______ _______ _____ _____    ______ ____
ROOT
ATOM      1  C   UNL     1       6.158   0.468   0.140  0.00  0.00    +0.011 C 
ATOM      2  C   UNL     1       5.309  -0.262   1.183  0.00  0.00    -0.023 C 
ATOM      3  C   UNL     1       3.894  -0.470   0.646  0.00  0.00    +0.058 C 
ATOM      4  C   UNL     1       3.251   0.871   0.348  0.00  0.00    +0.017 C 
ATOM      5  C   UNL     1       3.568   1.965   1.062  0.00  0.00    +0.037 C 
ATOM      6  C   UNL     1       3.033   3.361   0.845  0.00  0.00    +0.139 C 
ATOM      7  N   UNL     1       2.317   3.558  -0.394  0.00  0.00    -0.308 N 
ATOM      8  C   UNL     1       1.107   2.878  -0.470  0.00  0.00    +0.052 A 
ATOM      9  C   UNL     1      -0.099   3.568  -0.421  0.00  0.00    +0.025 A 
ATOM     10  C   UNL     1      -1.288   2.864  -0.469  0.00  0.00    +0.002 A 
ATOM     11  C   UNL     1      -1.283   1.485  -0.573  0.00  0.00    +0.002 A 
ATOM     12  C   UNL     1      -0.084   0.796  -0.627  0.00  0.00    +0.025 A 
ATOM     13  C   UNL     1       1.106   1.503  -0.581  0.00  0.00    +0.052 A 
ATOM     14  N   UNL     1       2.342   0.866  -0.662  0.00  0.00    -0.316 N 
ATOM     15  C   UNL     1       4.507   1.871   2.116  0.00  0.00    +0.163 C 
ATOM     16  O   UNL     1       4.758   2.866   2.769  0.00  0.00    -0.292 OA
ATOM     17  C   UNL     1       5.205   0.588   2.455  0.00  0.00    +0.086 C 
ATOM     18  C   UNL     1       5.943  -1.615   1.514  0.00  0.00    +0.011 C 
ATOM     19  H   UNL     1       2.564   0.395  -1.480  0.00  0.00    +0.152 HD
ENDROOT
BRANCH   6  20
ATOM     20  C   UNL     1       4.193   4.323   0.876  0.00  0.00    -0.023 A 
ATOM     21  C   UNL     1       4.996   4.473  -0.239  0.00  0.00    +0.006 A 
ATOM     22  C   UNL     1       6.057   5.359  -0.212  0.00  0.00    +0.000 A 
ATOM     23  C   UNL     1       6.321   6.087   0.934  0.00  0.00    +0.000 A 
ATOM     24  C   UNL     1       5.520   5.933   2.050  0.00  0.00    +0.000 A 
ATOM     25  C   UNL     1       4.457   5.051   2.021  0.00  0.00    +0.006 A 
ENDBRANCH   6  20
BRANCH   7  26
ATOM     26  C   UNL     1       2.136   4.988  -0.676  0.00  0.00    +0.202 C 
BRANCH  26  27
ATOM     27  C   UNL     1       1.610   5.162  -2.077  0.00  0.00    +0.233 C 
ATOM     28  O   UNL     1       1.406   4.189  -2.773  0.00  0.00    -0.274 OA
ATOM     29  N   UNL     1       1.366   6.397  -2.558  0.00  0.00    -0.304 N 
ATOM     30  C   UNL     1       1.601   7.589  -1.729  0.00  0.00    +0.089 C 
ATOM     31  C   UNL     1       2.466   8.572  -2.533  0.00  0.00    -0.059 C 
ATOM     32  C   UNL     1       1.743   7.611  -4.638  0.00  0.00    -0.059 C 
ATOM     33  C   UNL     1       0.853   6.588  -3.923  0.00  0.00    +0.089 C 
ATOM     34  N   UNL     1       1.798   8.844  -3.824  0.00  0.00    +0.383 N 
ATOM     35  H   UNL     1       0.840   9.166  -3.641  0.00  0.00    -0.082 HD
BRANCH  34  36
ATOM     36  C   UNL     1       2.527   9.900  -4.556  0.00  0.00    -0.051 C 
BRANCH  36  37
ATOM     37  C   UNL     1       4.030   9.616  -4.554  0.00  0.00    +0.137 C 
BRANCH  37  38
ATOM     38  O   UNL     1       4.294   8.437  -5.317  0.00  0.00    -0.397 OA
ATOM     39  H   UNL     1       5.230   8.197  -5.358  0.00  0.00    +0.209 HD
ENDBRANCH  37  38
ENDBRANCH  36  37
ENDBRANCH  34  36
ENDBRANCH  26  27
ENDBRANCH   7  26
TORSDOF 6
