REMARK  Name = ZINC39478718
REMARK  8 active torsions:
REMARK  status: ('A' for Active; 'I' for Inactive)
REMARK    1  A    between atoms: C_1  and  C_2
REMARK    2  A    between atoms: C_5  and  C_17
REMARK    3  A    between atoms: N_8  and  C_11
REMARK    4  A    between atoms: C_11  and  C_13
REMARK    5  A    between atoms: C_11  and  C_14
REMARK    6  A    between atoms: C_22  and  C_23
REMARK    7  A    between atoms: C_26  and  O_29
REMARK    8  A    between atoms: O_29  and  C_30
REMARK                            x       y       z     vdW  Elec       q    Type
REMARK                         _______ _______ _______ _____ _____    ______ ____
ROOT
ATOM      1  C   UNL     1      -0.018   1.503   0.010  0.00  0.00    +0.067 C 
ATOM      2  C   UNL     1       0.002  -0.004   0.002  0.00  0.00    +0.059 A 
ATOM      3  C   UNL     1      -1.112  -0.822   0.003  0.00  0.00    +0.128 A 
ATOM      4  N   UNL     1      -2.470  -0.888   0.009  0.00  0.00    -0.228 NA
ATOM      5  C   UNL     1      -2.816  -2.152   0.003  0.00  0.00    +0.124 A 
ATOM      6  N   UNL     1      -1.734  -2.928  -0.007  0.00  0.00    -0.326 N 
ATOM      7  C   UNL     1      -0.656  -2.166  -0.008  0.00  0.00    +0.155 A 
ATOM      8  N   UNL     1       0.727  -2.120  -0.015  0.00  0.00    -0.266 N 
ATOM      9  N   UNL     1       1.108  -0.771  -0.013  0.00  0.00    -0.298 N 
ATOM     10  H   UNL     1       2.021  -0.443  -0.021  0.00  0.00    +0.187 HD
ATOM     11  H   UNL     1      -1.737  -3.898  -0.012  0.00  0.00    +0.169 HD
ENDROOT
BRANCH   5  12
ATOM     12  C   UNL     1      -4.237  -2.655   0.008  0.00  0.00    +0.149 C 
ATOM     13  C   UNL     1      -4.721  -2.874   1.428  0.00  0.00    +0.125 C 
ATOM     14  N   UNL     1      -5.726  -2.077   1.591  0.00  0.00    -0.161 NA
ATOM     15  N   UNL     1      -6.001  -1.326   0.453  0.00  0.00    -0.153 NA
ATOM     16  C   UNL     1      -5.180  -1.598  -0.530  0.00  0.00    +0.086 C 
BRANCH  16  17
ATOM     17  C   UNL     1      -5.172  -1.004  -1.874  0.00  0.00    -0.001 A 
ATOM     18  C   UNL     1      -4.222  -1.412  -2.817  0.00  0.00    +0.013 A 
ATOM     19  C   UNL     1      -4.219  -0.852  -4.075  0.00  0.00    +0.046 A 
ATOM     20  C   UNL     1      -5.158   0.117  -4.409  0.00  0.00    +0.120 A 
ATOM     21  C   UNL     1      -6.104   0.526  -3.477  0.00  0.00    +0.046 A 
ATOM     22  C   UNL     1      -6.119  -0.031  -2.217  0.00  0.00    +0.013 A 
BRANCH  20  23
ATOM     23  O   UNL     1      -5.151   0.666  -5.651  0.00  0.00    -0.495 OA
ATOM     24  C   UNL     1      -6.143   1.657  -5.928  0.00  0.00    +0.277 C 
ENDBRANCH  20  23
ENDBRANCH  16  17
ENDBRANCH   5  12
BRANCH   8  25
ATOM     25  C   UNL     1       1.631  -3.273  -0.025  0.00  0.00    +0.107 C 
ATOM     26  C   UNL     1       2.520  -3.236   1.220  0.00  0.00    +0.033 C 
BRANCH  25  27
ATOM     27  C   UNL     1       2.507  -3.223  -1.279  0.00  0.00    +0.013 C 
ATOM     28  C   UNL     1       2.270  -4.290  -2.349  0.00  0.00    +0.006 C 
ATOM     29  C   UNL     1       3.524  -4.349  -1.475  0.00  0.00    +0.006 C 
ENDBRANCH  25  27
ENDBRANCH   8  25
TORSDOF 5
