REMARK  Name = ZINC13117095
REMARK  10 active torsions:
REMARK  status: ('A' for Active; 'I' for Inactive)
REMARK    1  A    between atoms: C_1  and  N_2
REMARK    2  A    between atoms: C_3  and  C_30
REMARK    3  A    between atoms: C_6  and  S_7
REMARK    4  A    between atoms: S_7  and  C_8
REMARK    5  A    between atoms: C_8  and  C_9
REMARK    6  A    between atoms: C_12  and  C_25
REMARK    7  A    between atoms: C_15  and  C_17
REMARK    8  A    between atoms: C_20  and  O_23
REMARK    9  A    between atoms: O_23  and  C_24
REMARK   10  A    between atoms: C_30  and  C_31
REMARK                            x       y       z     vdW  Elec       q    Type
REMARK                         _______ _______ _______ _____ _____    ______ ____
ROOT
ATOM      1  C   UNL     1       4.625  -0.356  -7.292  0.00  0.00    +0.246 C 
ATOM      2  O   UNL     1       4.262  -1.506  -7.426  0.00  0.00    -0.273 OA
ATOM      3  N   UNL     1       5.226   0.283  -8.315  0.00  0.00    -0.181 N 
ATOM      4  C   UNL     1       5.507  -0.294  -9.639  0.00  0.00    +0.173 C 
ATOM      5  C   UNL     1       6.190   0.860 -10.399  0.00  0.00    +0.090 C 
ATOM      6  C   UNL     1       6.228   1.987  -9.392  0.00  0.00    +0.069 C 
ATOM      7  N   UNL     1       5.688   1.598  -8.290  0.00  0.00    -0.181 NA
ENDROOT
BRANCH   6   8
ATOM      8  C   UNL     1       6.797   3.326  -9.635  0.00  0.00    -0.002 A 
ATOM      9  C   UNL     1       7.364   3.632 -10.875  0.00  0.00    +0.013 A 
ATOM     10  C   UNL     1       7.889   4.886 -11.098  0.00  0.00    +0.046 A 
ATOM     11  C   UNL     1       7.866   5.842 -10.090  0.00  0.00    +0.120 A 
ATOM     12  C   UNL     1       7.308   5.540  -8.854  0.00  0.00    +0.046 A 
ATOM     13  C   UNL     1       6.775   4.290  -8.623  0.00  0.00    +0.013 A 
BRANCH  11  14
ATOM     14  O   UNL     1       8.389   7.075 -10.314  0.00  0.00    -0.495 OA
ATOM     15  C   UNL     1       8.947   7.319 -11.607  0.00  0.00    +0.277 C 
ENDBRANCH  11  14
ENDBRANCH   6   8
BRANCH   4  16
ATOM     16  C   UNL     1       4.226  -0.694 -10.326  0.00  0.00    +0.128 A 
ATOM     17  C   UNL     1       4.048  -1.793 -11.080  0.00  0.00    +0.046 A 
ATOM     18  C   UNL     1       2.705  -1.773 -11.523  0.00  0.00    +0.041 A 
ATOM     19  C   UNL     1       2.144  -0.662 -11.013  0.00  0.00    +0.195 A 
ATOM     20  O   UNL     1       3.068  -0.015 -10.284  0.00  0.00    -0.466 OA
ENDBRANCH   4  16
BRANCH   1  21
ATOM     21  C   UNL     1       4.405   0.356  -5.983  0.00  0.00    +0.175 C 
BRANCH  21  22
ATOM     22  S   UNL     1       3.582  -0.760  -4.819  0.00  0.00    -0.077 S 
BRANCH  22  28
ATOM     23  C   UNL     1       2.310  -1.296  -1.814  0.00  0.00    +0.152 C 
ATOM     24  N   UNL     1       2.905  -0.016  -2.208  0.00  0.00    -0.309 N 
ATOM     25  C   UNL     1       3.024   1.110  -1.441  0.00  0.00    +0.139 A 
ATOM     26  N   UNL     1       3.614   2.015  -2.170  0.00  0.00    -0.133 NA
ATOM     27  N   UNL     1       3.869   1.543  -3.338  0.00  0.00    -0.122 NA
ATOM     28  C   UNL     1       3.453   0.300  -3.418  0.00  0.00    +0.192 A 
BRANCH  25  29
ATOM     29  C   UNL     1       2.565   1.272  -0.015  0.00  0.00    +0.118 C 
BRANCH  29  30
ATOM     30  C   UNL     1       1.146   1.780   0.001  0.00  0.00    -0.003 A 
ATOM     31  C   UNL     1      -0.013   1.076   0.008  0.00  0.00    +0.011 A 
ATOM     32  C   UNL     1      -1.213   1.761   0.017  0.00  0.00    +0.008 A 
ATOM     33  C   UNL     1      -1.196   3.116   0.030  0.00  0.00    +0.045 A 
ATOM     34  S   UNL     1       0.555   3.464   0.015  0.00  0.00    -0.101 S 
ENDBRANCH  29  30
ENDBRANCH  25  29
ENDBRANCH  22  28
ENDBRANCH  21  22
ENDBRANCH   1  21
TORSDOF 8
