REMARK  Name = ZINC63385566
REMARK  11 active torsions:
REMARK  status: ('A' for Active; 'I' for Inactive)
REMARK    1  A    between atoms: C_1  and  C_2
REMARK    2  A    between atoms: C_7  and  O_12
REMARK    3  A    between atoms: C_9  and  O_10
REMARK    4  A    between atoms: O_10  and  C_11
REMARK    5  A    between atoms: O_12  and  C_13
REMARK    6  A    between atoms: C_17  and  C_19
REMARK    7  A    between atoms: C_19  and  C_20
REMARK    8  A    between atoms: N_22  and  C_23
REMARK    9  A    between atoms: C_23  and  C_25
REMARK   10  A    between atoms: C_23  and  C_26
REMARK   11  A    between atoms: C_26  and  C_27
REMARK                            x       y       z     vdW  Elec       q    Type
REMARK                         _______ _______ _______ _____ _____    ______ ____
ROOT
ATOM      1  C   UNL     1       0.440  -1.995   1.459  0.00  0.00    +0.111 C 
ENDROOT
BRANCH   1  13
ATOM      2  C   UNL     1      -0.019   1.526   0.010  0.00  0.00    +0.013 C 
ATOM      3  C   UNL     1       0.002  -0.004   0.002  0.00  0.00    +0.037 C 
ATOM      4  C   UNL     1       0.705  -0.489  -1.241  0.00  0.00    +0.040 A 
ATOM      5  C   UNL     1       2.024  -0.904  -1.219  0.00  0.00    +0.142 A 
ATOM      6  C   UNL     1       2.635  -1.333  -2.392  0.00  0.00    +0.092 A 
ATOM      7  C   UNL     1       1.927  -1.353  -3.582  0.00  0.00    +0.127 A 
ATOM      8  C   UNL     1       0.602  -0.943  -3.604  0.00  0.00    +0.091 A 
ATOM      9  C   UNL     1      -0.006  -0.512  -2.437  0.00  0.00    +0.130 A 
ATOM     10  O   UNL     1       2.753  -0.919  -0.070  0.00  0.00    -0.425 OA
ATOM     11  C   UNL     1       2.223  -0.314   1.012  0.00  0.00    +0.317 C 
ATOM     12  O   UNL     1       2.899   0.353   1.759  0.00  0.00    -0.250 OA
ATOM     13  C   UNL     1       0.740  -0.510   1.246  0.00  0.00    +0.114 C 
BRANCH   9  14
ATOM     14  O   UNL     1      -1.304  -0.110  -2.459  0.00  0.00    -0.495 OA
ATOM     15  C   UNL     1      -1.976  -0.158  -3.720  0.00  0.00    +0.277 C 
ENDBRANCH   9  14
BRANCH   7  16
ATOM     16  O   UNL     1       2.528  -1.773  -4.726  0.00  0.00    -0.495 OA
ATOM     17  C   UNL     1       1.736  -1.768  -5.916  0.00  0.00    +0.277 C 
ENDBRANCH   7  16
ENDBRANCH   1  13
BRANCH   1  18
ATOM     18  C   UNL     1       1.068  -2.454   2.749  0.00  0.00    +0.214 C 
ATOM     19  O   UNL     1       1.695  -1.671   3.431  0.00  0.00    -0.276 OA
ATOM     20  N   UNL     1       0.935  -3.735   3.146  0.00  0.00    -0.312 N 
ATOM     21  H   UNL     1       0.434  -4.362   2.600  0.00  0.00    +0.149 HD
BRANCH  20  22
ATOM     22  C   UNL     1       1.546  -4.182   4.400  0.00  0.00    +0.074 C 
ATOM     23  C   UNL     1       0.601  -3.877   5.564  0.00  0.00    +0.028 C 
BRANCH  22  24
ATOM     24  C   UNL     1       1.804  -5.688   4.334  0.00  0.00    +0.055 C 
BRANCH  24  25
ATOM     25  C   UNL     1       2.828  -5.976   3.267  0.00  0.00    -0.040 C 
ATOM     26  C   UNL     1       4.161  -6.126   3.439  0.00  0.00    -0.001 A 
ATOM     27  C   UNL     1       5.024  -6.067   4.625  0.00  0.00    +0.010 A 
ATOM     28  C   UNL     1       6.354  -6.262   4.479  0.00  0.00    +0.001 A 
ATOM     29  C   UNL     1       6.929  -6.518   3.227  0.00  0.00    +0.002 A 
ATOM     30  C   UNL     1       6.202  -6.587   2.091  0.00  0.00    +0.026 A 
ATOM     31  C   UNL     1       4.792  -6.398   2.128  0.00  0.00    +0.043 A 
ATOM     32  N   UNL     1       3.885  -6.416   1.182  0.00  0.00    -0.380 N 
ATOM     33  C   UNL     1       2.573  -6.162   1.788  0.00  0.00    +0.144 C 
ATOM     34  H   UNL     1       4.052  -6.574   0.240  0.00  0.00    +0.160 HD
ENDBRANCH  24  25
ENDBRANCH  22  24
ENDBRANCH  20  22
ENDBRANCH   1  18
TORSDOF 7
