REMARK  Name = ZINC05515244
REMARK  3 active torsions:
REMARK  status: ('A' for Active; 'I' for Inactive)
REMARK    1  A    between atoms: C_4  and  C_7
REMARK    2  A    between atoms: C_8  and  C_9
REMARK    3  A    between atoms: CA_22  and  C_24
REMARK                            x       y       z     vdW  Elec       q    Type
REMARK                         _______ _______ _______ _____ _____    ______ ____
ROOT
ATOM      1  C   UNL     1      -4.954   0.892   0.030  0.00  0.00    +0.001 C 
ATOM      2  C   UNL     1      -5.790   1.312   1.216  0.00  0.00    +0.010 A 
ATOM      3  C   UNL     1      -5.911   0.562   2.335  0.00  0.00    -0.021 A 
ATOM      4  C   UNL     1      -6.783   1.280   3.238  0.00  0.00    +0.003 A 
ATOM      5  C   UNL     1      -7.262   1.000   4.522  0.00  0.00    +0.010 A 
ATOM      6  C   UNL     1      -8.092   1.933   5.093  0.00  0.00    +0.001 A 
ATOM      7  C   UNL     1      -8.447   3.101   4.438  0.00  0.00    +0.002 A 
ATOM      8  C   UNL     1      -7.988   3.404   3.168  0.00  0.00    +0.026 A 
ATOM      9  C   UNL     1      -7.143   2.476   2.564  0.00  0.00    +0.047 A 
ATOM     10  N   UNL     1      -6.524   2.460   1.346  0.00  0.00    -0.359 N 
ATOM     11  H   UNL     1      -6.594   3.157   0.675  0.00  0.00    +0.166 HD
ATOM     12  C   UNL     1      -5.226  -0.768   2.523  0.00  0.00    +0.033 C 
ATOM     13  CA  UNL     1      -4.125  -0.888   1.461  0.00  0.00    +0.049 C 
ATOM     14  N   UNL     1      -4.680  -0.558   0.132  0.00  0.00    +0.396 N 
ATOM     15  H1  UNL     1      -4.003  -0.826  -0.592  0.00  0.00    -0.083 HD
ATOM     16  H2  UNL     1      -5.554  -1.078  -0.007  0.00  0.00    -0.083 HD
ENDROOT
BRANCH  13  17
ATOM     17  C   UNL     1      -3.601  -2.301   1.438  0.00  0.00    +0.343 C 
ATOM     18  O   UNL     1      -3.983  -3.074   0.591  0.00  0.00    -0.248 OA
ATOM     19  OXT UNL     1      -2.710  -2.702   2.359  0.00  0.00    -0.248 OA
ENDBRANCH  13  17
BRANCH   1  21
ATOM     20  C   UNL     1      -2.502   1.007   0.019  0.00  0.00    +0.002 C 
ATOM     21  C   UNL     1      -3.657   1.658   0.028  0.00  0.00    -0.036 C 
BRANCH  20  25
ATOM     22  C   UNL     1       1.155   3.167   0.008  0.00  0.00    +0.000 A 
ATOM     23  C   UNL     1       1.172   1.783   0.000  0.00  0.00    +0.001 A 
ATOM     24  C   UNL     1      -0.013   1.076   0.008  0.00  0.00    +0.008 A 
ATOM     25  C   UNL     1      -1.230   1.758   0.017  0.00  0.00    -0.025 A 
ATOM     26  C   UNL     1      -1.240   3.154   0.029  0.00  0.00    +0.008 A 
ATOM     27  C   UNL     1      -0.048   3.849   0.022  0.00  0.00    +0.001 A 
ENDBRANCH  20  25
ENDBRANCH   1  21
TORSDOF 3
