REMARK  Name = ZINC25192946
REMARK  8 active torsions:
REMARK  status: ('A' for Active; 'I' for Inactive)
REMARK    1  A    between atoms: C_1  and  S_2
REMARK    2  A    between atoms: S_2  and  C_3
REMARK    3  A    between atoms: C_6  and  C_15
REMARK    4  A    between atoms: N_7  and  C_8
REMARK    5  A    between atoms: C_15  and  O_17
REMARK    6  A    between atoms: O_17  and  C_18
REMARK    7  A    between atoms: C_18  and  C_19
REMARK    8  A    between atoms: N_24  and  C_25
REMARK                            x       y       z     vdW  Elec       q    Type
REMARK                         _______ _______ _______ _____ _____    ______ ____
ROOT
ATOM      1  C   UNL     1       2.261  -2.588  -3.966  0.00  0.00    +0.358 C 
ATOM      2  O   UNL     1       2.846  -2.329  -5.002  0.00  0.00    -0.243 OA
ENDROOT
BRANCH   1   6
ATOM      3  C   UNL     1       0.848  -0.411  -1.489  0.00  0.00    +0.174 A 
ATOM      4  N   UNL     1       1.335   0.457  -2.354  0.00  0.00    -0.229 NA
ATOM      5  C   UNL     1       1.911  -0.185  -3.367  0.00  0.00    +0.147 A 
ATOM      6  C   UNL     1       1.788  -1.540  -3.139  0.00  0.00    +0.152 A 
ATOM      7  N   UNL     1       1.110  -1.670  -1.929  0.00  0.00    -0.282 N 
BRANCH   7   8
ATOM      8  C   UNL     1       0.762  -2.869  -1.291  0.00  0.00    +0.049 A 
ATOM      9  C   UNL     1       1.754  -3.714  -0.810  0.00  0.00    +0.029 A 
ATOM     10  C   UNL     1       1.409  -4.894  -0.182  0.00  0.00    +0.040 A 
ATOM     11  C   UNL     1       0.075  -5.236  -0.031  0.00  0.00    +0.124 A 
ATOM     12  C   UNL     1      -0.915  -4.394  -0.510  0.00  0.00    +0.040 A 
ATOM     13  C   UNL     1      -0.574  -3.210  -1.134  0.00  0.00    +0.029 A 
ATOM     14  F   UNL     1      -0.260  -6.391   0.583  0.00  0.00    -0.205 F 
ENDBRANCH   7   8
BRANCH   3  16
ATOM     15  C   UNL     1      -0.022   1.810   0.012  0.00  0.00    +0.093 C 
ATOM     16  S   UNL     1       0.002  -0.004   0.002  0.00  0.00    -0.091 S 
ENDBRANCH   3  16
ENDBRANCH   1   6
BRANCH   1  17
ATOM     17  O   UNL     1       2.062  -3.873  -3.607  0.00  0.00    -0.451 OA
BRANCH  17  18
ATOM     18  C   UNL     1       2.565  -4.879  -4.489  0.00  0.00    +0.328 C 
BRANCH  18  19
ATOM     19  C   UNL     1       2.253  -6.242  -3.927  0.00  0.00    +0.258 C 
ATOM     20  O   UNL     1       1.658  -6.342  -2.875  0.00  0.00    -0.272 OA
ATOM     21  N   UNL     1       2.635  -7.349  -4.593  0.00  0.00    -0.237 N 
ATOM     22  C   UNL     1       2.355  -8.568  -4.091  0.00  0.00    +0.306 C 
ATOM     23  O   UNL     1       1.759  -8.669  -3.037  0.00  0.00    -0.252 OA
ATOM     24  N   UNL     1       2.737  -9.676  -4.758  0.00  0.00    -0.296 N 
ATOM     25  H   UNL     1       3.111  -7.269  -5.435  0.00  0.00    +0.159 HD
ATOM     26  H   UNL     1       3.213  -9.595  -5.599  0.00  0.00    +0.151 HD
BRANCH  24  27
ATOM     27  C   UNL     1       2.433 -11.001  -4.212  0.00  0.00    +0.074 C 
ATOM     28  C   UNL     1       3.522 -11.403  -3.215  0.00  0.00    +0.022 C 
ATOM     29  C   UNL     1       3.205 -12.787  -2.644  0.00  0.00    +0.002 C 
ATOM     30  C   UNL     1       3.152 -13.808  -3.783  0.00  0.00    +0.000 C 
ATOM     31  C   UNL     1       2.064 -13.406  -4.779  0.00  0.00    +0.002 C 
ATOM     32  C   UNL     1       2.381 -12.022  -5.350  0.00  0.00    +0.022 C 
ENDBRANCH  24  27
ENDBRANCH  18  19
ENDBRANCH  17  18
ENDBRANCH   1  17
TORSDOF 7
