REMARK  Name = ZINC15245186
REMARK  8 active torsions:
REMARK  status: ('A' for Active; 'I' for Inactive)
REMARK    1  A    between atoms: C_1  and  C_2
REMARK    2  A    between atoms: C_2  and  C_22
REMARK    3  A    between atoms: N_5  and  C_9
REMARK    4  A    between atoms: C_9  and  C_10
REMARK    5  A    between atoms: C_10  and  C_12
REMARK    6  A    between atoms: C_10  and  O_21
REMARK    7  A    between atoms: C_12  and  O_13
REMARK    8  A    between atoms: O_13  and  C_14
REMARK                            x       y       z     vdW  Elec       q    Type
REMARK                         _______ _______ _______ _____ _____    ______ ____
ROOT
ATOM      1  C   UNL     1      -0.019   1.526   0.010  0.00  0.00    +0.047 C 
ATOM      2  C   UNL     1       0.002  -0.004   0.002  0.00  0.00    +0.135 C 
ATOM      3  C   UNL     1      -1.403  -0.557   0.139  0.00  0.00    +0.251 C 
ATOM      4  O   UNL     1      -2.332  -0.392  -0.621  0.00  0.00    -0.272 OA
ATOM      5  N   UNL     1      -1.403  -1.272   1.282  0.00  0.00    -0.221 N 
ATOM      6  C   UNL     1      -0.206  -1.247   1.879  0.00  0.00    +0.310 C 
ATOM      7  O   UNL     1       0.040  -1.819   2.924  0.00  0.00    -0.252 OA
ATOM      8  N   UNL     1       0.695  -0.520   1.195  0.00  0.00    -0.281 N 
ATOM      9  H   UNL     1       1.621  -0.365   1.440  0.00  0.00    +0.152 HD
ENDROOT
BRANCH   2  10
ATOM     10  C   UNL     1       0.657  -0.517  -1.255  0.00  0.00    -0.012 A 
ATOM     11  C   UNL     1      -0.109  -0.771  -2.377  0.00  0.00    +0.010 A 
ATOM     12  C   UNL     1       0.487  -1.242  -3.532  0.00  0.00    +0.050 A 
ATOM     13  C   UNL     1       1.855  -1.459  -3.567  0.00  0.00    +0.166 A 
ATOM     14  C   UNL     1       2.627  -1.203  -2.437  0.00  0.00    +0.167 A 
ATOM     15  C   UNL     1       2.023  -0.727  -1.284  0.00  0.00    +0.055 A 
ATOM     16  O   UNL     1       3.929  -1.494  -2.723  0.00  0.00    -0.453 OA
ATOM     17  C   UNL     1       3.890  -2.315  -3.904  0.00  0.00    +0.466 C 
ATOM     18  O   UNL     1       2.674  -1.910  -4.562  0.00  0.00    -0.453 OA
ENDBRANCH   2  10
BRANCH   5  19
ATOM     19  C   UNL     1      -2.569  -1.986   1.805  0.00  0.00    +0.152 C 
BRANCH  19  20
ATOM     20  C   UNL     1      -2.585  -3.413   1.252  0.00  0.00    +0.170 C 
BRANCH  20  21
ATOM     21  O   UNL     1      -2.654  -3.369  -0.175  0.00  0.00    -0.387 OA
ATOM     22  H   UNL     1      -3.440  -2.921  -0.517  0.00  0.00    +0.210 HD
ENDBRANCH  20  21
BRANCH  20  23
ATOM     23  C   UNL     1      -3.803  -4.159   1.798  0.00  0.00    +0.261 C 
BRANCH  23  24
ATOM     24  O   UNL     1      -3.756  -5.523   1.375  0.00  0.00    -0.489 OA
BRANCH  24  25
ATOM     25  C   UNL     1      -4.772  -6.330   1.778  0.00  0.00    +0.121 A 
ATOM     26  C   UNL     1      -5.798  -5.818   2.560  0.00  0.00    +0.047 A 
ATOM     27  C   UNL     1      -6.830  -6.640   2.969  0.00  0.00    +0.019 A 
ATOM     28  C   UNL     1      -6.842  -7.973   2.599  0.00  0.00    +0.018 A 
ATOM     29  C   UNL     1      -5.820  -8.486   1.820  0.00  0.00    +0.019 A 
ATOM     30  C   UNL     1      -4.789  -7.666   1.404  0.00  0.00    +0.047 A 
ATOM     31 BR   UNL     1      -8.256  -9.095   3.160  0.00  0.00    -0.050 Br
ENDBRANCH  24  25
ENDBRANCH  23  24
ENDBRANCH  20  23
ENDBRANCH  19  20
ENDBRANCH   5  19
TORSDOF 7
