REMARK  Name = ZINC09124456
REMARK  10 active torsions:
REMARK  status: ('A' for Active; 'I' for Inactive)
REMARK    1  A    between atoms: C_1  and  C_2
REMARK    2  A    between atoms: C_4  and  O_32
REMARK    3  A    between atoms: C_5  and  C_9
REMARK    4  A    between atoms: N_17  and  C_28
REMARK    5  A    between atoms: C_18  and  C_20
REMARK    6  A    between atoms: C_24  and  O_26
REMARK    7  A    between atoms: O_26  and  C_27
REMARK    8  A    between atoms: C_28  and  C_29
REMARK    9  A    between atoms: C_29  and  C_30
REMARK   10  A    between atoms: C_30  and  O_31
REMARK                            x       y       z     vdW  Elec       q    Type
REMARK                         _______ _______ _______ _____ _____    ______ ____
ROOT
ATOM      1  C   UNL     1       0.058  -4.256  -0.011  0.00  0.00    +0.075 A 
ATOM      2  C   UNL     1       1.056  -5.053  -0.475  0.00  0.00    +0.035 A 
ATOM      3  C   UNL     1       0.621  -6.382  -0.268  0.00  0.00    +0.153 A 
ATOM      4  N   UNL     1      -0.572  -6.312   0.288  0.00  0.00    -0.168 NA
ATOM      5  N   UNL     1      -0.921  -5.086   0.454  0.00  0.00    -0.276 N 
ATOM      6  H   UNL     1      -1.758  -4.794   0.849  0.00  0.00    +0.189 HD
ATOM      7  C   UNL     1       1.677  -7.286  -0.758  0.00  0.00    +0.268 C 
ATOM      8  O   UNL     1       1.619  -8.500  -0.728  0.00  0.00    -0.268 OA
ATOM      9  N   UNL     1       2.712  -6.579  -1.243  0.00  0.00    -0.285 N 
ATOM     10  C   UNL     1       2.417  -5.147  -1.109  0.00  0.00    +0.141 C 
ENDROOT
BRANCH   1  15
ATOM     11  C   UNL     1      -0.018   1.503   0.010  0.00  0.00    +0.045 C 
ATOM     12  C   UNL     1       0.002  -0.004   0.002  0.00  0.00    -0.029 A 
ATOM     13  C   UNL     1       0.006  -0.685  -1.201  0.00  0.00    +0.050 A 
ATOM     14  C   UNL     1       0.024  -2.070  -1.215  0.00  0.00    +0.126 A 
ATOM     15  C   UNL     1       0.039  -2.777  -0.007  0.00  0.00    +0.043 A 
ATOM     16  C   UNL     1       0.036  -2.080   1.201  0.00  0.00    +0.034 A 
ATOM     17  C   UNL     1       0.023  -0.699   1.199  0.00  0.00    +0.045 A 
ATOM     18 CL   UNL     1       0.026   0.168   2.703  0.00  0.00    -0.083 Cl
BRANCH  14  19
ATOM     19  O   UNL     1       0.027  -2.740  -2.397  0.00  0.00    -0.506 OA
ATOM     20  H   UNL     1       0.911  -2.922  -2.744  0.00  0.00    +0.292 HD
ENDBRANCH  14  19
ENDBRANCH   1  15
BRANCH  10  21
ATOM     21  C   UNL     1       2.401  -4.493  -2.467  0.00  0.00    -0.019 A 
ATOM     22  C   UNL     1       1.859  -5.162  -3.550  0.00  0.00    +0.006 A 
ATOM     23  C   UNL     1       1.843  -4.564  -4.796  0.00  0.00    +0.004 A 
ATOM     24  C   UNL     1       2.369  -3.297  -4.963  0.00  0.00    +0.045 A 
ATOM     25  C   UNL     1       2.913  -2.625  -3.879  0.00  0.00    +0.120 A 
ATOM     26  C   UNL     1       2.922  -3.224  -2.628  0.00  0.00    +0.051 A 
BRANCH  25  27
ATOM     27  O   UNL     1       3.431  -1.379  -4.041  0.00  0.00    -0.495 OA
ATOM     28  C   UNL     1       3.381  -0.822  -5.356  0.00  0.00    +0.277 C 
ENDBRANCH  25  27
ENDBRANCH  10  21
BRANCH   9  29
ATOM     29  C   UNL     1       3.937  -7.145  -1.812  0.00  0.00    +0.111 C 
BRANCH  29  30
ATOM     30  C   UNL     1       3.754  -7.346  -3.318  0.00  0.00    +0.047 C 
BRANCH  30  31
ATOM     31  C   UNL     1       5.033  -7.937  -3.913  0.00  0.00    +0.157 C 
BRANCH  31  32
ATOM     32  O   UNL     1       4.862  -8.124  -5.320  0.00  0.00    -0.395 OA
ATOM     33  H   UNL     1       5.636  -8.497  -5.764  0.00  0.00    +0.209 HD
ENDBRANCH  31  32
ENDBRANCH  30  31
ENDBRANCH  29  30
ENDBRANCH   9  29
TORSDOF 8
