REMARK  Name = ZINC39248311
REMARK  7 active torsions:
REMARK  status: ('A' for Active; 'I' for Inactive)
REMARK    1  A    between atoms: C_1  and  C_2
REMARK    2  A    between atoms: C_2  and  C_30
REMARK    3  A    between atoms: N_3  and  O_4
REMARK    4  A    between atoms: O_4  and  C_5
REMARK    5  A    between atoms: C_5  and  C_6
REMARK    6  A    between atoms: N_17  and  N_18
REMARK    7  A    between atoms: C_19  and  C_20
REMARK                            x       y       z     vdW  Elec       q    Type
REMARK                         _______ _______ _______ _____ _____    ______ ____
ROOT
ATOM      1  C   UNL     1       0.051   0.065   4.779  0.00  0.00    +0.225 C 
ATOM      2  N   UNL     1       1.239   0.927   4.784  0.00  0.00    -0.321 N 
ATOM      3  C   UNL     1       1.259   2.036   3.945  0.00  0.00    +0.041 A 
ATOM      4  C   UNL     1       2.437   2.538   3.421  0.00  0.00    +0.024 A 
ATOM      5  C   UNL     1       2.400   3.640   2.588  0.00  0.00    +0.002 A 
ATOM      6  C   UNL     1       1.194   4.246   2.274  0.00  0.00    +0.001 A 
ATOM      7  C   UNL     1       0.010   3.760   2.790  0.00  0.00    +0.015 A 
ATOM      8  C   UNL     1       0.033   2.651   3.633  0.00  0.00    +0.059 A 
ATOM      9  C   UNL     1      -1.200   2.097   4.220  0.00  0.00    +0.269 C 
ATOM     10  O   UNL     1      -2.237   2.731   4.185  0.00  0.00    -0.268 OA
ATOM     11  N   UNL     1      -1.163   0.881   4.795  0.00  0.00    -0.165 N 
ATOM     12  H   UNL     1       1.994   0.728   5.360  0.00  0.00    +0.148 HD
ENDROOT
BRANCH  11  13
ATOM     13  N   UNL     1      -2.315   0.387   5.421  0.00  0.00    -0.185 NA
ATOM     14  C   UNL     1      -2.332  -0.808   5.879  0.00  0.00    +0.132 C 
BRANCH  14  15
ATOM     15  C   UNL     1      -3.604  -1.377   6.453  0.00  0.00    +0.146 C 
ATOM     16  C   UNL     1      -3.990  -2.640   5.715  0.00  0.00    +0.013 C 
ATOM     17  C   UNL     1      -3.987  -3.629   6.638  0.00  0.00    -0.004 A 
ATOM     18  C   UNL     1      -4.273  -5.066   6.556  0.00  0.00    +0.010 A 
ATOM     19  C   UNL     1      -4.186  -5.817   7.678  0.00  0.00    +0.001 A 
ATOM     20  C   UNL     1      -3.831  -5.259   8.913  0.00  0.00    +0.002 A 
ATOM     21  C   UNL     1      -3.554  -3.947   9.068  0.00  0.00    +0.026 A 
ATOM     22  C   UNL     1      -3.615  -3.064   7.955  0.00  0.00    +0.043 A 
ATOM     23  N   UNL     1      -3.396  -1.774   7.850  0.00  0.00    -0.373 N 
ATOM     24  H   UNL     1      -3.139  -1.181   8.574  0.00  0.00    +0.161 HD
ENDBRANCH  14  15
ENDBRANCH  11  13
BRANCH   1  25
ATOM     25  C   UNL     1       0.061  -0.804   3.520  0.00  0.00    +0.306 C 
BRANCH  25  26
ATOM     26  O   UNL     1       0.040   0.034   2.362  0.00  0.00    -0.390 OA
BRANCH  26  29
ATOM     27  C   UNL     1       0.003   1.476   0.014  0.00  0.00    +0.069 C 
ATOM     28  C   UNL     1       0.030  -0.031   0.016  0.00  0.00    +0.084 C 
ATOM     29  N   UNL     1       0.047  -0.676   1.137  0.00  0.00    -0.089 NA
BRANCH  28  30
ATOM     30  C   UNL     1       0.038  -0.771  -1.261  0.00  0.00    -0.001 A 
ATOM     31  C   UNL     1       0.025  -0.078  -2.473  0.00  0.00    +0.010 A 
ATOM     32  C   UNL     1       0.032  -0.775  -3.663  0.00  0.00    +0.001 A 
ATOM     33  C   UNL     1       0.051  -2.159  -3.658  0.00  0.00    +0.000 A 
ATOM     34  C   UNL     1       0.063  -2.852  -2.460  0.00  0.00    +0.001 A 
ATOM     35  C   UNL     1       0.063  -2.167  -1.263  0.00  0.00    +0.010 A 
ENDBRANCH  28  30
ENDBRANCH  26  29
ENDBRANCH  25  26
ENDBRANCH   1  25
TORSDOF 6
