REMARK  Name = ZINC66938715
REMARK  3 active torsions:
REMARK  status: ('A' for Active; 'I' for Inactive)
REMARK    1  A    between atoms: C_2  and  C_3
REMARK    2  A    between atoms: C_7  and  N_9
REMARK    3  A    between atoms: C_13  and  C_16
REMARK                            x       y       z     vdW  Elec       q    Type
REMARK                         _______ _______ _______ _____ _____    ______ ____
ROOT
ATOM      1  N   UNL     1       2.321   4.246  -0.010  0.00  0.00    -0.225 NA
ATOM      2  C   UNL     1       2.490   5.217  -0.880  0.00  0.00    +0.174 C 
ATOM      3  N   UNL     1       1.482   5.637  -1.735  0.00  0.00    -0.215 N 
ATOM      4  N   UNL     1       1.803   6.045  -3.027  0.00  0.00    -0.184 NA
ATOM      5  C   UNL     1       2.955   6.227  -3.535  0.00  0.00    +0.079 C 
ATOM      6  C   UNL     1       4.278   6.012  -2.853  0.00  0.00    +0.134 C 
ATOM      7  S   UNL     1       4.026   6.095  -1.045  0.00  0.00    -0.083 S 
ATOM      8  H   UNL     1       0.559   5.647  -1.435  0.00  0.00    +0.176 HD
ENDROOT
BRANCH   5   9
ATOM      9  C   UNL     1       2.998   6.695  -4.930  0.00  0.00    +0.024 A 
ATOM     10  C   UNL     1       4.111   6.948  -5.669  0.00  0.00    +0.093 A 
ATOM     11  N   UNL     1       3.750   7.365  -6.916  0.00  0.00    -0.360 N 
ATOM     12  H   UNL     1       4.371   7.604  -7.622  0.00  0.00    +0.165 HD
ATOM     13  C   UNL     1       2.377   7.396  -7.030  0.00  0.00    +0.047 A 
ATOM     14  C   UNL     1       1.842   6.975  -5.801  0.00  0.00    +0.009 A 
ATOM     15  C   UNL     1       0.462   6.902  -5.628  0.00  0.00    +0.010 A 
ATOM     16  C   UNL     1      -0.374   7.242  -6.668  0.00  0.00    +0.001 A 
ATOM     17  C   UNL     1       0.152   7.655  -7.884  0.00  0.00    +0.002 A 
ATOM     18  C   UNL     1       1.515   7.740  -8.066  0.00  0.00    +0.026 A 
ENDBRANCH   5   9
BRANCH   1  23
ATOM     19  C   UNL     1      -0.498   2.217  -1.170  0.00  0.00    +0.027 A 
ATOM     20  C   UNL     1      -1.211   2.071   0.022  0.00  0.00    +0.017 A 
ATOM     21  C   UNL     1      -0.743   2.649   1.186  0.00  0.00    +0.003 A 
ATOM     22  C   UNL     1       0.432   3.373   1.180  0.00  0.00    +0.028 A 
ATOM     23  C   UNL     1       1.156   3.527  -0.005  0.00  0.00    +0.068 A 
ATOM     24  C   UNL     1       0.691   2.941  -1.182  0.00  0.00    +0.044 A 
BRANCH  19  26
ATOM     25  C   UNL     1      -1.385   1.126  -3.364  0.00  0.00    +0.009 C 
ATOM     26  C   UNL     1      -0.986   1.617  -2.376  0.00  0.00    -0.070 C 
ENDBRANCH  19  26
ENDBRANCH   1  23
TORSDOF 3
