REMARK  Name = ZINC06078928
REMARK  18 active torsions:
REMARK  status: ('A' for Active; 'I' for Inactive)
REMARK    1  A    between atoms: C_1  and  N_62
REMARK    2  A    between atoms: C_2  and  N_62
REMARK    3  A    between atoms: C_3  and  C_4
REMARK    4  A    between atoms: C_3  and  N_62
REMARK    5  A    between atoms: C_4  and  C_6
REMARK    6  A    between atoms: C_4  and  O_31
REMARK    7  A    between atoms: C_6  and  O_7
REMARK    8  A    between atoms: O_7  and  C_8
REMARK    9  A    between atoms: C_11  and  S_14
REMARK   10  A    between atoms: S_14  and  C_17
REMARK   11  A    between atoms: C_20  and  O_23
REMARK   12  A    between atoms: O_23  and  C_24
REMARK   13  A    between atoms: C_24  and  C_25
REMARK   14  A    between atoms: C_25  and  C_27
REMARK   15  A    between atoms: C_25  and  O_30
REMARK   16  A    between atoms: C_27  and  N_64
REMARK   17  A    between atoms: C_28  and  N_64
REMARK   18  A    between atoms: C_29  and  N_64
REMARK                            x       y       z     vdW  Elec       q    Type
REMARK                         _______ _______ _______ _____ _____    ______ ____
ROOT
ATOM      1  S   UNL     1       3.010  -0.448  -6.935  0.00  0.00    +0.025 S 
ATOM      2  O   UNL     1       3.777  -1.634  -7.087  0.00  0.00    -0.164 OA
ATOM      3  O   UNL     1       1.730  -0.287  -7.531  0.00  0.00    -0.164 OA
ENDROOT
BRANCH   1   7
ATOM      4  C   UNL     1       5.579   2.958  -8.452  0.00  0.00    +0.121 A 
ATOM      5  C   UNL     1       6.172   1.787  -8.005  0.00  0.00    +0.047 A 
ATOM      6  C   UNL     1       5.386   0.749  -7.543  0.00  0.00    +0.031 A 
ATOM      7  C   UNL     1       4.009   0.878  -7.525  0.00  0.00    +0.094 A 
ATOM      8  C   UNL     1       3.416   2.042  -7.975  0.00  0.00    +0.031 A 
ATOM      9  C   UNL     1       4.197   3.085  -8.434  0.00  0.00    +0.047 A 
BRANCH   4  10
ATOM     10  O   UNL     1       6.350   3.981  -8.907  0.00  0.00    -0.489 OA
BRANCH  10  11
ATOM     11  C   UNL     1       5.671   5.157  -9.352  0.00  0.00    +0.258 C 
BRANCH  11  12
ATOM     12  C   UNL     1       6.697   6.190  -9.823  0.00  0.00    +0.135 C 
BRANCH  12  13
ATOM     13  O   UNL     1       7.381   5.691 -10.974  0.00  0.00    -0.390 OA
ATOM     14  H   UNL     1       6.802   5.500 -11.725  0.00  0.00    +0.210 HD
ENDBRANCH  12  13
BRANCH  12  15
ATOM     15  C   UNL     1       5.980   7.493 -10.182  0.00  0.00    -0.045 C 
BRANCH  15  18
ATOM     16  C   UNL     1       6.345   9.648 -11.224  0.00  0.00    -0.096 C 
ATOM     17  C   UNL     1       7.687   8.980  -9.323  0.00  0.00    -0.096 C 
ATOM     18  N   UNL     1       6.992   8.509 -10.540  0.00  0.00    +0.378 N 
ATOM     19  H   UNL     1       7.680   8.086 -11.174  0.00  0.00    -0.083 HD
ENDBRANCH  15  18
ENDBRANCH  12  15
ENDBRANCH  11  12
ENDBRANCH  10  11
ENDBRANCH   4  10
ENDBRANCH   1   7
BRANCH   1  20
ATOM     20  C   UNL     1       2.793  -0.206  -5.203  0.00  0.00    +0.094 A 
ATOM     21  C   UNL     1       1.723   0.537  -4.738  0.00  0.00    +0.031 A 
ATOM     22  C   UNL     1       1.551   0.727  -3.381  0.00  0.00    +0.047 A 
ATOM     23  C   UNL     1       2.453   0.173  -2.484  0.00  0.00    +0.121 A 
ATOM     24  C   UNL     1       3.528  -0.567  -2.953  0.00  0.00    +0.047 A 
ATOM     25  C   UNL     1       3.693  -0.759  -4.311  0.00  0.00    +0.031 A 
BRANCH  23  26
ATOM     26  O   UNL     1       2.285   0.360  -1.148  0.00  0.00    -0.489 OA
BRANCH  26  27
ATOM     27  C   UNL     1       3.252  -0.240  -0.284  0.00  0.00    +0.258 C 
BRANCH  27  28
ATOM     28  C   UNL     1       2.901   0.077   1.171  0.00  0.00    +0.135 C 
BRANCH  28  29
ATOM     29  O   UNL     1       1.658  -0.543   1.507  0.00  0.00    -0.390 OA
ATOM     30  H   UNL     1       1.661  -1.506   1.417  0.00  0.00    +0.210 HD
ENDBRANCH  28  29
BRANCH  28  31
ATOM     31  C   UNL     1       4.002  -0.458   2.090  0.00  0.00    -0.045 C 
BRANCH  31  34
ATOM     32  C   UNL     1       4.495  -0.906   4.418  0.00  0.00    -0.096 C 
ATOM     33  C   UNL     1       3.878   1.329   3.719  0.00  0.00    -0.096 C 
ATOM     34  N   UNL     1       3.663  -0.115   3.487  0.00  0.00    +0.378 N 
ATOM     35  H   UNL     1       2.674  -0.336   3.654  0.00  0.00    -0.083 HD
ENDBRANCH  31  34
ENDBRANCH  28  31
ENDBRANCH  27  28
ENDBRANCH  26  27
ENDBRANCH  23  26
ENDBRANCH   1  20
TORSDOF 14
