REMARK  Name = ZINC04957089
REMARK  3 active torsions:
REMARK  status: ('A' for Active; 'I' for Inactive)
REMARK    1  A    between atoms: C_1  and  C_2
REMARK    2  A    between atoms: C_5  and  C_8
REMARK    3  A    between atoms: C_11  and  C_20
REMARK                            x       y       z     vdW  Elec       q    Type
REMARK                         _______ _______ _______ _____ _____    ______ ____
ROOT
ATOM      1  C   UNL     1      -2.504   1.006   0.020  0.00  0.00    +0.098 C 
ATOM      2  N   UNL     1      -2.457  -0.281  -0.086  0.00  0.00    -0.180 NA
ATOM      3  N   UNL     1      -3.624  -1.051   0.011  0.00  0.00    -0.219 N 
ATOM      4  C   UNL     1      -4.352  -0.974   1.189  0.00  0.00    +0.153 C 
ATOM      5  N   UNL     1      -4.865   0.149   1.602  0.00  0.00    -0.229 NA
ATOM      6  C   UNL     1      -4.859   1.317   0.898  0.00  0.00    +0.075 A 
ATOM      7  C   UNL     1      -3.768   1.765   0.149  0.00  0.00    +0.029 A 
ATOM      8  C   UNL     1      -3.858   2.982  -0.534  0.00  0.00    +0.027 A 
ATOM      9  C   UNL     1      -5.012   3.742  -0.469  0.00  0.00    +0.019 A 
ATOM     10  C   UNL     1      -6.092   3.298   0.271  0.00  0.00    +0.017 A 
ATOM     11  C   UNL     1      -6.021   2.098   0.949  0.00  0.00    +0.029 A 
ATOM     12 BR   UNL     1      -5.112   5.388  -1.394  0.00  0.00    -0.050 Br
ATOM     13  H   UNL     1      -3.913  -1.619  -0.721  0.00  0.00    +0.176 HD
ENDROOT
BRANCH   1  18
ATOM     14  C   UNL     1       2.449   3.938  -0.000  0.00  0.00    +0.044 C 
ATOM     15  C   UNL     1       1.153   3.169   0.008  0.00  0.00    -0.050 A 
ATOM     16  C   UNL     1       1.094   1.913  -0.569  0.00  0.00    +0.004 A 
ATOM     17  C   UNL     1      -0.089   1.204  -0.566  0.00  0.00    +0.010 A 
ATOM     18  C   UNL     1      -1.230   1.759   0.017  0.00  0.00    +0.003 A 
ATOM     19  C   UNL     1      -1.162   3.024   0.603  0.00  0.00    +0.010 A 
ATOM     20  C   UNL     1       0.028   3.723   0.592  0.00  0.00    +0.004 A 
ENDBRANCH   1  18
BRANCH   4  21
ATOM     21  C   UNL     1      -4.546  -2.185   1.989  0.00  0.00    +0.053 A 
ATOM     22  C   UNL     1      -4.095  -3.474   1.747  0.00  0.00    +0.019 A 
ATOM     23  C   UNL     1      -4.424  -4.434   2.672  0.00  0.00    +0.008 A 
ATOM     24  C   UNL     1      -5.161  -4.084   3.758  0.00  0.00    +0.046 A 
ATOM     25  S   UNL     1      -5.418  -2.385   3.533  0.00  0.00    -0.094 S 
ENDBRANCH   4  21
TORSDOF 2
