REMARK  Name = ZINC12484390
REMARK  7 active torsions:
REMARK  status: ('A' for Active; 'I' for Inactive)
REMARK    1  A    between atoms: C_4  and  C_7
REMARK    2  A    between atoms: C_7  and  C_8
REMARK    3  A    between atoms: C_8  and  C_9
REMARK    4  A    between atoms: N_13  and  C_17
REMARK    5  A    between atoms: C_17  and  C_18
REMARK    6  A    between atoms: N_23  and  S_26
REMARK    7  A    between atoms: S_26  and  C_29
REMARK                            x       y       z     vdW  Elec       q    Type
REMARK                         _______ _______ _______ _____ _____    ______ ____
ROOT
ATOM      1  C   UNL     1      -1.062  10.742  -4.164  0.00  0.00    +0.234 C 
ATOM      2  O   UNL     1      -0.443  11.128  -3.195  0.00  0.00    -0.274 OA
ATOM      3  N   UNL     1      -1.285  11.578  -5.197  0.00  0.00    -0.298 N 
ATOM      4  C   UNL     1      -2.027  11.121  -6.381  0.00  0.00    +0.125 C 
ATOM      5  C   UNL     1      -3.211  12.076  -6.609  0.00  0.00    +0.128 C 
ATOM      6  N   UNL     1      -2.712  13.458  -6.575  0.00  0.00    -0.174 NA
ATOM      7  C   UNL     1      -1.964  13.912  -5.394  0.00  0.00    +0.128 C 
ATOM      8  C   UNL     1      -0.785  12.959  -5.164  0.00  0.00    +0.125 C 
ENDROOT
BRANCH   6   9
ATOM      9  S   UNL     1      -2.985  14.484  -7.846  0.00  0.00    +0.061 S 
ATOM     10  O   UNL     1      -4.137  13.997  -8.521  0.00  0.00    -0.153 OA
ATOM     11  O   UNL     1      -2.909  15.804  -7.326  0.00  0.00    -0.153 OA
BRANCH   9  12
ATOM     12  C   UNL     1      -1.634  14.304  -8.962  0.00  0.00    +0.106 A 
ATOM     13  C   UNL     1      -0.516  15.106  -8.828  0.00  0.00    +0.030 A 
ATOM     14  C   UNL     1       0.547  14.961  -9.700  0.00  0.00    +0.022 A 
ATOM     15  C   UNL     1       0.488  14.021 -10.713  0.00  0.00    +0.041 A 
ATOM     16  C   UNL     1      -0.634  13.222 -10.850  0.00  0.00    +0.022 A 
ATOM     17  C   UNL     1      -1.694  13.364  -9.974  0.00  0.00    +0.030 A 
ATOM     18 CL   UNL     1       1.820  13.843 -11.812  0.00  0.00    -0.084 Cl
ENDBRANCH   9  12
ENDBRANCH   6   9
BRANCH   1  19
ATOM     19  C   UNL     1      -1.580   9.328  -4.212  0.00  0.00    +0.213 C 
BRANCH  19  23
ATOM     20  C   UNL     1      -0.112   7.394  -1.402  0.00  0.00    +0.161 C 
ATOM     21  C   UNL     1      -0.061   7.936  -2.817  0.00  0.00    +0.244 C 
ATOM     22  O   UNL     1       0.824   7.778  -3.630  0.00  0.00    -0.273 OA
ATOM     23  N   UNL     1      -1.209   8.629  -2.979  0.00  0.00    -0.216 N 
ATOM     24  C   UNL     1      -1.964   8.601  -1.875  0.00  0.00    +0.310 C 
ATOM     25  O   UNL     1      -3.042   9.155  -1.779  0.00  0.00    -0.252 OA
ATOM     26  N   UNL     1      -1.397   7.892  -0.882  0.00  0.00    -0.288 N 
ATOM     27  H   UNL     1      -1.763   7.739   0.003  0.00  0.00    +0.151 HD
BRANCH  20  28
ATOM     28  C   UNL     1      -0.091   5.864  -1.410  0.00  0.00    +0.036 C 
BRANCH  28  29
ATOM     29  C   UNL     1      -0.070   5.347   0.030  0.00  0.00    +0.037 C 
BRANCH  29  33
ATOM     30  C   UNL     1      -0.013   1.076   0.008  0.00  0.00    +0.000 A 
ATOM     31  C   UNL     1      -1.219   1.751   0.017  0.00  0.00    +0.000 A 
ATOM     32  C   UNL     1      -1.238   3.133   0.030  0.00  0.00    +0.003 A 
ATOM     33  C   UNL     1      -0.050   3.840   0.022  0.00  0.00    -0.047 A 
ATOM     34  C   UNL     1       1.156   3.165   0.008  0.00  0.00    +0.003 A 
ATOM     35  C   UNL     1       1.175   1.783   0.000  0.00  0.00    +0.000 A 
ENDBRANCH  29  33
ENDBRANCH  28  29
ENDBRANCH  20  28
ENDBRANCH  19  23
ENDBRANCH   1  19
TORSDOF 7
