REMARK  Name = ZINC58043784
REMARK  7 active torsions:
REMARK  status: ('A' for Active; 'I' for Inactive)
REMARK    1  A    between atoms: C_1  and  C_2
REMARK    2  A    between atoms: N_5  and  C_7
REMARK    3  A    between atoms: C_7  and  C_8
REMARK    4  A    between atoms: C_8  and  C_9
REMARK    5  A    between atoms: N_11  and  C_12
REMARK    6  A    between atoms: C_17  and  C_18
REMARK    7  A    between atoms: C_18  and  C_20
REMARK                            x       y       z     vdW  Elec       q    Type
REMARK                         _______ _______ _______ _____ _____    ______ ____
ROOT
ATOM      1  C   UNL     1      -1.120  -5.412   2.012  0.00  0.00    +0.219 C 
ATOM      2  O   UNL     1      -0.244  -5.548   2.839  0.00  0.00    -0.275 OA
ATOM      3  N   UNL     1      -2.059  -6.367   1.861  0.00  0.00    -0.285 N 
ATOM      4  H   UNL     1      -2.796  -6.230   1.245  0.00  0.00    +0.155 HD
ENDROOT
BRANCH   3   5
ATOM      5  C   UNL     1      -1.972  -7.551   2.590  0.00  0.00    +0.048 A 
ATOM      6  C   UNL     1      -1.478  -7.536   3.884  0.00  0.00    +0.073 A 
ATOM      7  C   UNL     1      -1.390  -8.713   4.611  0.00  0.00    +0.168 A 
ATOM      8  C   UNL     1      -1.799  -9.923   4.042  0.00  0.00    +0.167 A 
ATOM      9  C   UNL     1      -2.292  -9.953   2.756  0.00  0.00    +0.062 A 
ATOM     10  C   UNL     1      -2.389  -8.765   2.015  0.00  0.00    +0.042 A 
ATOM     11  O   UNL     1      -1.609 -10.919   4.958  0.00  0.00    -0.453 OA
ATOM     12  C   UNL     1      -0.703 -10.374   5.935  0.00  0.00    +0.466 C 
ATOM     13  O   UNL     1      -0.948  -8.956   5.877  0.00  0.00    -0.453 OA
BRANCH  10  14
ATOM     14  C   UNL     1      -2.917  -8.790   0.650  0.00  0.00    +0.162 C 
ATOM     15  O   UNL     1      -2.907  -7.781  -0.023  0.00  0.00    -0.292 OA
ATOM     16  C   UNL     1      -3.473 -10.070   0.080  0.00  0.00    +0.091 C 
ENDBRANCH  10  14
ENDBRANCH   3   5
BRANCH   1  17
ATOM     17  C   UNL     1      -1.160  -4.174   1.153  0.00  0.00    +0.119 C 
BRANCH  17  18
ATOM     18  C   UNL     1       0.009  -3.259   1.523  0.00  0.00    +0.152 C 
BRANCH  18  23
ATOM     19  C   UNL     1      -0.112   1.538   0.074  0.00  0.00    +0.047 C 
ATOM     20  C   UNL     1      -0.082   0.031   0.050  0.00  0.00    -0.013 A 
ATOM     21  C   UNL     1      -0.084  -0.774  -1.094  0.00  0.00    +0.137 A 
ATOM     22  N   UNL     1      -0.052  -2.026  -0.713  0.00  0.00    -0.179 NA
ATOM     23  N   UNL     1      -0.029  -2.056   0.688  0.00  0.00    -0.271 N 
ATOM     24  C   UNL     1      -0.043  -0.782   1.131  0.00  0.00    +0.111 A 
ENDBRANCH  18  23
ENDBRANCH  17  18
ENDBRANCH   1  17
TORSDOF 5
