REMARK  Name = ZINC30223900
REMARK  7 active torsions:
REMARK  status: ('A' for Active; 'I' for Inactive)
REMARK    1  A    between atoms: C_1  and  C_2
REMARK    2  A    between atoms: C_2  and  C_3
REMARK    3  A    between atoms: N_12  and  C_13
REMARK    4  A    between atoms: C_13  and  C_14
REMARK    5  A    between atoms: C_14  and  C_16
REMARK    6  A    between atoms: C_17  and  N_28
REMARK    7  A    between atoms: N_18  and  C_25
REMARK                            x       y       z     vdW  Elec       q    Type
REMARK                         _______ _______ _______ _____ _____    ______ ____
ROOT
ATOM      1  C   UNL     1      -2.640   1.887  -2.670  0.00  0.00    +0.155 C 
ATOM      2  O   UNL     1      -1.939   2.623  -3.336  0.00  0.00    -0.294 OA
ENDROOT
BRANCH   1   3
ATOM      3  C   UNL     1      -4.028   1.824  -2.913  0.00  0.00    +0.118 A 
ATOM      4  C   UNL     1      -4.605   2.497  -4.004  0.00  0.00    +0.116 A 
ATOM      5  N   UNL     1      -5.954   2.405  -4.198  0.00  0.00    -0.278 N 
ATOM      6  C   UNL     1      -6.731   1.689  -3.371  0.00  0.00    +0.331 A 
ATOM      7  O   UNL     1      -7.926   1.639  -3.587  0.00  0.00    -0.246 OA
ATOM      8  N   UNL     1      -6.237   1.025  -2.314  0.00  0.00    -0.274 N 
ATOM      9  H   UNL     1      -6.911   0.453  -1.659  0.00  0.00    +0.173 HD
ATOM     10  C   UNL     1      -4.916   1.047  -2.038  0.00  0.00    +0.266 A 
ATOM     11  O   UNL     1      -4.471   0.439  -1.083  0.00  0.00    -0.267 OA
BRANCH   5  12
ATOM     12  C   UNL     1      -6.564   3.103  -5.332  0.00  0.00    +0.094 C 
ATOM     13  C   UNL     1      -7.562   2.321  -6.189  0.00  0.00    +0.027 C 
ATOM     14  C   UNL     1      -6.171   2.646  -6.738  0.00  0.00    +0.027 C 
ENDBRANCH   5  12
BRANCH   4  15
ATOM     15  N   UNL     1      -3.832   3.228  -4.852  0.00  0.00    -0.344 N 
ATOM     16  H   UNL     1      -4.293   3.751  -5.703  0.00  0.00    +0.144 HD
ATOM     17  H   UNL     1      -2.747   3.295  -4.688  0.00  0.00    +0.144 HD
ENDBRANCH   4  15
ENDBRANCH   1   3
BRANCH   1  18
ATOM     18  C   UNL     1      -2.026   1.043  -1.583  0.00  0.00    +0.003 C 
BRANCH  18  27
ATOM     19  C   UNL     1      -0.007   0.800  -0.269  0.00  0.00    -0.037 C 
ATOM     20  C   UNL     1       1.496   1.061  -0.282  0.00  0.00    -0.051 A 
ATOM     21  C   UNL     1       2.292   1.075   0.862  0.00  0.00    +0.010 A 
ATOM     22  C   UNL     1       3.620   1.317   0.759  0.00  0.00    +0.045 A 
ATOM     23  S   UNL     1       3.819   1.542  -1.002  0.00  0.00    -0.101 S 
ATOM     24  C   UNL     1       2.128   1.298  -1.466  0.00  0.00    -0.010 A 
ATOM     25  C   UNL     1       1.499   1.332  -2.820  0.00  0.00    +0.024 C 
ATOM     26  C   UNL     1       0.097   0.713  -2.702  0.00  0.00    -0.072 C 
ATOM     27  N   UNL     1      -0.578   1.289  -1.530  0.00  0.00    +0.389 N 
ATOM     28  H   UNL     1      -0.412   2.376  -1.561  0.00  0.00    -0.080 HD
BRANCH  19  30
ATOM     29  C   UNL     1      -0.428   3.045   0.745  0.00  0.00    +0.002 C 
ATOM     30  C   UNL     1      -0.646   1.539   0.909  0.00  0.00    -0.014 C 
ENDBRANCH  19  30
ENDBRANCH  18  27
ENDBRANCH   1  18
TORSDOF 6
