REMARK  Name = ZINC12182870
REMARK  7 active torsions:
REMARK  status: ('A' for Active; 'I' for Inactive)
REMARK    1  A    between atoms: C_1  and  C_2
REMARK    2  A    between atoms: C_5  and  C_7
REMARK    3  A    between atoms: C_9  and  N_23
REMARK    4  A    between atoms: N_12  and  C_14
REMARK    5  A    between atoms: C_14  and  C_16
REMARK    6  A    between atoms: C_14  and  C_17
REMARK    7  A    between atoms: N_19  and  C_20
REMARK                            x       y       z     vdW  Elec       q    Type
REMARK                         _______ _______ _______ _____ _____    ______ ____
ROOT
ATOM      1  C   UNL     1      -3.647   2.604   3.119  0.00  0.00    +0.128 A 
ATOM      2  C   UNL     1      -4.770   2.534   2.267  0.00  0.00    +0.061 A 
ATOM      3  C   UNL     1      -6.002   2.870   2.747  0.00  0.00    +0.094 A 
ATOM      4  C   UNL     1      -6.128   3.296   4.094  0.00  0.00    +0.289 A 
ATOM      5  O   UNL     1      -7.221   3.606   4.541  0.00  0.00    -0.264 OA
ATOM      6  N   UNL     1      -5.033   3.357   4.877  0.00  0.00    -0.216 N 
ATOM      7  N   UNL     1      -3.779   3.002   4.367  0.00  0.00    -0.164 NA
ENDROOT
BRANCH   1  12
ATOM      8  C   UNL     1      -0.013   1.086   0.008  0.00  0.00    +0.086 C 
ATOM      9  C   UNL     1      -0.718   1.572   1.248  0.00  0.00    +0.103 A 
ATOM     10  C   UNL     1      -0.133   1.835   2.433  0.00  0.00    +0.045 A 
ATOM     11  C   UNL     1      -1.149   2.262   3.310  0.00  0.00    +0.052 A 
ATOM     12  C   UNL     1      -2.312   2.236   2.605  0.00  0.00    +0.155 A 
ATOM     13  O   UNL     1      -2.034   1.820   1.354  0.00  0.00    -0.458 OA
ENDBRANCH   1  12
BRANCH   3  14
ATOM     14  N   UNL     1      -7.124   2.800   1.921  0.00  0.00    -0.354 N 
ATOM     15  H   UNL     1      -7.997   3.044   2.267  0.00  0.00    +0.142 HD
ATOM     16  H   UNL     1      -7.032   2.508   1.001  0.00  0.00    +0.142 HD
ENDBRANCH   3  14
BRANCH   6  17
ATOM     17  C   UNL     1      -5.156   3.796   6.269  0.00  0.00    +0.193 C 
ATOM     18  C   UNL     1      -4.298   5.044   6.488  0.00  0.00    +0.043 C 
BRANCH  17  19
ATOM     19  C   UNL     1      -4.685   2.696   7.186  0.00  0.00    +0.238 C 
ATOM     20  O   UNL     1      -4.286   1.649   6.723  0.00  0.00    -0.273 OA
ATOM     21  N   UNL     1      -4.707   2.877   8.522  0.00  0.00    -0.311 N 
ATOM     22  H   UNL     1      -5.026   3.715   8.893  0.00  0.00    +0.149 HD
BRANCH  21  23
ATOM     23  C   UNL     1      -4.250   1.808   9.413  0.00  0.00    +0.073 C 
ATOM     24  C   UNL     1      -5.096   1.511  10.653  0.00  0.00    +0.024 C 
ATOM     25  C   UNL     1      -3.743   2.213  10.799  0.00  0.00    +0.024 C 
ENDBRANCH  21  23
ENDBRANCH  17  19
ENDBRANCH   6  17
TORSDOF 5
