REMARK  Name = ZINC20330738
REMARK  6 active torsions:
REMARK  status: ('A' for Active; 'I' for Inactive)
REMARK    1  A    between atoms: C_4  and  C_7
REMARK    2  A    between atoms: C_7  and  S_8
REMARK    3  A    between atoms: S_8  and  C_9
REMARK    4  A    between atoms: C_17  and  C_18
REMARK    5  A    between atoms: N_22  and  C_23
REMARK    6  A    between atoms: C_23  and  C_24
REMARK                            x       y       z     vdW  Elec       q    Type
REMARK                         _______ _______ _______ _____ _____    ______ ____
ROOT
ATOM      1  C   UNL     1       6.374  -2.476   1.246  0.00  0.00    +0.176 C 
ATOM      2  N   UNL     1       7.202  -2.564   0.242  0.00  0.00    -0.185 NA
ATOM      3  S   UNL     1       8.709  -2.717   0.960  0.00  0.00    +0.048 S 
ATOM      4  C   UNL     1       8.250  -2.717   2.562  0.00  0.00    +0.183 C 
ATOM      5  N   UNL     1       8.972  -2.860   3.651  0.00  0.00    -0.152 NA
ATOM      6  C   UNL     1       8.363  -2.890   4.851  0.00  0.00    +0.273 C 
ATOM      7  O   UNL     1       9.015  -2.889   5.883  0.00  0.00    -0.268 OA
ATOM      8  C   UNL     1       6.882  -2.925   4.890  0.00  0.00    +0.079 C 
ATOM      9  C   UNL     1       6.192  -3.462   5.963  0.00  0.00    +0.042 C 
ATOM     10  C   UNL     1       6.178  -2.349   3.711  0.00  0.00    +0.116 C 
ATOM     11  N   UNL     1       5.020  -1.748   3.788  0.00  0.00    -0.386 N 
ATOM     12  N   UNL     1       6.885  -2.513   2.503  0.00  0.00    -0.212 N 
ATOM     13  H   UNL     1       4.576  -1.659   4.646  0.00  0.00    +0.157 HD
ATOM     14  H   UNL     1       4.605  -1.391   2.988  0.00  0.00    +0.157 HD
ENDROOT
BRANCH   9  15
ATOM     15  C   UNL     1       6.829  -4.377   6.823  0.00  0.00    +0.043 A 
ATOM     16  C   UNL     1       8.069  -4.967   6.622  0.00  0.00    +0.027 A 
ATOM     17  C   UNL     1       8.308  -5.800   7.716  0.00  0.00    +0.020 A 
ATOM     18  C   UNL     1       7.241  -5.712   8.550  0.00  0.00    +0.086 A 
ATOM     19  N   UNL     1       6.338  -4.848   8.023  0.00  0.00    -0.343 N 
BRANCH  19  20
ATOM     20  C   UNL     1       5.055  -4.478   8.625  0.00  0.00    +0.157 C 
BRANCH  20  21
ATOM     21  C   UNL     1       3.969  -5.369   8.079  0.00  0.00    -0.028 A 
ATOM     22  C   UNL     1       3.209  -4.950   7.002  0.00  0.00    +0.008 A 
ATOM     23  C   UNL     1       2.213  -5.766   6.500  0.00  0.00    +0.038 A 
ATOM     24  C   UNL     1       1.976  -7.003   7.076  0.00  0.00    +0.123 A 
ATOM     25  C   UNL     1       2.737  -7.420   8.155  0.00  0.00    +0.038 A 
ATOM     26  C   UNL     1       3.736  -6.605   8.652  0.00  0.00    +0.008 A 
ATOM     27  F   UNL     1       1.002  -7.801   6.586  0.00  0.00    -0.205 F 
ENDBRANCH  20  21
ENDBRANCH  19  20
ENDBRANCH   9  15
BRANCH   1  28
ATOM     28  S   UNL     1       4.641  -2.305   0.979  0.00  0.00    -0.084 S 
BRANCH  28  29
ATOM     29  C   UNL     1       4.474  -2.308  -0.828  0.00  0.00    +0.112 C 
BRANCH  29  33
ATOM     30  C   UNL     1       0.353  -1.906  -1.878  0.00  0.00    +0.000 A 
ATOM     31  C   UNL     1       1.139  -0.780  -1.720  0.00  0.00    +0.000 A 
ATOM     32  C   UNL     1       2.472  -0.910  -1.380  0.00  0.00    +0.004 A 
ATOM     33  C   UNL     1       3.020  -2.166  -1.197  0.00  0.00    -0.037 A 
ATOM     34  C   UNL     1       2.234  -3.292  -1.355  0.00  0.00    +0.004 A 
ATOM     35  C   UNL     1       0.900  -3.162  -1.696  0.00  0.00    +0.000 A 
ENDBRANCH  29  33
ENDBRANCH  28  29
ENDBRANCH   1  28
TORSDOF 6
