REMARK  Name = ZINC05464760
REMARK  13 active torsions:
REMARK  status: ('A' for Active; 'I' for Inactive)
REMARK    1  A    between atoms: C_4  and  C_7
REMARK    2  A    between atoms: C_7  and  N_69
REMARK    3  A    between atoms: C_8  and  C_9
REMARK    4  A    between atoms: C_8  and  N_69
REMARK    5  A    between atoms: C_9  and  C_10
REMARK    6  A    between atoms: C_10  and  C_11
REMARK    7  A    between atoms: C_11  and  N_71
REMARK    8  A    between atoms: C_12  and  C_13
REMARK    9  A    between atoms: C_12  and  N_71
REMARK   10  A    between atoms: C_19  and  C_20
REMARK   11  A    between atoms: C_19  and  N_71
REMARK   12  A    between atoms: C_26  and  C_27
REMARK   13  A    between atoms: C_26  and  N_69
REMARK                            x       y       z     vdW  Elec       q    Type
REMARK                         _______ _______ _______ _____ _____    ______ ____
ROOT
ATOM      1  C   UNL     1      -1.430  -3.826   2.535  0.00  0.00    -0.020 C 
ENDROOT
BRANCH   1   2
ATOM      2  C   UNL     1      -0.197  -3.830   3.440  0.00  0.00    -0.078 C 
BRANCH   2   3
ATOM      3  N   UNL     1       0.117  -2.438   3.825  0.00  0.00    +0.385 N 
ATOM      4  H   UNL     1      -0.731  -1.996   4.200  0.00  0.00    -0.081 HD
BRANCH   3   5
ATOM      5  C   UNL     1       0.571  -1.677   2.642  0.00  0.00    -0.043 C 
BRANCH   5   9
ATOM      6  C   UNL     1       3.742  -3.742   0.660  0.00  0.00    +0.000 A 
ATOM      7  C   UNL     1       2.434  -3.935   0.258  0.00  0.00    +0.000 A 
ATOM      8  C   UNL     1       1.408  -3.268   0.900  0.00  0.00    +0.002 A 
ATOM      9  C   UNL     1       1.690  -2.405   1.943  0.00  0.00    -0.064 A 
ATOM     10  C   UNL     1       2.998  -2.207   2.341  0.00  0.00    +0.002 A 
ATOM     11  C   UNL     1       4.024  -2.879   1.703  0.00  0.00    +0.000 A 
ENDBRANCH   5   9
ENDBRANCH   3   5
BRANCH   3  12
ATOM     12  C   UNL     1       1.166  -2.426   4.867  0.00  0.00    -0.043 C 
BRANCH  12  13
ATOM     13  C   UNL     1       1.130  -1.094   5.571  0.00  0.00    -0.064 A 
ATOM     14  C   UNL     1       1.906  -0.047   5.110  0.00  0.00    +0.002 A 
ATOM     15  C   UNL     1       1.870   1.176   5.754  0.00  0.00    +0.000 A 
ATOM     16  C   UNL     1       1.066   1.349   6.864  0.00  0.00    +0.000 A 
ATOM     17  C   UNL     1       0.294   0.300   7.329  0.00  0.00    +0.000 A 
ATOM     18  C   UNL     1       0.327  -0.921   6.683  0.00  0.00    +0.002 A 
ENDBRANCH  12  13
ENDBRANCH   3  12
ENDBRANCH   2   3
ENDBRANCH   1   2
BRANCH   1  19
ATOM     19  C   UNL     1      -1.781  -5.263   2.145  0.00  0.00    -0.020 C 
BRANCH  19  20
ATOM     20  C   UNL     1      -3.014  -5.259   1.239  0.00  0.00    -0.078 C 
BRANCH  20  21
ATOM     21  N   UNL     1      -3.328  -6.651   0.855  0.00  0.00    +0.385 N 
ATOM     22  H   UNL     1      -2.480  -7.093   0.479  0.00  0.00    -0.081 HD
BRANCH  21  23
ATOM     23  C   UNL     1      -3.782  -7.412   2.038  0.00  0.00    -0.043 C 
BRANCH  23  24
ATOM     24  C   UNL     1      -3.742  -8.883   1.712  0.00  0.00    -0.064 A 
ATOM     25  C   UNL     1      -4.887  -9.527   1.283  0.00  0.00    +0.002 A 
ATOM     26  C   UNL     1      -4.849 -10.876   0.980  0.00  0.00    +0.000 A 
ATOM     27  C   UNL     1      -3.668 -11.581   1.115  0.00  0.00    +0.000 A 
ATOM     28  C   UNL     1      -2.524 -10.938   1.549  0.00  0.00    +0.000 A 
ATOM     29  C   UNL     1      -2.561  -9.589   1.847  0.00  0.00    +0.002 A 
ENDBRANCH  23  24
ENDBRANCH  21  23
BRANCH  21  30
ATOM     30  C   UNL     1      -4.377  -6.663  -0.187  0.00  0.00    -0.043 C 
BRANCH  30  31
ATOM     31  C   UNL     1      -3.747  -6.315  -1.511  0.00  0.00    -0.064 A 
ATOM     32  C   UNL     1      -3.724  -5.001  -1.940  0.00  0.00    +0.002 A 
ATOM     33  C   UNL     1      -3.142  -4.681  -3.152  0.00  0.00    +0.000 A 
ATOM     34  C   UNL     1      -2.591  -5.675  -3.939  0.00  0.00    +0.000 A 
ATOM     35  C   UNL     1      -2.619  -6.989  -3.512  0.00  0.00    +0.000 A 
ATOM     36  C   UNL     1      -3.197  -7.309  -2.298  0.00  0.00    +0.002 A 
ENDBRANCH  30  31
ENDBRANCH  21  30
ENDBRANCH  20  21
ENDBRANCH  19  20
ENDBRANCH   1  19
TORSDOF 13
