REMARK  Name = ZINC24716069
REMARK  8 active torsions:
REMARK  status: ('A' for Active; 'I' for Inactive)
REMARK    1  A    between atoms: C_1  and  C_2
REMARK    2  A    between atoms: C_2  and  O_3
REMARK    3  A    between atoms: O_3  and  C_4
REMARK    4  A    between atoms: C_4  and  C_6
REMARK    5  A    between atoms: C_6  and  C_8
REMARK    6  A    between atoms: C_6  and  N_15
REMARK    7  A    between atoms: C_21  and  C_23
REMARK    8  A    between atoms: C_23  and  N_24
REMARK                            x       y       z     vdW  Elec       q    Type
REMARK                         _______ _______ _______ _____ _____    ______ ____
ROOT
ATOM      1  N   UNL     1       3.390   3.225   0.980  0.00  0.00    +0.393 N 
ATOM      2  C   UNL     1       3.309   1.765   1.112  0.00  0.00    -0.058 C 
ATOM      3  C   UNL     1       2.438   1.200  -0.015  0.00  0.00    +0.089 C 
ATOM      4  N   UNL     1       1.143   1.898   0.001  0.00  0.00    -0.304 N 
ATOM      5  C   UNL     1       1.146   3.369   0.003  0.00  0.00    +0.089 C 
ATOM      6  C   UNL     1       2.069   3.848   1.135  0.00  0.00    -0.058 C 
ATOM      7  C   UNL     1      -0.014   1.209   0.009  0.00  0.00    +0.235 C 
ATOM      8  O   UNL     1       0.002  -0.004   0.002  0.00  0.00    -0.274 OA
ATOM      9  H   UNL     1       3.748   3.450  -0.036  0.00  0.00    -0.080 HD
ENDROOT
BRANCH   1  10
ATOM     10  C   UNL     1       4.353   3.788   1.936  0.00  0.00    +0.073 C 
BRANCH  10  11
ATOM     11  C   UNL     1       4.232   5.290   1.945  0.00  0.00    -0.050 A 
ATOM     12  C   UNL     1       4.046   5.976   0.759  0.00  0.00    +0.004 A 
ATOM     13  C   UNL     1       3.930   7.353   0.767  0.00  0.00    +0.020 A 
ATOM     14  C   UNL     1       4.010   8.047   1.961  0.00  0.00    +0.041 A 
ATOM     15  C   UNL     1       4.202   7.361   3.147  0.00  0.00    +0.020 A 
ATOM     16  C   UNL     1       4.313   5.983   3.139  0.00  0.00    +0.004 A 
ATOM     17 CL   UNL     1       3.872   9.777   1.972  0.00  0.00    -0.084 Cl
ENDBRANCH  10  11
BRANCH  10  18
ATOM     18  C   UNL     1       5.751   3.399   1.528  0.00  0.00    +0.298 C 
ATOM     19  O   UNL     1       5.927   2.723   0.543  0.00  0.00    -0.252 OA
BRANCH  18  20
ATOM     20  O   UNL     1       6.800   3.805   2.260  0.00  0.00    -0.466 OA
BRANCH  20  22
ATOM     21  C   UNL     1       9.179   3.945   2.762  0.00  0.00    +0.048 C 
ATOM     22  C   UNL     1       8.117   3.393   1.809  0.00  0.00    +0.228 C 
ENDBRANCH  20  22
ENDBRANCH  18  20
ENDBRANCH  10  18
ENDBRANCH   1  10
BRANCH   7  23
ATOM     23  C   UNL     1      -1.330   1.944   0.019  0.00  0.00    +0.222 C 
BRANCH  23  24
ATOM     24  N   UNL     1      -2.430   0.977   0.019  0.00  0.00    -0.292 N 
ATOM     25  C   UNL     1      -2.949   0.541  -1.170  0.00  0.00    +0.096 A 
ATOM     26  C   UNL     1      -3.959  -0.355  -1.170  0.00  0.00    +0.088 A 
ATOM     27  C   UNL     1      -4.471  -0.816   0.067  0.00  0.00    +0.254 A 
ATOM     28  O   UNL     1      -5.386  -1.619   0.093  0.00  0.00    -0.268 OA
ATOM     29  N   UNL     1      -3.936  -0.357   1.217  0.00  0.00    -0.275 N 
ATOM     30  H   UNL     1      -4.327  -0.708   2.183  0.00  0.00    +0.173 HD
ATOM     31  C   UNL     1      -2.925   0.531   1.188  0.00  0.00    +0.330 A 
ATOM     32  O   UNL     1      -2.453   0.936   2.232  0.00  0.00    -0.246 OA
ENDBRANCH  23  24
ENDBRANCH   7  23
TORSDOF 7
