REMARK  Name = ZINC63139573
REMARK  8 active torsions:
REMARK  status: ('A' for Active; 'I' for Inactive)
REMARK    1  A    between atoms: C_1  and  C_2
REMARK    2  A    between atoms: C_2  and  C_3
REMARK    3  A    between atoms: C_2  and  C_4
REMARK    4  A    between atoms: C_7  and  C_10
REMARK    5  A    between atoms: N_29  and  C_32
REMARK    6  A    between atoms: C_32  and  C_33
REMARK    7  A    between atoms: C_38  and  O_39
REMARK    8  A    between atoms: O_39  and  C_40
REMARK                            x       y       z     vdW  Elec       q    Type
REMARK                         _______ _______ _______ _____ _____    ______ ____
ROOT
ATOM      1  C   UNL     1      -5.419  -2.005   0.043  0.00  0.00    +0.133 C 
ATOM      2  C   UNL     1      -6.318  -1.088  -0.791  0.00  0.00    +0.131 C 
ATOM      3  C   UNL     1      -7.647  -1.812  -0.960  0.00  0.00    -0.034 C 
ATOM      4  C   UNL     1      -8.584  -0.987  -0.508  0.00  0.00    -0.001 A 
ATOM      5  C   UNL     1     -10.052  -1.095  -0.476  0.00  0.00    +0.010 A 
ATOM      6  C   UNL     1     -10.717  -0.049   0.082  0.00  0.00    +0.001 A 
ATOM      7  C   UNL     1     -10.078   1.079   0.604  0.00  0.00    +0.002 A 
ATOM      8  C   UNL     1      -8.733   1.264   0.612  0.00  0.00    +0.026 A 
ATOM      9  C   UNL     1      -7.926   0.234   0.048  0.00  0.00    +0.043 A 
ATOM     10  N   UNL     1      -6.616   0.166  -0.097  0.00  0.00    -0.375 N 
ATOM     11  C   UNL     1      -7.737  -3.228  -1.477  0.00  0.00    +0.065 C 
ATOM     12  C   UNL     1      -6.734  -4.059  -0.655  0.00  0.00    +0.167 C 
ATOM     13  N   UNL     1      -5.460  -3.353  -0.566  0.00  0.00    -0.279 N 
ATOM     14  C   UNL     1      -4.313  -3.873  -1.016  0.00  0.00    +0.234 C 
ATOM     15  O   UNL     1      -3.310  -3.197  -0.914  0.00  0.00    -0.274 OA
ATOM     16  C   UNL     1      -4.178  -5.224  -1.635  0.00  0.00    +0.204 C 
ATOM     17  N   UNL     1      -5.446  -5.932  -1.691  0.00  0.00    -0.287 N 
ATOM     18  C   UNL     1      -6.596  -5.418  -1.258  0.00  0.00    +0.237 C 
ATOM     19  O   UNL     1      -7.595  -6.100  -1.355  0.00  0.00    -0.274 OA
ATOM     20  H   UNL     1      -5.963   0.818   0.202  0.00  0.00    +0.160 HD
ENDROOT
BRANCH   1  24
ATOM     21  C   UNL     1      -1.413  -0.522   0.012  0.00  0.00    -0.045 A 
ATOM     22  C   UNL     1      -2.224  -0.344  -1.093  0.00  0.00    +0.004 A 
ATOM     23  C   UNL     1      -3.521  -0.825  -1.083  0.00  0.00    +0.006 A 
ATOM     24  C   UNL     1      -4.006  -1.482   0.032  0.00  0.00    -0.025 A 
ATOM     25  C   UNL     1      -3.194  -1.660   1.137  0.00  0.00    +0.006 A 
ATOM     26  C   UNL     1      -1.896  -1.184   1.125  0.00  0.00    +0.004 A 
BRANCH  21  28
ATOM     27  C   UNL     1       0.777  -0.652  -1.143  0.00  0.00    +0.012 C 
ATOM     28  C   UNL     1       0.000   0.002   0.002  0.00  0.00    +0.013 C 
ATOM     29  C   UNL     1      -0.019   1.518  -0.197  0.00  0.00    +0.012 C 
ENDBRANCH  21  28
ENDBRANCH   1  24
BRANCH  17  30
ATOM     30  C   UNL     1      -5.461  -7.283  -2.257  0.00  0.00    +0.147 C 
BRANCH  30  31
ATOM     31  C   UNL     1      -5.219  -8.290  -1.162  0.00  0.00    +0.011 A 
ATOM     32  C   UNL     1      -3.961  -8.833  -0.988  0.00  0.00    +0.009 A 
ATOM     33  C   UNL     1      -3.739  -9.757   0.016  0.00  0.00    +0.001 A 
ATOM     34  C   UNL     1      -4.774 -10.139   0.848  0.00  0.00    +0.004 A 
ATOM     35  C   UNL     1      -6.034  -9.599   0.679  0.00  0.00    +0.046 A 
ATOM     36  C   UNL     1      -6.259  -8.667  -0.325  0.00  0.00    +0.125 A 
BRANCH  36  37
ATOM     37  O   UNL     1      -7.496  -8.130  -0.490  0.00  0.00    -0.495 OA
ATOM     38  C   UNL     1      -8.518  -8.565   0.409  0.00  0.00    +0.277 C 
ENDBRANCH  36  37
ENDBRANCH  30  31
ENDBRANCH  17  30
TORSDOF 5
