REMARK  Name = ZINC63528864
REMARK  4 active torsions:
REMARK  status: ('A' for Active; 'I' for Inactive)
REMARK    1  A    between atoms: C_6  and  C_7
REMARK    2  A    between atoms: C_10  and  C_23
REMARK    3  A    between atoms: C_14  and  N_16
REMARK    4  A    between atoms: N_16  and  C_17
REMARK                            x       y       z     vdW  Elec       q    Type
REMARK                         _______ _______ _______ _____ _____    ______ ____
ROOT
ATOM      1  C   UNL     1      -1.259  -0.760   0.011  0.00  0.00    +0.090 C 
ATOM      2  N   UNL     1      -2.465  -0.266   0.019  0.00  0.00    -0.228 NA
ATOM      3  C   UNL     1      -3.418  -1.216   0.025  0.00  0.00    +0.171 A 
ATOM      4  C   UNL     1      -4.810  -1.397   0.035  0.00  0.00    +0.115 A 
ATOM      5  C   UNL     1      -5.048  -2.787   0.036  0.00  0.00    +0.155 A 
ATOM      6  N   UNL     1      -3.899  -3.405   0.027  0.00  0.00    -0.175 NA
ATOM      7  N   UNL     1      -2.870  -2.462   0.020  0.00  0.00    -0.222 N 
ATOM      8  C   UNL     1      -1.413  -2.268   0.004  0.00  0.00    +0.226 C 
ENDROOT
BRANCH   1  14
ATOM      9  C   UNL     1      -0.017   1.395   0.010  0.00  0.00    +0.011 A 
ATOM     10  C   UNL     1       1.169   2.097   0.002  0.00  0.00    +0.016 A 
ATOM     11  C   UNL     1       2.378   1.421  -0.013  0.00  0.00    +0.018 A 
ATOM     12  C   UNL     1       2.405   0.036  -0.022  0.00  0.00    +0.016 A 
ATOM     13  C   UNL     1       1.227  -0.680  -0.014  0.00  0.00    +0.011 A 
ATOM     14  C   UNL     1       0.002  -0.004   0.002  0.00  0.00    -0.000 A 
ATOM     15 BR   UNL     1       4.000   2.393  -0.024  0.00  0.00    -0.050 Br
ENDBRANCH   1  14
BRANCH   8  16
ATOM     16  N   UNL     1      -0.825  -2.843  -1.213  0.00  0.00    -0.287 NA
ATOM     17  H   UNL     1      -1.460  -2.765  -1.993  0.00  0.00    +0.125 HD
BRANCH  16  18
ATOM     18  C   UNL     1      -0.426  -4.240  -0.996  0.00  0.00    +0.056 C 
ATOM     19  C   UNL     1       0.973  -4.281  -0.379  0.00  0.00    +0.019 C 
ATOM     20  C   UNL     1       1.388  -5.737  -0.153  0.00  0.00    +0.002 C 
ATOM     21  C   UNL     1       1.399  -6.478  -1.492  0.00  0.00    +0.000 C 
ATOM     22  C   UNL     1      -0.001  -6.436  -2.108  0.00  0.00    +0.002 C 
ATOM     23  C   UNL     1      -0.416  -4.981  -2.335  0.00  0.00    +0.019 C 
ENDBRANCH  16  18
ENDBRANCH   8  16
BRANCH   4  24
ATOM     24  C   UNL     1      -5.802  -0.365   0.044  0.00  0.00    +0.104 C 
ATOM     25  N   UNL     1      -6.589   0.455   0.051  0.00  0.00    -0.191 NA
ENDBRANCH   4  24
TORSDOF 4
