REMARK  Name = ZINC16660977
REMARK  11 active torsions:
REMARK  status: ('A' for Active; 'I' for Inactive)
REMARK    1  A    between atoms: C_1  and  N_2
REMARK    2  A    between atoms: C_5  and  C_18
REMARK    3  A    between atoms: C_6  and  N_17
REMARK    4  A    between atoms: N_7  and  C_10
REMARK    5  A    between atoms: C_10  and  C_11
REMARK    6  A    between atoms: C_18  and  C_20
REMARK    7  A    between atoms: C_20  and  S_21
REMARK    8  A    between atoms: S_21  and  C_22
REMARK    9  A    between atoms: N_26  and  C_27
REMARK   10  A    between atoms: C_31  and  O_33
REMARK   11  A    between atoms: O_33  and  C_34
REMARK                            x       y       z     vdW  Elec       q    Type
REMARK                         _______ _______ _______ _____ _____    ______ ____
ROOT
ATOM      1  C   UNL     1      -4.125  11.749  -4.263  0.00  0.00    +0.157 C 
ATOM      2  N   UNL     1      -4.337  10.372  -4.716  0.00  0.00    -0.263 N 
ATOM      3  C   UNL     1      -3.750   9.355  -4.052  0.00  0.00    +0.269 A 
ATOM      4  O   UNL     1      -3.047   9.569  -3.082  0.00  0.00    -0.267 OA
ATOM      5  C   UNL     1      -3.973   7.983  -4.528  0.00  0.00    +0.120 A 
ATOM      6  C   UNL     1      -4.800   7.803  -5.650  0.00  0.00    +0.116 A 
ATOM      7  N   UNL     1      -5.351   8.901  -6.247  0.00  0.00    -0.277 N 
ATOM      8  C   UNL     1      -5.118  10.138  -5.783  0.00  0.00    +0.333 A 
ATOM      9  O   UNL     1      -5.632  11.083  -6.350  0.00  0.00    -0.246 OA
ENDROOT
BRANCH   6  10
ATOM     10  N   UNL     1      -5.047   6.556  -6.133  0.00  0.00    -0.344 N 
ATOM     11  H   UNL     1      -4.719   5.777  -5.657  0.00  0.00    +0.144 HD
ATOM     12  H   UNL     1      -5.551   6.445  -6.955  0.00  0.00    +0.144 HD
ENDBRANCH   6  10
BRANCH   5  13
ATOM     13  C   UNL     1      -3.380   6.881  -3.875  0.00  0.00    +0.182 C 
ATOM     14  O   UNL     1      -3.666   5.750  -4.213  0.00  0.00    -0.291 OA
BRANCH  13  15
ATOM     15  C   UNL     1      -2.393   7.107  -2.759  0.00  0.00    +0.157 C 
BRANCH  15  16
ATOM     16  S   UNL     1      -1.816   5.511  -2.131  0.00  0.00    -0.079 S 
BRANCH  16  17
ATOM     17  C   UNL     1      -0.709   6.059  -0.875  0.00  0.00    +0.174 A 
ATOM     18  N   UNL     1      -0.455   7.309  -0.566  0.00  0.00    -0.230 NA
ATOM     19  C   UNL     1       0.441   7.348   0.435  0.00  0.00    +0.131 A 
ATOM     20  C   UNL     1       0.757   6.085   0.770  0.00  0.00    +0.113 A 
ATOM     21  N   UNL     1       0.029   5.255  -0.055  0.00  0.00    -0.294 N 
BRANCH  21  22
ATOM     22  C   UNL     1       0.047   3.854  -0.056  0.00  0.00    +0.052 A 
ATOM     23  C   UNL     1      -1.146   3.143  -0.018  0.00  0.00    +0.026 A 
ATOM     24  C   UNL     1      -1.129   1.762  -0.025  0.00  0.00    +0.006 A 
ATOM     25  C   UNL     1       0.075   1.084  -0.058  0.00  0.00    +0.046 A 
ATOM     26  C   UNL     1       1.270   1.789  -0.096  0.00  0.00    +0.122 A 
ATOM     27  C   UNL     1       1.256   3.175  -0.095  0.00  0.00    +0.071 A 
BRANCH  26  28
ATOM     28  O   UNL     1       2.453   1.121  -0.135  0.00  0.00    -0.495 OA
ATOM     29  C   UNL     1       2.392  -0.307  -0.134  0.00  0.00    +0.277 C 
ENDBRANCH  26  28
ENDBRANCH  21  22
ENDBRANCH  16  17
ENDBRANCH  15  16
ENDBRANCH  13  15
ENDBRANCH   5  13
BRANCH   7  30
ATOM     30  C   UNL     1      -6.215   8.724  -7.417  0.00  0.00    +0.163 C 
BRANCH  30  31
ATOM     31  C   UNL     1      -7.643   8.557  -6.967  0.00  0.00    -0.028 A 
ATOM     32  C   UNL     1      -8.142   7.295  -6.704  0.00  0.00    +0.005 A 
ATOM     33  C   UNL     1      -9.451   7.143  -6.286  0.00  0.00    +0.000 A 
ATOM     34  C   UNL     1     -10.264   8.252  -6.143  0.00  0.00    +0.000 A 
ATOM     35  C   UNL     1      -9.767   9.513  -6.412  0.00  0.00    +0.000 A 
ATOM     36  C   UNL     1      -8.456   9.666  -6.824  0.00  0.00    +0.005 A 
ENDBRANCH  30  31
ENDBRANCH   7  30
TORSDOF 9
