REMARK  Name = ZINC04160585
REMARK  6 active torsions:
REMARK  status: ('A' for Active; 'I' for Inactive)
REMARK    1  A    between atoms: C_1  and  C_2
REMARK    2  A    between atoms: C_7  and  C_14
REMARK    3  A    between atoms: C_14  and  C_16
REMARK    4  A    between atoms: C_14  and  N_63
REMARK    5  A    between atoms: N_20  and  C_21
REMARK    6  A    between atoms: C_30  and  C_33
REMARK                            x       y       z     vdW  Elec       q    Type
REMARK                         _______ _______ _______ _____ _____    ______ ____
ROOT
ATOM      1  C   UNL     1      -3.401  -0.751   3.500  0.00  0.00    +0.039 C 
ENDROOT
BRANCH   1   8
ATOM      2  C   UNL     1     -10.374  -3.993   1.380  0.00  0.00    +0.044 C 
ATOM      3  C   UNL     1      -8.970  -3.489   1.593  0.00  0.00    -0.048 A 
ATOM      4  C   UNL     1      -7.967  -3.855   0.705  0.00  0.00    +0.004 A 
ATOM      5  C   UNL     1      -6.687  -3.410   0.880  0.00  0.00    +0.010 A 
ATOM      6  C   UNL     1      -6.385  -2.577   1.962  0.00  0.00    -0.001 A 
ATOM      7  C   UNL     1      -5.025  -2.077   2.177  0.00  0.00    +0.017 A 
ATOM      8  C   UNL     1      -4.790  -1.278   3.247  0.00  0.00    +0.011 A 
ATOM      9  C   UNL     1      -5.843  -0.934   4.122  0.00  0.00    +0.251 A 
ATOM     10  O   UNL     1      -5.611  -0.211   5.075  0.00  0.00    -0.268 OA
ATOM     11  N   UNL     1      -7.095  -1.384   3.930  0.00  0.00    -0.322 N 
ATOM     12  H   UNL     1      -7.817  -1.119   4.570  0.00  0.00    +0.169 HD
ATOM     13  C   UNL     1      -7.399  -2.204   2.865  0.00  0.00    +0.049 A 
ATOM     14  C   UNL     1      -8.694  -2.670   2.666  0.00  0.00    +0.029 A 
ENDBRANCH   1   8
BRANCH   1  21
ATOM     15  C   UNL     1      -1.621  -0.630   5.136  0.00  0.00    -0.077 C 
ATOM     16  C   UNL     1      -1.278  -0.875   6.607  0.00  0.00    -0.018 C 
ATOM     17  C   UNL     1      -1.398  -2.371   6.912  0.00  0.00    -0.001 C 
ATOM     18  C   UNL     1      -2.816  -2.840   6.577  0.00  0.00    -0.031 C 
ATOM     19  C   UNL     1      -3.115  -2.539   5.107  0.00  0.00    -0.074 C 
ATOM     20  C   UNL     1      -2.927  -4.346   6.823  0.00  0.00    +0.005 C 
ATOM     21  N   UNL     1      -3.007  -1.081   4.885  0.00  0.00    +0.389 N 
ATOM     22  H   UNL     1      -3.637  -0.597   5.535  0.00  0.00    -0.080 HD
ENDBRANCH   1  21
BRANCH   1  23
ATOM     23  C   UNL     1      -3.395   0.747   3.335  0.00  0.00    +0.143 A 
ATOM     24  N   UNL     1      -3.818   1.631   4.205  0.00  0.00    -0.115 NA
ATOM     25  N   UNL     1      -3.646   2.803   3.697  0.00  0.00    -0.023 NA
ATOM     26  N   UNL     1      -3.119   2.689   2.528  0.00  0.00    -0.044 NA
ATOM     27  N   UNL     1      -2.954   1.436   2.267  0.00  0.00    -0.227 N 
BRANCH  27  28
ATOM     28  C   UNL     1      -2.387   0.871   1.040  0.00  0.00    +0.111 C 
ATOM     29  C   UNL     1      -0.960   1.390   0.851  0.00  0.00    +0.027 C 
ATOM     30  C   UNL     1      -0.369   0.799  -0.431  0.00  0.00    +0.002 C 
ATOM     31  C   UNL     1      -1.226   1.216  -1.628  0.00  0.00    +0.000 C 
ATOM     32  C   UNL     1      -2.652   0.697  -1.439  0.00  0.00    +0.002 C 
ATOM     33  C   UNL     1      -3.244   1.287  -0.157  0.00  0.00    +0.027 C 
ENDBRANCH  27  28
ENDBRANCH   1  23
TORSDOF 4
