REMARK  Name = ZINC39999492
REMARK  7 active torsions:
REMARK  status: ('A' for Active; 'I' for Inactive)
REMARK    1  A    between atoms: C_1  and  C_2
REMARK    2  A    between atoms: C_2  and  S_3
REMARK    3  A    between atoms: S_3  and  C_4
REMARK    4  A    between atoms: C_10  and  C_24
REMARK    5  A    between atoms: C_12  and  C_17
REMARK    6  A    between atoms: C_17  and  C_19
REMARK    7  A    between atoms: C_27  and  O_30
REMARK                            x       y       z     vdW  Elec       q    Type
REMARK                         _______ _______ _______ _____ _____    ______ ____
ROOT
ATOM      1  C   UNL     1       0.647  -2.311  -1.514  0.00  0.00    +0.160 A 
ATOM      2  N   UNL     1       0.153  -3.061  -0.539  0.00  0.00    -0.133 NA
ATOM      3  N   UNL     1       0.235  -4.320  -0.560  0.00  0.00    -0.125 NA
ATOM      4  C   UNL     1       0.819  -4.968  -1.556  0.00  0.00    +0.192 A 
ATOM      5  S   UNL     1       1.301  -3.587  -2.587  0.00  0.00    -0.024 S 
ATOM      6  N   UNL     1       1.002  -6.333  -1.747  0.00  0.00    -0.230 N 
ATOM      7  C   UNL     1       0.557  -7.399  -0.843  0.00  0.00    +0.152 C 
ATOM      8  C   UNL     1       0.986  -8.699  -1.483  0.00  0.00    +0.080 C 
ATOM      9  C   UNL     1       1.612  -8.377  -2.639  0.00  0.00    +0.250 C 
ATOM     10  C   UNL     1       1.612  -6.910  -2.798  0.00  0.00    +0.293 C 
ATOM     11  O   UNL     1       2.095  -6.311  -3.739  0.00  0.00    -0.266 OA
ATOM     12  O   UNL     1       2.148  -9.260  -3.513  0.00  0.00    -0.282 OA
ENDROOT
BRANCH   7  13
ATOM     13  C   UNL     1       1.213  -7.243   0.505  0.00  0.00    -0.022 A 
ATOM     14  C   UNL     1       2.564  -6.957   0.586  0.00  0.00    +0.009 A 
ATOM     15  C   UNL     1       3.167  -6.814   1.821  0.00  0.00    +0.046 A 
ATOM     16  C   UNL     1       2.418  -6.956   2.979  0.00  0.00    +0.117 A 
ATOM     17  C   UNL     1       1.063  -7.242   2.895  0.00  0.00    +0.046 A 
ATOM     18  C   UNL     1       0.463  -7.380   1.658  0.00  0.00    +0.009 A 
BRANCH  16  19
ATOM     19  O   UNL     1       3.009  -6.815   4.194  0.00  0.00    -0.507 OA
ATOM     20  H   UNL     1       2.999  -5.910   4.535  0.00  0.00    +0.292 HD
ENDBRANCH  16  19
ENDBRANCH   7  13
BRANCH   8  21
ATOM     21  C   UNL     1       0.767 -10.050  -0.954  0.00  0.00    +0.230 C 
ATOM     22  O   UNL     1       1.717 -10.731  -0.610  0.00  0.00    -0.283 OA
BRANCH  21  23
ATOM     23  C   UNL     1      -0.595 -10.579  -0.839  0.00  0.00    +0.175 A 
ATOM     24  C   UNL     1      -0.953 -11.784  -0.273  0.00  0.00    +0.053 A 
ATOM     25  C   UNL     1      -2.348 -11.878  -0.381  0.00  0.00    +0.042 A 
ATOM     26  C   UNL     1      -2.778 -10.752  -0.994  0.00  0.00    +0.196 A 
ATOM     27  O   UNL     1      -1.723  -9.972  -1.262  0.00  0.00    -0.460 OA
ENDBRANCH  21  23
ENDBRANCH   8  21
BRANCH   1  28
ATOM     28  S   UNL     1       0.653  -0.559  -1.703  0.00  0.00    -0.097 S 
BRANCH  28  30
ATOM     29  C   UNL     1      -0.254   1.574  -0.250  0.00  0.00    +0.016 C 
ATOM     30  C   UNL     1      -0.189   0.045  -0.214  0.00  0.00    +0.073 C 
ENDBRANCH  28  30
ENDBRANCH   1  28
TORSDOF 6
