REMARK  Name = ZINC60208475
REMARK  11 active torsions:
REMARK  status: ('A' for Active; 'I' for Inactive)
REMARK    1  A    between atoms: C_1  and  C_2
REMARK    2  A    between atoms: C_7  and  C_9
REMARK    3  A    between atoms: C_7  and  C_10
REMARK    4  A    between atoms: N_13  and  C_17
REMARK    5  A    between atoms: C_17  and  C_18
REMARK    6  A    between atoms: N_20  and  C_21
REMARK    7  A    between atoms: N_20  and  C_26
REMARK    8  A    between atoms: C_21  and  C_22
REMARK    9  A    between atoms: C_22  and  N_23
REMARK   10  A    between atoms: N_23  and  C_24
REMARK   11  A    between atoms: N_23  and  C_25
REMARK                            x       y       z     vdW  Elec       q    Type
REMARK                         _______ _______ _______ _____ _____    ______ ____
ROOT
ATOM      1  C   UNL     1      -0.638   1.545   0.318  0.00  0.00    +0.007 C 
ATOM      2  C   UNL     1      -0.460   0.026   0.261  0.00  0.00    -0.011 C 
ATOM      3  C   UNL     1      -1.832  -0.646   0.179  0.00  0.00    +0.038 C 
ATOM      4  C   UNL     1      -1.656  -2.160   0.143  0.00  0.00    +0.113 C 
ATOM      5  C   UNL     1      -0.916  -2.647   1.384  0.00  0.00    +0.041 C 
ATOM      6  C   UNL     1       0.453  -1.967   1.462  0.00  0.00    -0.032 C 
ATOM      7  C   UNL     1       0.265  -0.450   1.522  0.00  0.00    +0.009 C 
ATOM      8  C   UNL     1       1.275  -2.331   0.224  0.00  0.00    +0.011 C 
ATOM      9  C   UNL     1       1.187  -2.440   2.719  0.00  0.00    +0.011 C 
ATOM     10  C   UNL     1      -2.998  -2.845   0.027  0.00  0.00    +0.247 C 
ATOM     11  O   UNL     1      -3.920  -2.793   0.813  0.00  0.00    -0.273 OA
ATOM     12  N   UNL     1      -2.955  -3.527  -1.137  0.00  0.00    -0.215 N 
ATOM     13  C   UNL     1      -1.782  -3.365  -1.760  0.00  0.00    +0.310 C 
ATOM     14  O   UNL     1      -1.506  -3.880  -2.826  0.00  0.00    -0.252 OA
ATOM     15  N   UNL     1      -0.942  -2.567  -1.074  0.00  0.00    -0.285 N 
ATOM     16  H   UNL     1      -0.043  -2.311  -1.332  0.00  0.00    +0.151 HD
ENDROOT
BRANCH  12  17
ATOM     17  C   UNL     1      -4.056  -4.343  -1.654  0.00  0.00    +0.214 C 
BRANCH  17  18
ATOM     18  C   UNL     1      -4.953  -3.491  -2.514  0.00  0.00    +0.238 C 
ATOM     19  O   UNL     1      -4.647  -2.343  -2.758  0.00  0.00    -0.274 OA
ATOM     20  N   UNL     1      -6.096  -4.003  -3.012  0.00  0.00    -0.272 N 
BRANCH  20  21
ATOM     21  C   UNL     1      -6.506  -5.289  -2.641  0.00  0.00    +0.036 A 
ATOM     22  C   UNL     1      -7.649  -5.460  -1.871  0.00  0.00    +0.023 A 
ATOM     23  C   UNL     1      -8.050  -6.730  -1.507  0.00  0.00    +0.002 A 
ATOM     24  C   UNL     1      -7.316  -7.831  -1.908  0.00  0.00    +0.000 A 
ATOM     25  C   UNL     1      -6.177  -7.664  -2.674  0.00  0.00    +0.002 A 
ATOM     26  C   UNL     1      -5.773  -6.397  -3.047  0.00  0.00    +0.023 A 
ENDBRANCH  20  21
BRANCH  20  27
ATOM     27  C   UNL     1      -6.909  -3.215  -3.941  0.00  0.00    +0.095 C 
BRANCH  27  28
ATOM     28  C   UNL     1      -6.459  -3.495  -5.377  0.00  0.00    -0.060 C 
BRANCH  28  29
ATOM     29  N   UNL     1      -7.274  -2.704  -6.309  0.00  0.00    +0.377 N 
ATOM     30  C   UNL     1      -6.765  -2.881  -7.675  0.00  0.00    -0.097 C 
ATOM     31  C   UNL     1      -8.670  -3.158  -6.244  0.00  0.00    -0.097 C 
ATOM     32  H   UNL     1      -7.225  -1.729  -6.054  0.00  0.00    -0.083 HD
ENDBRANCH  28  29
ENDBRANCH  27  28
ENDBRANCH  20  27
ENDBRANCH  17  18
ENDBRANCH  12  17
TORSDOF 6
