REMARK  Name = ZINC61820289
REMARK  4 active torsions:
REMARK  status: ('A' for Active; 'I' for Inactive)
REMARK    1  A    between atoms: C_1  and  C_2
REMARK    2  A    between atoms: C_2  and  C_17
REMARK    3  A    between atoms: N_5  and  C_8
REMARK    4  A    between atoms: C_13  and  C_14
REMARK                            x       y       z     vdW  Elec       q    Type
REMARK                         _______ _______ _______ _____ _____    ______ ____
ROOT
ATOM      1  C   UNL     1       4.029  -0.944   0.014  0.00  0.00    +0.040 A 
ATOM      2  C   UNL     1       4.068  -2.329   0.105  0.00  0.00    +0.024 A 
ATOM      3  C   UNL     1       5.275  -2.993   0.022  0.00  0.00    +0.002 A 
ATOM      4  C   UNL     1       6.454  -2.286  -0.154  0.00  0.00    +0.001 A 
ATOM      5  C   UNL     1       6.434  -0.912  -0.246  0.00  0.00    +0.013 A 
ATOM      6  C   UNL     1       5.220  -0.226  -0.169  0.00  0.00    +0.033 A 
ENDROOT
BRANCH   1  11
ATOM      7  C   UNL     1       0.008   1.583   0.299  0.00  0.00    +0.011 C 
ATOM      8  C   UNL     1       0.010   0.053   0.266  0.00  0.00    -0.032 C 
ATOM      9  C   UNL     1       0.659  -0.428  -1.034  0.00  0.00    +0.025 C 
ATOM     10  C   UNL     1       2.088   0.116  -1.118  0.00  0.00    +0.105 C 
ATOM     11  N   UNL     1       2.815  -0.273   0.098  0.00  0.00    -0.329 N 
ATOM     12  C   UNL     1       2.233   0.061   1.405  0.00  0.00    +0.105 C 
ATOM     13  C   UNL     1       0.802  -0.482   1.462  0.00  0.00    +0.025 C 
ATOM     14  C   UNL     1      -1.429  -0.460   0.338  0.00  0.00    +0.011 C 
ENDBRANCH   1  11
BRANCH   6  15
ATOM     15  C   UNL     1       5.191   1.246  -0.274  0.00  0.00    +0.096 C 
ATOM     16  N   UNL     1       4.645   1.973   0.701  0.00  0.00    -0.387 N 
ATOM     17  N   UNL     1       5.710   1.849  -1.343  0.00  0.00    -0.345 N 
ATOM     18  H   UNL     1       4.340   1.542   1.515  0.00  0.00    +0.157 HD
ATOM     19  H   UNL     1       6.107   1.320  -2.053  0.00  0.00    +0.144 HD
ATOM     20  H   UNL     1       5.691   2.816  -1.412  0.00  0.00    +0.144 HD
ATOM     21  H   UNL     1       4.553   2.933   0.597  0.00  0.00    +0.157 HD
ENDBRANCH   6  15
TORSDOF 2
