REMARK  Name = ZINC22966527
REMARK  9 active torsions:
REMARK  status: ('A' for Active; 'I' for Inactive)
REMARK    1  A    between atoms: C_1  and  C_2
REMARK    2  A    between atoms: N_10  and  N_14
REMARK    3  A    between atoms: C_15  and  C_17
REMARK    4  A    between atoms: C_17  and  N_18
REMARK    5  A    between atoms: N_18  and  C_19
REMARK    6  A    between atoms: N_18  and  C_20
REMARK    7  A    between atoms: C_20  and  C_21
REMARK    8  A    between atoms: C_26  and  O_27
REMARK    9  A    between atoms: O_27  and  C_28
REMARK                            x       y       z     vdW  Elec       q    Type
REMARK                         _______ _______ _______ _____ _____    ______ ____
ROOT
ATOM      1  N   UNL     1      -6.662   2.355   2.175  0.00  0.00    -0.225 N 
ATOM      2  C   UNL     1      -5.466   1.825   2.497  0.00  0.00    +0.213 C 
ATOM      3  O   UNL     1      -5.284   0.631   2.392  0.00  0.00    -0.276 OA
ATOM      4  H   UNL     1      -6.828   3.438   2.270  0.00  0.00    +0.173 HD
ENDROOT
BRANCH   1  14
ATOM      5  C   UNL     1     -12.764  -2.280   0.108  0.00  0.00    +0.007 C 
ATOM      6  C   UNL     1     -11.935  -1.387   1.033  0.00  0.00    -0.014 C 
ATOM      7  C   UNL     1     -10.549  -2.003   1.229  0.00  0.00    +0.006 C 
ATOM      8  C   UNL     1      -9.724  -1.114   2.164  0.00  0.00    +0.035 C 
ATOM      9  C   UNL     1      -9.598   0.281   1.563  0.00  0.00    +0.114 C 
ATOM     10  C   UNL     1     -10.974   0.899   1.339  0.00  0.00    +0.035 C 
ATOM     11  C   UNL     1     -11.793   0.003   0.407  0.00  0.00    +0.006 C 
ATOM     12  C   UNL     1      -8.763   1.167   2.460  0.00  0.00    +0.263 C 
ATOM     13  O   UNL     1      -9.003   1.486   3.605  0.00  0.00    -0.271 OA
ATOM     14  N   UNL     1      -7.695   1.526   1.718  0.00  0.00    -0.137 N 
ATOM     15  C   UNL     1      -7.748   0.997   0.489  0.00  0.00    +0.326 C 
ATOM     16  O   UNL     1      -6.901   1.181  -0.363  0.00  0.00    -0.251 OA
ATOM     17  N   UNL     1      -8.843   0.235   0.305  0.00  0.00    -0.284 N 
ATOM     18  H   UNL     1      -9.224  -0.353  -0.543  0.00  0.00    +0.151 HD
ENDBRANCH   1  14
BRANCH   2  19
ATOM     19  C   UNL     1      -4.355   2.717   2.988  0.00  0.00    +0.020 C 
BRANCH  19  20
ATOM     20  N   UNL     1      -3.163   1.904   3.270  0.00  0.00    +0.386 N 
ATOM     21  C   UNL     1      -3.403   0.992   4.396  0.00  0.00    -0.095 C 
ATOM     22  H   UNL     1      -2.952   1.294   2.380  0.00  0.00    -0.081 HD
BRANCH  20  23
ATOM     23  C   UNL     1      -1.993   2.756   3.522  0.00  0.00    -0.039 C 
BRANCH  23  24
ATOM     24  C   UNL     1      -0.751   1.903   3.563  0.00  0.00    -0.022 A 
ATOM     25  C   UNL     1      -0.207   1.531   4.777  0.00  0.00    +0.005 A 
ATOM     26  C   UNL     1       0.932   0.749   4.816  0.00  0.00    +0.000 A 
ATOM     27  C   UNL     1       1.530   0.336   3.639  0.00  0.00    +0.004 A 
ATOM     28  C   UNL     1       0.987   0.701   2.422  0.00  0.00    +0.046 A 
ATOM     29  C   UNL     1      -0.153   1.491   2.381  0.00  0.00    +0.131 A 
BRANCH  29  30
ATOM     30  O   UNL     1      -0.686   1.856   1.185  0.00  0.00    -0.406 OA
BRANCH  30  31
ATOM     31  C   UNL     1      -0.017   1.395   0.010  0.00  0.00    +0.575 C 
ATOM     32  F   UNL     1       0.002  -0.004   0.002  0.00  0.00    -0.133 F 
ATOM     33  F   UNL     1       1.296   1.879  -0.000  0.00  0.00    -0.133 F 
ATOM     34  F   UNL     1      -0.694   1.858  -1.124  0.00  0.00    -0.133 F 
ENDBRANCH  30  31
ENDBRANCH  29  30
ENDBRANCH  23  24
ENDBRANCH  20  23
ENDBRANCH  19  20
ENDBRANCH   2  19
TORSDOF 7
