REMARK  Name = ZINC11077184
REMARK  10 active torsions:
REMARK  status: ('A' for Active; 'I' for Inactive)
REMARK    1  A    between atoms: C_1  and  C_2
REMARK    2  A    between atoms: C_2  and  C_3
REMARK    3  A    between atoms: C_2  and  C_4
REMARK    4  A    between atoms: C_7  and  C_10
REMARK    5  A    between atoms: C_10  and  C_31
REMARK    6  A    between atoms: N_13  and  C_17
REMARK    7  A    between atoms: C_17  and  C_18
REMARK    8  A    between atoms: N_20  and  C_21
REMARK    9  A    between atoms: C_24  and  S_27
REMARK   10  A    between atoms: S_27  and  C_30
REMARK                            x       y       z     vdW  Elec       q    Type
REMARK                         _______ _______ _______ _____ _____    ______ ____
ROOT
ATOM      1  C   UNL     1       2.453   3.942  -0.004  0.00  0.00    +0.135 C 
ATOM      2  C   UNL     1       2.294   5.267   0.715  0.00  0.00    +0.251 C 
ATOM      3  O   UNL     1       1.556   6.179   0.413  0.00  0.00    -0.272 OA
ATOM      4  N   UNL     1       3.145   5.219   1.758  0.00  0.00    -0.215 N 
ATOM      5  C   UNL     1       3.813   4.060   1.799  0.00  0.00    +0.310 C 
ATOM      6  O   UNL     1       4.636   3.784   2.649  0.00  0.00    -0.252 OA
ATOM      7  N   UNL     1       3.470   3.235   0.793  0.00  0.00    -0.281 N 
ATOM      8  C   UNL     1       2.943   4.161  -1.437  0.00  0.00    +0.047 C 
ATOM      9  H   UNL     1       3.825   2.348   0.626  0.00  0.00    +0.152 HD
ENDROOT
BRANCH   1  13
ATOM     10  C   UNL     1      -1.230   1.778  -0.004  0.00  0.00    -0.045 A 
ATOM     11  C   UNL     1      -0.028   1.096  -0.009  0.00  0.00    +0.004 A 
ATOM     12  C   UNL     1       1.164   1.796  -0.010  0.00  0.00    +0.006 A 
ATOM     13  C   UNL     1       1.153   3.178  -0.002  0.00  0.00    -0.015 A 
ATOM     14  C   UNL     1      -0.049   3.860   0.009  0.00  0.00    +0.006 A 
ATOM     15  C   UNL     1      -1.241   3.160   0.011  0.00  0.00    +0.004 A 
BRANCH  10  17
ATOM     16  C   UNL     1      -3.334   1.370   1.244  0.00  0.00    +0.012 C 
ATOM     17  C   UNL     1      -2.530   1.014  -0.008  0.00  0.00    +0.013 C 
ATOM     18  C   UNL     1      -3.335   1.386  -1.254  0.00  0.00    +0.012 C 
ENDBRANCH  10  17
ENDBRANCH   1  13
BRANCH   4  19
ATOM     19  C   UNL     1       3.318   6.303   2.729  0.00  0.00    +0.214 C 
BRANCH  19  20
ATOM     20  C   UNL     1       2.354   6.112   3.872  0.00  0.00    +0.235 C 
ATOM     21  O   UNL     1       1.597   5.164   3.874  0.00  0.00    -0.274 OA
ATOM     22  N   UNL     1       2.332   6.994   4.890  0.00  0.00    -0.284 N 
ATOM     23  H   UNL     1       2.982   7.713   4.922  0.00  0.00    +0.155 HD
BRANCH  22  24
ATOM     24  C   UNL     1       1.373   6.872   5.901  0.00  0.00    +0.034 A 
ATOM     25  C   UNL     1       0.841   8.008   6.497  0.00  0.00    +0.025 A 
ATOM     26  C   UNL     1      -0.110   7.885   7.490  0.00  0.00    +0.029 A 
ATOM     27  C   UNL     1      -0.525   6.631   7.901  0.00  0.00    +0.088 A 
ATOM     28  C   UNL     1       0.007   5.497   7.314  0.00  0.00    +0.029 A 
ATOM     29  C   UNL     1       0.955   5.614   6.316  0.00  0.00    +0.025 A 
BRANCH  27  30
ATOM     30  S   UNL     1      -1.733   6.477   9.174  0.00  0.00    -0.006 S 
ATOM     31  O   UNL     1      -2.480   7.684   9.112  0.00  0.00    -0.170 OA
ATOM     32  O   UNL     1      -2.359   5.225   8.930  0.00  0.00    -0.170 OA
ATOM     33  C   UNL     1      -0.780   6.410  10.716  0.00  0.00    +0.200 C 
ENDBRANCH  27  30
ENDBRANCH  22  24
ENDBRANCH  19  20
ENDBRANCH   4  19
TORSDOF 6
