REMARK  Name = ZINC13249591
REMARK  7 active torsions:
REMARK  status: ('A' for Active; 'I' for Inactive)
REMARK    1  A    between atoms: C_4  and  C_7
REMARK    2  A    between atoms: C_7  and  N_8
REMARK    3  A    between atoms: N_8  and  C_9
REMARK    4  A    between atoms: N_8  and  S_22
REMARK    5  A    between atoms: C_9  and  C_10
REMARK    6  A    between atoms: S_22  and  C_25
REMARK    7  A    between atoms: C_28  and  C_31
REMARK                            x       y       z     vdW  Elec       q    Type
REMARK                         _______ _______ _______ _____ _____    ______ ____
ROOT
ATOM      1  N   UNL     1      -3.540  -1.794   0.027  0.00  0.00    -0.165 NA
ENDROOT
BRANCH   1   2
ATOM      2  S   UNL     1      -4.230  -1.348   1.465  0.00  0.00    +0.062 S 
ATOM      3  O   UNL     1      -5.542  -0.893   1.162  0.00  0.00    -0.153 OA
ATOM      4  O   UNL     1      -3.984  -2.407   2.380  0.00  0.00    -0.153 OA
BRANCH   2   5
ATOM      5  C   UNL     1      -3.337   0.049   2.060  0.00  0.00    +0.106 A 
ATOM      6  C   UNL     1      -2.240  -0.134   2.884  0.00  0.00    +0.029 A 
ATOM      7  C   UNL     1      -1.534   0.955   3.350  0.00  0.00    +0.017 A 
ATOM      8  C   UNL     1      -1.933   2.245   2.996  0.00  0.00    +0.063 A 
ATOM      9  C   UNL     1      -3.044   2.424   2.169  0.00  0.00    +0.017 A 
ATOM     10  C   UNL     1      -3.738   1.325   1.706  0.00  0.00    +0.029 A 
BRANCH   8  11
ATOM     11  C   UNL     1      -1.184   3.417   3.495  0.00  0.00    +0.387 C 
ATOM     12  O   UNL     1      -1.534   4.538   3.186  0.00  0.00    -0.241 OA
ATOM     13  O   UNL     1      -0.113   3.242   4.293  0.00  0.00    -0.241 OA
ENDBRANCH   8  11
ENDBRANCH   2   5
ENDBRANCH   1   2
BRANCH   1  14
ATOM     14  C   UNL     1      -4.028  -1.220  -1.229  0.00  0.00    +0.145 C 
BRANCH  14  18
ATOM     15  C   UNL     1      -6.913  -3.846  -2.969  0.00  0.00    +0.000 A 
ATOM     16  C   UNL     1      -7.319  -2.858  -2.091  0.00  0.00    +0.000 A 
ATOM     17  C   UNL     1      -6.385  -2.009  -1.528  0.00  0.00    +0.005 A 
ATOM     18  C   UNL     1      -5.046  -2.147  -1.843  0.00  0.00    -0.032 A 
ATOM     19  C   UNL     1      -4.641  -3.131  -2.725  0.00  0.00    +0.005 A 
ATOM     20  C   UNL     1      -5.574  -3.984  -3.284  0.00  0.00    +0.000 A 
ENDBRANCH  14  18
ENDBRANCH   1  14
BRANCH   1  21
ATOM     21  C   UNL     1      -2.441  -2.763   0.011  0.00  0.00    +0.184 C 
BRANCH  21  22
ATOM     22  C   UNL     1      -1.125  -2.030   0.003  0.00  0.00    +0.126 A 
ATOM     23  N   UNL     1       0.020  -2.761  -0.012  0.00  0.00    -0.309 N 
ATOM     24  H   UNL     1      -0.028  -3.729  -0.016  0.00  0.00    +0.170 HD
ATOM     25  C   UNL     1       1.228  -2.150  -0.021  0.00  0.00    +0.259 A 
ATOM     26  O   UNL     1       2.262  -2.792  -0.034  0.00  0.00    -0.267 OA
ATOM     27  C   UNL     1       1.242  -0.679  -0.013  0.00  0.00    +0.065 A 
ATOM     28  C   UNL     1       2.432   0.046  -0.021  0.00  0.00    +0.015 A 
ATOM     29  C   UNL     1       2.388   1.423  -0.013  0.00  0.00    +0.001 A 
ATOM     30  C   UNL     1       1.170   2.090   0.002  0.00  0.00    +0.002 A 
ATOM     31  C   UNL     1      -0.017   1.392   0.010  0.00  0.00    +0.028 A 
ATOM     32  C   UNL     1       0.002  -0.004   0.002  0.00  0.00    +0.078 A 
ATOM     33  N   UNL     1      -1.143  -0.731   0.009  0.00  0.00    -0.232 NA
ENDBRANCH  21  22
ENDBRANCH   1  21
TORSDOF 7
