REMARK  Name = ZINC64155872
REMARK  6 active torsions:
REMARK  status: ('A' for Active; 'I' for Inactive)
REMARK    1  A    between atoms: N_11  and  C_17
REMARK    2  A    between atoms: C_13  and  O_16
REMARK    3  A    between atoms: C_17  and  C_18
REMARK    4  A    between atoms: N_20  and  C_21
REMARK    5  A    between atoms: C_21  and  C_22
REMARK    6  A    between atoms: C_22  and  C_23
REMARK                            x       y       z     vdW  Elec       q    Type
REMARK                         _______ _______ _______ _____ _____    ______ ____
ROOT
ATOM      1  C   UNL     1       4.796   1.051   1.766  0.00  0.00    +0.200 C 
ENDROOT
BRANCH   1  12
ATOM      2  C   UNL     1      -0.016   1.357   0.009  0.00  0.00    +0.001 A 
ATOM      3  C   UNL     1       1.174   2.080   0.002  0.00  0.00    +0.001 A 
ATOM      4  C   UNL     1       2.380   1.448   0.031  0.00  0.00    +0.010 A 
ATOM      5  C   UNL     1       2.443   0.050   0.124  0.00  0.00    +0.003 A 
ATOM      6  C   UNL     1       1.232  -0.682  -0.008  0.00  0.00    -0.016 A 
ATOM      7  C   UNL     1       0.002  -0.004   0.002  0.00  0.00    +0.008 A 
ATOM      8  C   UNL     1       1.288  -2.074  -0.183  0.00  0.00    +0.009 A 
ATOM      9  C   UNL     1       2.486  -2.713  -0.148  0.00  0.00    +0.006 A 
ATOM     10  C   UNL     1       3.671  -2.023   0.121  0.00  0.00    -0.023 A 
ATOM     11  C   UNL     1       3.641  -0.659   0.336  0.00  0.00    +0.041 A 
ATOM     12  N   UNL     1       4.802  -0.043   0.799  0.00  0.00    -0.318 N 
ATOM     13  C   UNL     1       6.085  -0.593   0.322  0.00  0.00    +0.137 C 
ATOM     14  C   UNL     1       6.111  -2.061   0.772  0.00  0.00    +0.136 C 
ATOM     15  C   UNL     1       4.952  -2.813   0.131  0.00  0.00    +0.070 C 
BRANCH  14  16
ATOM     16  O   UNL     1       7.350  -2.656   0.374  0.00  0.00    -0.390 OA
ATOM     17  H   UNL     1       7.438  -3.586   0.626  0.00  0.00    +0.210 HD
ENDBRANCH  14  16
ENDBRANCH   1  12
BRANCH   1  18
ATOM     18  C   UNL     1       4.869   0.488   3.162  0.00  0.00    +0.230 C 
ATOM     19  O   UNL     1       4.920  -0.712   3.330  0.00  0.00    -0.274 OA
ATOM     20  N   UNL     1       4.876   1.319   4.224  0.00  0.00    -0.314 N 
ATOM     21  H   UNL     1       4.835   2.278   4.089  0.00  0.00    +0.149 HD
BRANCH  20  22
ATOM     22  C   UNL     1       4.946   0.771   5.581  0.00  0.00    +0.108 C 
BRANCH  22  23
ATOM     23  C   UNL     1       4.940   1.917   6.594  0.00  0.00    +0.052 C 
BRANCH  23  24
ATOM     24  C   UNL     1       5.012   1.355   7.990  0.00  0.00    -0.040 C 
ATOM     25  C   UNL     1       6.124   1.184   8.741  0.00  0.00    -0.001 A 
ATOM     26  C   UNL     1       7.544   1.460   8.493  0.00  0.00    +0.010 A 
ATOM     27  C   UNL     1       8.447   1.175   9.459  0.00  0.00    +0.001 A 
ATOM     28  C   UNL     1       8.061   0.623  10.688  0.00  0.00    +0.002 A 
ATOM     29  C   UNL     1       6.776   0.342  10.990  0.00  0.00    +0.026 A 
ATOM     30  C   UNL     1       5.742   0.602  10.048  0.00  0.00    +0.043 A 
ATOM     31  N   UNL     1       4.445   0.420  10.102  0.00  0.00    -0.380 N 
ATOM     32  C   UNL     1       3.856   0.872   8.837  0.00  0.00    +0.144 C 
ATOM     33  H   UNL     1       3.957   0.052  10.855  0.00  0.00    +0.160 HD
ENDBRANCH  23  24
ENDBRANCH  22  23
ENDBRANCH  20  22
ENDBRANCH   1  18
TORSDOF 6
