REMARK  Name = ZINC39770431
REMARK  4 active torsions:
REMARK  status: ('A' for Active; 'I' for Inactive)
REMARK    1  A    between atoms: C_6  and  C_7
REMARK    2  A    between atoms: C_10  and  C_12
REMARK    3  A    between atoms: C_13  and  C_14
REMARK    4  A    between atoms: C_13  and  C_16
REMARK                            x       y       z     vdW  Elec       q    Type
REMARK                         _______ _______ _______ _____ _____    ______ ____
ROOT
ATOM      1  C   UNL     1      -1.265  -0.757   0.010  0.00  0.00    +0.136 A 
ATOM      2  C   UNL     1      -2.527  -0.207   0.019  0.00  0.00    +0.050 A 
ATOM      3  C   UNL     1      -3.435  -1.270   0.025  0.00  0.00    +0.050 A 
ATOM      4  C   UNL     1      -2.689  -2.433   0.018  0.00  0.00    +0.130 A 
ATOM      5  O   UNL     1      -1.383  -2.098   0.004  0.00  0.00    -0.455 OA
ENDROOT
BRANCH   1  11
ATOM      6  C   UNL     1      -0.017   1.393   0.010  0.00  0.00    +0.012 A 
ATOM      7  C   UNL     1       1.166   2.107   0.002  0.00  0.00    +0.014 A 
ATOM      8  C   UNL     1       2.381   1.434  -0.013  0.00  0.00    +0.049 A 
ATOM      9  C   UNL     1       2.407   0.021  -0.021  0.00  0.00    +0.050 A 
ATOM     10  C   UNL     1       1.224  -0.691  -0.013  0.00  0.00    +0.025 A 
ATOM     11  C   UNL     1       0.002  -0.004   0.002  0.00  0.00    +0.018 A 
ATOM     12  C   UNL     1       3.837  -0.355  -0.036  0.00  0.00    +0.251 C 
ATOM     13  O   UNL     1       4.272  -1.489  -0.047  0.00  0.00    -0.270 OA
ATOM     14  N   UNL     1       4.575   0.770  -0.037  0.00  0.00    -0.248 N 
ATOM     15  C   UNL     1       3.792   1.864  -0.024  0.00  0.00    +0.251 C 
ATOM     16  O   UNL     1       4.183   3.014  -0.022  0.00  0.00    -0.270 OA
ATOM     17  H   UNL     1       5.545   0.789  -0.046  0.00  0.00    +0.158 HD
ENDBRANCH   1  11
BRANCH   4  18
ATOM     18  C   UNL     1      -3.207  -3.751   0.021  0.00  0.00    +0.064 C 
ATOM     19  C   UNL     1      -2.362  -4.811   0.013  0.00  0.00    +0.075 C 
BRANCH  19  20
ATOM     20  C   UNL     1      -2.914  -6.214   0.016  0.00  0.00    +0.218 C 
ATOM     21  N   UNL     1      -2.450  -6.940  -1.173  0.00  0.00    -0.358 N 
ATOM     22  C   UNL     1      -1.763  -7.964  -0.760  0.00  0.00    +0.081 A 
ATOM     23  C   UNL     1      -1.056  -9.046  -1.467  0.00  0.00    +0.045 A 
ATOM     24  C   UNL     1      -0.424  -9.980  -0.715  0.00  0.00    +0.038 A 
ATOM     25  C   UNL     1      -0.447  -9.912   0.692  0.00  0.00    +0.128 A 
ATOM     26  N   UNL     1      -1.060  -8.975   1.354  0.00  0.00    -0.235 NA
ATOM     27  C   UNL     1      -1.732  -7.976   0.727  0.00  0.00    +0.152 A 
ATOM     28  N   UNL     1      -2.406  -6.953   1.178  0.00  0.00    -0.344 N 
ATOM     29 BR   UNL     1       0.500 -11.393  -1.566  0.00  0.00    -0.049 Br
ATOM     30  H   UNL     1      -2.545  -6.722   2.110  0.00  0.00    +0.163 HD
ATOM     31  H   UNL     1      -2.623  -6.700  -2.096  0.00  0.00    +0.162 HD
ENDBRANCH  19  20
BRANCH  19  32
ATOM     32  C   UNL     1      -0.946  -4.599   0.003  0.00  0.00    +0.099 C 
ATOM     33  N   UNL     1       0.177  -4.430  -0.005  0.00  0.00    -0.191 NA
ENDBRANCH  19  32
ENDBRANCH   4  18
TORSDOF 4
