REMARK  Name = ZINC65414517
REMARK  13 active torsions:
REMARK  status: ('A' for Active; 'I' for Inactive)
REMARK    1  A    between atoms: C_1  and  C_2
REMARK    2  A    between atoms: C_5  and  C_8
REMARK    3  A    between atoms: C_8  and  C_9
REMARK    4  A    between atoms: C_8  and  N_27
REMARK    5  A    between atoms: C_9  and  N_10
REMARK    6  A    between atoms: N_13  and  C_14
REMARK    7  A    between atoms: C_16  and  C_22
REMARK    8  A    between atoms: C_19  and  O_20
REMARK    9  A    between atoms: O_20  and  C_21
REMARK   10  A    between atoms: N_24  and  C_25
REMARK   11  A    between atoms: N_24  and  C_26
REMARK   12  A    between atoms: N_27  and  C_28
REMARK   13  A    between atoms: N_27  and  C_29
REMARK                            x       y       z     vdW  Elec       q    Type
REMARK                         _______ _______ _______ _____ _____    ______ ____
ROOT
ATOM      1  N   UNL     1      -0.861  -6.588   0.535  0.00  0.00    -0.300 N 
ATOM      2  C   UNL     1      -1.955  -7.343   0.754  0.00  0.00    +0.304 C 
ATOM      3  O   UNL     1      -3.063  -6.849   0.668  0.00  0.00    -0.253 OA
ATOM      4  N   UNL     1      -1.821  -8.647   1.069  0.00  0.00    -0.266 N 
ATOM      5  H   UNL     1       0.023  -6.982   0.604  0.00  0.00    +0.150 HD
ATOM      6  H   UNL     1      -0.944  -9.059   1.066  0.00  0.00    +0.156 HD
ENDROOT
BRANCH   4   7
ATOM      7  C   UNL     1      -2.952  -9.407   1.402  0.00  0.00    +0.077 A 
ATOM      8  C   UNL     1      -4.165  -9.146   0.791  0.00  0.00    +0.040 A 
ATOM      9  C   UNL     1      -5.288  -9.906   1.125  0.00  0.00    +0.039 A 
ATOM     10  C   UNL     1      -5.182 -10.927   2.073  0.00  0.00    +0.017 A 
ATOM     11  C   UNL     1      -3.970 -11.183   2.678  0.00  0.00    +0.048 A 
ATOM     12  C   UNL     1      -2.852 -10.431   2.344  0.00  0.00    +0.141 A 
BRANCH   9  13
ATOM     13  C   UNL     1      -6.586  -9.632   0.477  0.00  0.00    +0.246 C 
ATOM     14  O   UNL     1      -6.894  -8.491   0.192  0.00  0.00    -0.270 OA
ATOM     15  N   UNL     1      -7.430 -10.646   0.201  0.00  0.00    -0.304 N 
ATOM     16  C   UNL     1      -8.671 -10.388  -0.533  0.00  0.00    +0.132 C 
ATOM     17  C   UNL     1      -7.106 -12.007   0.636  0.00  0.00    +0.132 C 
ENDBRANCH   9  13
BRANCH  12  18
ATOM     18  O   UNL     1      -1.659 -10.691   2.938  0.00  0.00    -0.493 OA
ATOM     19  C   UNL     1      -1.627 -11.754   3.894  0.00  0.00    +0.277 C 
ENDBRANCH  12  18
ENDBRANCH   4   7
BRANCH   1  20
ATOM     20  C   UNL     1      -1.006  -5.171   0.193  0.00  0.00    +0.095 C 
BRANCH  20  21
ATOM     21  C   UNL     1       0.368  -4.580  -0.128  0.00  0.00    -0.021 C 
BRANCH  21  26
ATOM     22  C   UNL     1       2.570  -7.237  -4.763  0.00  0.00    +0.044 C 
ATOM     23  C   UNL     1       1.996  -6.544  -3.554  0.00  0.00    -0.050 A 
ATOM     24  C   UNL     1       2.411  -6.908  -2.287  0.00  0.00    +0.003 A 
ATOM     25  C   UNL     1       1.884  -6.272  -1.178  0.00  0.00    +0.002 A 
ATOM     26  C   UNL     1       0.943  -5.272  -1.337  0.00  0.00    -0.059 A 
ATOM     27  C   UNL     1       0.529  -4.908  -2.604  0.00  0.00    +0.002 A 
ATOM     28  C   UNL     1       1.059  -5.540  -3.713  0.00  0.00    +0.003 A 
ENDBRANCH  21  26
BRANCH  21  29
ATOM     29  N   UNL     1       0.232  -3.144  -0.405  0.00  0.00    +0.382 N 
ATOM     30  C   UNL     1      -0.238  -2.454   0.805  0.00  0.00    -0.096 C 
ATOM     31  C   UNL     1       1.534  -2.596  -0.806  0.00  0.00    -0.096 C 
ATOM     32  H   UNL     1      -0.435  -3.007  -1.150  0.00  0.00    -0.082 HD
ENDBRANCH  21  29
ENDBRANCH  20  21
ENDBRANCH   1  20
TORSDOF 7
