REMARK  Name = ZINC41055957
REMARK  3 active torsions:
REMARK  status: ('A' for Active; 'I' for Inactive)
REMARK    1  A    between atoms: C_3  and  N_22
REMARK    2  A    between atoms: C_6  and  N_7
REMARK    3  A    between atoms: C_8  and  C_10
REMARK                            x       y       z     vdW  Elec       q    Type
REMARK                         _______ _______ _______ _____ _____    ______ ____
ROOT
ATOM      1  N   UNL     1      -1.199  -0.723   0.019  0.00  0.00    -0.281 N 
ATOM      2  C   UNL     1      -1.182  -2.065  -0.099  0.00  0.00    +0.253 C 
ATOM      3  O   UNL     1      -0.121  -2.660  -0.121  0.00  0.00    -0.270 OA
ATOM      4  H   UNL     1      -2.043  -0.255   0.120  0.00  0.00    +0.155 HD
ENDROOT
BRANCH   2   5
ATOM      5  C   UNL     1      -2.446  -2.811  -0.201  0.00  0.00    +0.100 A 
ATOM      6  C   UNL     1      -2.447  -4.190  -0.204  0.00  0.00    +0.100 A 
ATOM      7  N   UNL     1      -3.578  -4.902  -0.296  0.00  0.00    -0.360 N 
ATOM      8  C   UNL     1      -4.822  -4.318  -0.395  0.00  0.00    +0.052 A 
ATOM      9  C   UNL     1      -5.968  -5.103  -0.487  0.00  0.00    +0.046 A 
ATOM     10  C   UNL     1      -7.205  -4.502  -0.585  0.00  0.00    +0.043 A 
ATOM     11  C   UNL     1      -7.322  -3.118  -0.591  0.00  0.00    +0.021 A 
ATOM     12  C   UNL     1      -6.210  -2.329  -0.501  0.00  0.00    +0.015 A 
ATOM     13  C   UNL     1      -4.949  -2.918  -0.401  0.00  0.00    +0.046 A 
ATOM     14  C   UNL     1      -3.729  -2.098  -0.296  0.00  0.00    +0.201 A 
ATOM     15  O   UNL     1      -3.781  -0.880  -0.292  0.00  0.00    -0.286 OA
ATOM     16 CL   UNL     1      -8.632  -5.485  -0.700  0.00  0.00    -0.083 Cl
ATOM     17  H   UNL     1      -3.519  -5.871  -0.294  0.00  0.00    +0.165 HD
ENDBRANCH   2   5
BRANCH   1  23
ATOM     18  C   UNL     1       0.063   1.224  -0.652  0.00  0.00    +0.025 A 
ATOM     19  C   UNL     1       1.248   1.932  -0.672  0.00  0.00    +0.034 A 
ATOM     20  C   UNL     1       2.372   1.421  -0.048  0.00  0.00    +0.126 A 
ATOM     21  C   UNL     1       2.312   0.200   0.598  0.00  0.00    +0.034 A 
ATOM     22  C   UNL     1       1.130  -0.513   0.622  0.00  0.00    +0.025 A 
ATOM     23  C   UNL     1      -0.000  -0.003  -0.004  0.00  0.00    +0.034 A 
BRANCH  20  24
ATOM     24  N   UNL     1       3.641   2.183  -0.072  0.00  0.00    +0.056 N 
ATOM     25  O   UNL     1       3.694   3.251  -0.637  0.00  0.00    -0.126 OA
ATOM     26  O   UNL     1       4.623   1.738   0.473  0.00  0.00    -0.126 OA
ENDBRANCH  20  24
ENDBRANCH   1  23
TORSDOF 3
