REMARK  Name = ZINC40824398
REMARK  6 active torsions:
REMARK  status: ('A' for Active; 'I' for Inactive)
REMARK    1  A    between atoms: C_1  and  C_2
REMARK    2  A    between atoms: C_2  and  N_3
REMARK    3  A    between atoms: N_3  and  C_4
REMARK    4  A    between atoms: C_10  and  C_12
REMARK    5  A    between atoms: C_13  and  C_26
REMARK    6  A    between atoms: N_21  and  N_22
REMARK                            x       y       z     vdW  Elec       q    Type
REMARK                         _______ _______ _______ _____ _____    ______ ____
ROOT
ATOM      1  C   UNL     1       2.605  -0.521  -0.295  0.00  0.00    +0.193 A 
ATOM      2  C   UNL     1       3.929  -0.723  -0.574  0.00  0.00    +0.009 A 
ATOM      3  C   UNL     1       4.114  -0.320  -1.903  0.00  0.00    +0.042 A 
ATOM      4  C   UNL     1       2.898   0.111  -2.377  0.00  0.00    +0.115 A 
ATOM      5  O   UNL     1       2.004  -0.024  -1.400  0.00  0.00    -0.454 OA
ATOM      6  C   UNL     1       2.702   0.630  -3.779  0.00  0.00    +0.075 C 
ATOM      7  C   UNL     1       4.051   1.072  -4.351  0.00  0.00    +0.014 C 
ATOM      8  C   UNL     1       5.086  -0.051  -4.227  0.00  0.00    +0.058 C 
ATOM      9  C   UNL     1       5.330  -0.312  -2.748  0.00  0.00    +0.070 C 
ATOM     10  N   UNL     1       6.516  -0.513  -2.263  0.00  0.00    -0.183 NA
ATOM     11  C   UNL     1       4.977  -1.268   0.360  0.00  0.00    +0.048 C 
ENDROOT
BRANCH  10  12
ATOM     12  N   UNL     1       7.631  -0.494  -3.110  0.00  0.00    -0.191 N 
ATOM     13  C   UNL     1       8.864  -0.703  -2.606  0.00  0.00    +0.317 C 
ATOM     14  O   UNL     1       9.832  -0.687  -3.341  0.00  0.00    -0.251 OA
ATOM     15  N   UNL     1       9.023  -0.930  -1.287  0.00  0.00    -0.312 N 
ATOM     16  H   UNL     1       7.516  -0.331  -4.059  0.00  0.00    +0.179 HD
ATOM     17  H   UNL     1       8.250  -0.943  -0.700  0.00  0.00    +0.147 HD
ATOM     18  H   UNL     1       9.910  -1.080  -0.924  0.00  0.00    +0.147 HD
ENDBRANCH  10  12
BRANCH   1  20
ATOM     19  N   UNL     1       0.610  -0.677   1.097  0.00  0.00    -0.265 N 
ATOM     20  C   UNL     1       1.947  -0.801   0.985  0.00  0.00    +0.286 C 
ATOM     21  O   UNL     1       2.609  -1.147   1.946  0.00  0.00    -0.266 OA
BRANCH  19  22
ATOM     22  C   UNL     1      -0.003  -0.813   2.347  0.00  0.00    +0.037 A 
ATOM     23  C   UNL     1      -1.388  -0.854   2.442  0.00  0.00    +0.023 A 
ATOM     24  C   UNL     1      -1.990  -0.988   3.678  0.00  0.00    +0.002 A 
ATOM     25  C   UNL     1      -1.215  -1.082   4.819  0.00  0.00    +0.000 A 
ATOM     26  C   UNL     1       0.164  -1.041   4.728  0.00  0.00    +0.002 A 
ATOM     27  C   UNL     1       0.773  -0.913   3.495  0.00  0.00    +0.023 A 
ENDBRANCH  19  22
BRANCH  19  29
ATOM     28  C   UNL     1      -0.300   1.113  -0.298  0.00  0.00    +0.025 C 
ATOM     29  C   UNL     1      -0.202  -0.399  -0.090  0.00  0.00    +0.111 C 
ENDBRANCH  19  29
ENDBRANCH   1  20
TORSDOF 4
