REMARK  Name = ZINC35512239
REMARK  11 active torsions:
REMARK  status: ('A' for Active; 'I' for Inactive)
REMARK    1  A    between atoms: C_1  and  C_2
REMARK    2  A    between atoms: C_2  and  C_3
REMARK    3  A    between atoms: C_3  and  C_4
REMARK    4  A    between atoms: C_4  and  O_5
REMARK    5  A    between atoms: O_5  and  C_6
REMARK    6  A    between atoms: C_9  and  C_15
REMARK    7  A    between atoms: C_11  and  O_12
REMARK    8  A    between atoms: O_12  and  C_13
REMARK    9  A    between atoms: C_13  and  C_14
REMARK   10  A    between atoms: C_34  and  C_36
REMARK   11  A    between atoms: C_36  and  C_37
REMARK                            x       y       z     vdW  Elec       q    Type
REMARK                         _______ _______ _______ _____ _____    ______ ____
ROOT
ATOM      1  C   UNL     1       1.844  -8.068  -3.111  0.00  0.00    +0.152 C 
ATOM      2  C   UNL     1       0.557  -8.627  -3.622  0.00  0.00    +0.072 A 
ATOM      3  C   UNL     1      -0.191  -8.360  -4.854  0.00  0.00    +0.199 A 
ATOM      4  O   UNL     1       0.259  -7.707  -5.779  0.00  0.00    -0.287 OA
ATOM      5  C   UNL     1      -1.549  -8.961  -4.868  0.00  0.00    +0.067 A 
ATOM      6  C   UNL     1      -2.455  -8.633  -5.876  0.00  0.00    +0.053 A 
ATOM      7  C   UNL     1      -3.714  -9.197  -5.870  0.00  0.00    +0.124 A 
ATOM      8  C   UNL     1      -4.073 -10.085  -4.863  0.00  0.00    +0.042 A 
ATOM      9  C   UNL     1      -3.186 -10.415  -3.865  0.00  0.00    +0.050 A 
ATOM     10  C   UNL     1      -1.906  -9.861  -3.850  0.00  0.00    +0.140 A 
ATOM     11  O   UNL     1      -1.051 -10.211  -2.862  0.00  0.00    -0.450 OA
ATOM     12  C   UNL     1       0.095  -9.522  -2.697  0.00  0.00    +0.199 A 
ATOM     13  C   UNL     1       1.050  -9.562  -1.577  0.00  0.00    +0.289 C 
ATOM     14  O   UNL     1       0.931 -10.256  -0.587  0.00  0.00    -0.266 OA
ATOM     15  N   UNL     1       2.077  -8.717  -1.810  0.00  0.00    -0.230 N 
ATOM     16  C   UNL     1       3.162  -8.498  -0.972  0.00  0.00    +0.191 A 
ATOM     17  N   UNL     1       4.203  -7.689  -1.117  0.00  0.00    -0.125 NA
ATOM     18  N   UNL     1       5.111  -7.611  -0.245  0.00  0.00    -0.145 NA
ATOM     19  C   UNL     1       5.085  -8.326   0.862  0.00  0.00    +0.103 A 
ATOM     20  S   UNL     1       3.552  -9.220   0.620  0.00  0.00    -0.035 S 
ATOM     21  F   UNL     1      -4.597  -8.885  -6.843  0.00  0.00    -0.205 F 
ENDROOT
BRANCH   1  25
ATOM     22  C   UNL     1       1.514  -3.834  -2.603  0.00  0.00    +0.162 A 
ATOM     23  C   UNL     1       0.980  -4.692  -1.655  0.00  0.00    +0.050 A 
ATOM     24  C   UNL     1       1.089  -6.060  -1.822  0.00  0.00    +0.009 A 
ATOM     25  C   UNL     1       1.728  -6.576  -2.934  0.00  0.00    -0.018 A 
ATOM     26  C   UNL     1       2.263  -5.725  -3.884  0.00  0.00    +0.055 A 
ATOM     27  C   UNL     1       2.153  -4.353  -3.725  0.00  0.00    +0.162 A 
BRANCH  22  28
ATOM     28  O   UNL     1       1.408  -2.488  -2.441  0.00  0.00    -0.488 OA
BRANCH  28  29
ATOM     29  C   UNL     1       0.739  -2.027  -1.265  0.00  0.00    +0.229 C 
BRANCH  29  30
ATOM     30  C   UNL     1       0.718  -0.497  -1.257  0.00  0.00    +0.041 C 
BRANCH  30  32
ATOM     31  C   UNL     1      -0.019   1.526   0.010  0.00  0.00    +0.004 C 
ATOM     32  C   UNL     1       0.002  -0.004   0.002  0.00  0.00    -0.000 C 
ENDBRANCH  30  32
ENDBRANCH  29  30
ENDBRANCH  28  29
ENDBRANCH  22  28
BRANCH  27  33
ATOM     33  O   UNL     1       2.673  -3.515  -4.662  0.00  0.00    -0.489 OA
BRANCH  33  34
ATOM     34  C   UNL     1       3.315  -4.118  -5.787  0.00  0.00    +0.226 C 
ATOM     35  C   UNL     1       3.833  -3.026  -6.725  0.00  0.00    +0.048 C 
ENDBRANCH  33  34
ENDBRANCH  27  33
ENDBRANCH   1  25
BRANCH  19  36
ATOM     36  C   UNL     1       6.062  -8.373   2.008  0.00  0.00    +0.061 C 
ATOM     37  C   UNL     1       5.666  -7.334   3.059  0.00  0.00    +0.011 C 
ENDBRANCH  19  36
TORSDOF 8
