REMARK  Name = ZINC41511249
REMARK  12 active torsions:
REMARK  status: ('A' for Active; 'I' for Inactive)
REMARK    1  A    between atoms: C_1  and  C_2
REMARK    2  A    between atoms: C_4  and  O_34
REMARK    3  A    between atoms: C_5  and  C_25
REMARK    4  A    between atoms: C_11  and  C_12
REMARK    5  A    between atoms: C_14  and  O_22
REMARK    6  A    between atoms: C_15  and  O_20
REMARK    7  A    between atoms: C_16  and  O_18
REMARK    8  A    between atoms: O_18  and  C_19
REMARK    9  A    between atoms: O_20  and  C_21
REMARK   10  A    between atoms: O_22  and  C_23
REMARK   11  A    between atoms: C_25  and  N_26
REMARK   12  A    between atoms: C_31  and  C_33
REMARK                            x       y       z     vdW  Elec       q    Type
REMARK                         _______ _______ _______ _____ _____    ______ ____
ROOT
ATOM      1  C   UNL     1       1.917   0.969  -0.017  0.00  0.00    +0.045 C 
ATOM      2  C   UNL     1       1.933  -0.538  -0.036  0.00  0.00    -0.033 A 
ATOM      3  C   UNL     1       1.856  -1.208  -1.225  0.00  0.00    +0.050 A 
ATOM      4  C   UNL     1       1.871  -2.599  -1.246  0.00  0.00    +0.122 A 
ATOM      5  C   UNL     1       1.964  -3.321  -0.067  0.00  0.00    +0.020 A 
ATOM      6  C   UNL     1       2.043  -2.656   1.150  0.00  0.00    +0.145 A 
ATOM      7  C   UNL     1       2.033  -1.252   1.158  0.00  0.00    +0.071 A 
ATOM      8  C   UNL     1       2.136  -0.843   2.571  0.00  0.00    +0.232 C 
ATOM      9  O   UNL     1       2.156   0.289   3.021  0.00  0.00    -0.283 OA
ATOM     10  C   UNL     1       2.207  -2.108   3.316  0.00  0.00    +0.176 C 
ATOM     11  C   UNL     1       2.311  -2.241   4.663  0.00  0.00    +0.058 C 
ATOM     12  O   UNL     1       2.139  -3.118   2.416  0.00  0.00    -0.451 OA
ENDROOT
BRANCH  11  13
ATOM     13  C   UNL     1       2.197  -3.568   5.281  0.00  0.00    -0.014 A 
ATOM     14  C   UNL     1       2.792  -3.817   6.524  0.00  0.00    +0.057 A 
ATOM     15  C   UNL     1       2.682  -5.067   7.103  0.00  0.00    +0.166 A 
ATOM     16  C   UNL     1       1.980  -6.078   6.451  0.00  0.00    +0.204 A 
ATOM     17  C   UNL     1       1.386  -5.834   5.215  0.00  0.00    +0.166 A 
ATOM     18  C   UNL     1       1.487  -4.586   4.632  0.00  0.00    +0.057 A 
BRANCH  17  19
ATOM     19  O   UNL     1       0.702  -6.825   4.583  0.00  0.00    -0.491 OA
ATOM     20  C   UNL     1      -0.007  -6.468   3.394  0.00  0.00    +0.277 C 
ENDBRANCH  17  19
BRANCH  16  21
ATOM     21  O   UNL     1       1.874  -7.306   7.023  0.00  0.00    -0.488 OA
ATOM     22  C   UNL     1       0.754  -7.528   7.883  0.00  0.00    +0.277 C 
ENDBRANCH  16  21
BRANCH  15  23
ATOM     23  O   UNL     1       3.260  -5.310   8.309  0.00  0.00    -0.491 OA
ATOM     24  C   UNL     1       4.062  -4.266   8.866  0.00  0.00    +0.277 C 
ENDBRANCH  15  23
ENDBRANCH  11  13
BRANCH   4  25
ATOM     25  O   UNL     1       1.793  -3.255  -2.432  0.00  0.00    -0.506 OA
ATOM     26  H   UNL     1       2.652  -3.435  -2.839  0.00  0.00    +0.292 HD
ENDBRANCH   4  25
BRANCH   5  27
ATOM     27  C   UNL     1       1.978  -4.827  -0.104  0.00  0.00    -0.035 C 
BRANCH  27  28
ATOM     28  N   UNL     1       3.365  -5.306  -0.029  0.00  0.00    +0.384 N 
ATOM     29  C   UNL     1       4.109  -4.834  -1.203  0.00  0.00    -0.078 C 
ATOM     30  C   UNL     1       5.574  -5.261  -1.089  0.00  0.00    -0.019 C 
ATOM     31  C   UNL     1       5.650  -6.789  -1.014  0.00  0.00    -0.003 C 
ATOM     32  C   UNL     1       4.810  -7.275   0.170  0.00  0.00    -0.016 C 
ATOM     33  C   UNL     1       3.374  -6.773   0.010  0.00  0.00    -0.071 C 
ATOM     34  C   UNL     1       2.530  -7.257   1.191  0.00  0.00    -0.013 C 
ATOM     35  H   UNL     1       3.799  -4.946   0.808  0.00  0.00    -0.081 HD
ENDBRANCH  27  28
ENDBRANCH   5  27
TORSDOF 7
