REMARK  Name = ZINC05381581
REMARK  6 active torsions:
REMARK  status: ('A' for Active; 'I' for Inactive)
REMARK    1  A    between atoms: C_1  and  C_2
REMARK    2  A    between atoms: C_2  and  C_17
REMARK    3  A    between atoms: N_3  and  N_4
REMARK    4  A    between atoms: C_5  and  C_7
REMARK    5  A    between atoms: C_7  and  C_8
REMARK    6  A    between atoms: C_11  and  N_14
REMARK                            x       y       z     vdW  Elec       q    Type
REMARK                         _______ _______ _______ _____ _____    ______ ____
ROOT
ATOM      1  N   UNL     1       1.237  -4.005  -1.696  0.00  0.00    -0.206 N 
ATOM      2  C   UNL     1       1.222  -2.681  -1.444  0.00  0.00    +0.237 C 
ATOM      3  O   UNL     1       1.202  -1.889  -2.362  0.00  0.00    -0.274 OA
ATOM      4  H   UNL     1       1.253  -4.639  -0.962  0.00  0.00    +0.177 HD
ENDROOT
BRANCH   1   7
ATOM      5  C   UNL     1       1.270  -6.725  -2.122  0.00  0.00    +0.068 C 
ATOM      6  C   UNL     1       1.245  -5.740  -3.263  0.00  0.00    +0.063 C 
ATOM      7  N   UNL     1       1.230  -4.466  -3.019  0.00  0.00    -0.185 NA
BRANCH   6   8
ATOM      8  C   UNL     1       1.238  -6.225  -4.655  0.00  0.00    +0.000 A 
ATOM      9  C   UNL     1       1.260  -7.597  -4.941  0.00  0.00    +0.029 A 
ATOM     10  C   UNL     1       1.247  -8.006  -6.258  0.00  0.00    +0.111 A 
ATOM     11  N   UNL     1       1.226  -7.126  -7.240  0.00  0.00    -0.263 NA
ATOM     12  C   UNL     1       1.210  -5.825  -7.017  0.00  0.00    +0.111 A 
ATOM     13  C   UNL     1       1.215  -5.327  -5.731  0.00  0.00    +0.029 A 
ENDBRANCH   6   8
ENDBRANCH   1   7
BRANCH   2  14
ATOM     14  C   UNL     1       1.229  -2.186  -0.021  0.00  0.00    +0.132 C 
BRANCH  14  15
ATOM     15  C   UNL     1       1.208  -0.679  -0.013  0.00  0.00    -0.038 A 
ATOM     16  C   UNL     1       0.002  -0.004   0.002  0.00  0.00    +0.006 A 
ATOM     17  C   UNL     1      -0.017   1.378   0.010  0.00  0.00    +0.033 A 
ATOM     18  C   UNL     1       1.171   2.086   0.002  0.00  0.00    +0.126 A 
ATOM     19  C   UNL     1       2.377   1.411  -0.015  0.00  0.00    +0.033 A 
ATOM     20  C   UNL     1       2.396   0.029  -0.021  0.00  0.00    +0.006 A 
BRANCH  18  21
ATOM     21  N   UNL     1       1.151   3.566   0.010  0.00  0.00    +0.056 N 
ATOM     22  O   UNL     1       0.088   4.160   0.023  0.00  0.00    -0.126 OA
ATOM     23  O   UNL     1       2.197   4.189   0.003  0.00  0.00    -0.126 OA
ENDBRANCH  18  21
ENDBRANCH  14  15
ENDBRANCH   2  14
TORSDOF 5
