REMARK  Name = ZINC47137338
REMARK  8 active torsions:
REMARK  status: ('A' for Active; 'I' for Inactive)
REMARK    1  A    between atoms: C_1  and  O_2
REMARK    2  A    between atoms: O_2  and  C_3
REMARK    3  A    between atoms: C_6  and  C_9
REMARK    4  A    between atoms: N_13  and  C_26
REMARK    5  A    between atoms: N_15  and  N_16
REMARK    6  A    between atoms: C_17  and  C_18
REMARK    7  A    between atoms: C_21  and  O_24
REMARK    8  A    between atoms: C_26  and  C_27
REMARK                            x       y       z     vdW  Elec       q    Type
REMARK                         _______ _______ _______ _____ _____    ______ ____
ROOT
ATOM      1  C   UNL     1      -4.986  -2.641   0.317  0.00  0.00    +0.028 C 
ATOM      2  C   UNL     1      -5.035  -3.989   0.160  0.00  0.00    +0.078 C 
ATOM      3  C   UNL     1      -6.206  -4.869  -0.010  0.00  0.00    +0.259 C 
ATOM      4  O   UNL     1      -7.339  -4.425  -0.028  0.00  0.00    -0.269 OA
ATOM      5  N   UNL     1      -5.969  -6.163  -0.144  0.00  0.00    -0.237 N 
ATOM      6  C   UNL     1      -4.680  -6.647  -0.122  0.00  0.00    +0.190 C 
ATOM      7  N   UNL     1      -4.270  -7.895  -0.241  0.00  0.00    -0.126 NA
ATOM      8  S   UNL     1      -3.697  -5.172   0.097  0.00  0.00    -0.047 S 
ENDROOT
BRANCH   1  12
ATOM      9  C   UNL     1      -1.251  -0.633   0.251  0.00  0.00    +0.120 A 
ATOM     10  C   UNL     1      -1.350  -1.928  -0.245  0.00  0.00    +0.046 A 
ATOM     11  C   UNL     1      -2.560  -2.585  -0.226  0.00  0.00    +0.011 A 
ATOM     12  C   UNL     1      -3.692  -1.946   0.294  0.00  0.00    -0.024 A 
ATOM     13  C   UNL     1      -3.587  -0.641   0.792  0.00  0.00    +0.011 A 
ATOM     14  C   UNL     1      -2.371   0.004   0.773  0.00  0.00    +0.046 A 
BRANCH   9  16
ATOM     15  C   UNL     1       1.054  -0.702  -0.321  0.00  0.00    +0.277 C 
ATOM     16  O   UNL     1      -0.056   0.010   0.230  0.00  0.00    -0.495 OA
ENDBRANCH   9  16
ENDBRANCH   1  12
BRANCH   7  17
ATOM     17  N   UNL     1      -5.129  -8.843  -0.401  0.00  0.00    -0.155 NA
ATOM     18  C   UNL     1      -4.724 -10.079  -0.518  0.00  0.00    +0.143 C 
BRANCH  18  19
ATOM     19  C   UNL     1      -3.297 -10.402  -0.368  0.00  0.00    -0.005 A 
ATOM     20  C   UNL     1      -2.877 -11.737  -0.350  0.00  0.00    +0.013 A 
ATOM     21  C   UNL     1      -1.539 -12.034  -0.208  0.00  0.00    +0.046 A 
ATOM     22  C   UNL     1      -0.608 -11.011  -0.083  0.00  0.00    +0.117 A 
ATOM     23  C   UNL     1      -1.019  -9.684  -0.100  0.00  0.00    +0.046 A 
ATOM     24  C   UNL     1      -2.353  -9.376  -0.247  0.00  0.00    +0.013 A 
BRANCH  22  25
ATOM     25  O   UNL     1       0.711 -11.310   0.056  0.00  0.00    -0.507 OA
ATOM     26  H   UNL     1       1.189 -11.377  -0.781  0.00  0.00    +0.292 HD
ENDBRANCH  22  25
ENDBRANCH  18  19
ENDBRANCH   7  17
BRANCH   5  27
ATOM     27  C   UNL     1      -7.089  -7.091  -0.317  0.00  0.00    +0.190 C 
BRANCH  27  28
ATOM     28  C   UNL     1      -7.389  -7.249  -1.786  0.00  0.00    +0.123 A 
ATOM     29  C   UNL     1      -6.850  -8.169  -2.605  0.00  0.00    +0.046 A 
ATOM     30  C   UNL     1      -7.409  -7.956  -3.886  0.00  0.00    +0.041 A 
ATOM     31  C   UNL     1      -8.257  -6.918  -3.773  0.00  0.00    +0.195 A 
ATOM     32  O   UNL     1      -8.245  -6.497  -2.497  0.00  0.00    -0.466 OA
ENDBRANCH  27  28
ENDBRANCH   5  27
TORSDOF 7
