REMARK  Name = ZINC37053630
REMARK  8 active torsions:
REMARK  status: ('A' for Active; 'I' for Inactive)
REMARK    1  A    between atoms: C_3  and  S_10
REMARK    2  A    between atoms: C_4  and  C_8
REMARK    3  A    between atoms: C_6  and  N_7
REMARK    4  A    between atoms: S_10  and  N_13
REMARK    5  A    between atoms: N_13  and  C_14
REMARK    6  A    between atoms: N_13  and  C_17
REMARK    7  A    between atoms: C_14  and  C_15
REMARK    8  A    between atoms: C_17  and  C_18
REMARK                            x       y       z     vdW  Elec       q    Type
REMARK                         _______ _______ _______ _____ _____    ______ ____
ROOT
ATOM      1  C   UNL     1       1.409  -0.649   0.421  0.00  0.00    +0.025 A 
ATOM      2  C   UNL     1       2.467   0.226   0.584  0.00  0.00    +0.031 A 
ATOM      3  C   UNL     1       2.611   1.307  -0.261  0.00  0.00    +0.123 A 
ATOM      4  C   UNL     1       1.687   1.520  -1.286  0.00  0.00    +0.080 A 
ATOM      5  C   UNL     1       0.619   0.637  -1.451  0.00  0.00    +0.043 A 
ATOM      6  C   UNL     1       0.483  -0.446  -0.596  0.00  0.00    +0.026 A 
ENDROOT
BRANCH   6   7
ATOM      7  N   UNL     1      -0.584  -1.334  -0.756  0.00  0.00    -0.358 N 
ATOM      8  H   UNL     1      -0.678  -2.091  -0.158  0.00  0.00    +0.142 HD
ATOM      9  H   UNL     1      -1.229  -1.192  -1.466  0.00  0.00    +0.142 HD
ENDBRANCH   6   7
BRANCH   3  10
ATOM     10  S   UNL     1       3.961   2.419  -0.047  0.00  0.00    +0.064 S 
ATOM     11  O   UNL     1       4.954   2.038  -0.989  0.00  0.00    -0.153 OA
ATOM     12  O   UNL     1       3.408   3.727  -0.010  0.00  0.00    -0.153 OA
BRANCH  10  13
ATOM     13  N   UNL     1       4.598   2.132   1.454  0.00  0.00    -0.149 NA
BRANCH  13  14
ATOM     14  C   UNL     1       5.610   1.088   1.633  0.00  0.00    +0.228 C 
BRANCH  14  15
ATOM     15  C   UNL     1       6.952   1.691   1.582  0.00  0.00    +0.080 C 
ATOM     16  N   UNL     1       7.987   2.156   1.542  0.00  0.00    -0.195 NA
ENDBRANCH  14  15
ENDBRANCH  13  14
BRANCH  13  17
ATOM     17  C   UNL     1       4.150   2.923   2.603  0.00  0.00    +0.228 C 
BRANCH  17  18
ATOM     18  C   UNL     1       3.078   2.201   3.307  0.00  0.00    +0.080 C 
ATOM     19  N   UNL     1       2.249   1.644   3.850  0.00  0.00    -0.195 NA
ENDBRANCH  17  18
ENDBRANCH  13  17
ENDBRANCH  10  13
ENDBRANCH   3  10
BRANCH   4  20
ATOM     20  C   UNL     1       1.833   2.641  -2.165  0.00  0.00    +0.101 C 
ATOM     21  N   UNL     1       1.950   3.530  -2.862  0.00  0.00    -0.191 NA
ENDBRANCH   4  20
TORSDOF 8
