REMARK  Name = ZINC05942912
REMARK  8 active torsions:
REMARK  status: ('A' for Active; 'I' for Inactive)
REMARK    1  A    between atoms: C_1  and  C_2
REMARK    2  A    between atoms: C_6  and  C_8
REMARK    3  A    between atoms: N_10  and  C_11
REMARK    4  A    between atoms: C_14  and  C_17
REMARK    5  A    between atoms: N_19  and  N_20
REMARK    6  A    between atoms: C_21  and  C_22
REMARK    7  A    between atoms: C_25  and  O_29
REMARK    8  A    between atoms: C_27  and  O_28
REMARK                            x       y       z     vdW  Elec       q    Type
REMARK                         _______ _______ _______ _____ _____    ______ ____
ROOT
ATOM      1  C   UNL     1       1.213  -0.685  -0.007  0.00  0.00    +0.034 A 
ATOM      2  C   UNL     1       0.014  -0.008   0.193  0.00  0.00    +0.024 A 
ATOM      3  C   UNL     1      -0.007   1.369   0.206  0.00  0.00    +0.015 A 
ATOM      4  C   UNL     1       1.178   2.086   0.018  0.00  0.00    +0.038 A 
ATOM      5  C   UNL     1       2.380   1.403  -0.183  0.00  0.00    +0.015 A 
ATOM      6  C   UNL     1       2.394   0.026  -0.195  0.00  0.00    +0.024 A 
ENDROOT
BRANCH   1   9
ATOM      7  C   UNL     1       0.176  -2.761  -0.507  0.00  0.00    +0.248 C 
ATOM      8  O   UNL     1      -0.749  -2.165  -1.022  0.00  0.00    -0.270 OA
ATOM      9  N   UNL     1       1.231  -2.079  -0.020  0.00  0.00    -0.282 N 
ATOM     10  H   UNL     1       2.002  -2.557   0.322  0.00  0.00    +0.155 HD
BRANCH   7  16
ATOM     11  C   UNL     1      -2.149  -7.092  -1.370  0.00  0.00    +0.044 C 
ATOM     12  C   UNL     1      -0.971  -6.323  -0.827  0.00  0.00    -0.050 A 
ATOM     13  C   UNL     1       0.083  -6.999  -0.240  0.00  0.00    +0.003 A 
ATOM     14  C   UNL     1       1.168  -6.301   0.261  0.00  0.00    +0.001 A 
ATOM     15  C   UNL     1       1.204  -4.925   0.177  0.00  0.00    +0.013 A 
ATOM     16  C   UNL     1       0.144  -4.236  -0.414  0.00  0.00    +0.037 A 
ATOM     17  C   UNL     1      -0.950  -4.947  -0.912  0.00  0.00    +0.016 A 
ENDBRANCH   7  16
ENDBRANCH   1   9
BRANCH   4  18
ATOM     18  C   UNL     1       1.159   3.561   0.032  0.00  0.00    +0.263 C 
ATOM     19  O   UNL     1       0.112   4.154   0.207  0.00  0.00    -0.268 OA
ATOM     20  N   UNL     1       2.302   4.251  -0.149  0.00  0.00    -0.203 N 
ATOM     21  H   UNL     1       3.138   3.778  -0.289  0.00  0.00    +0.178 HD
BRANCH  20  22
ATOM     22  N   UNL     1       2.284   5.652  -0.137  0.00  0.00    -0.187 NA
ATOM     23  C   UNL     1       3.386   6.317  -0.311  0.00  0.00    +0.142 C 
BRANCH  23  24
ATOM     24  C   UNL     1       3.367   7.790  -0.298  0.00  0.00    +0.036 A 
ATOM     25  C   UNL     1       4.551   8.508  -0.486  0.00  0.00    +0.016 A 
ATOM     26  C   UNL     1       4.529   9.886  -0.473  0.00  0.00    +0.046 A 
ATOM     27  C   UNL     1       3.332  10.565  -0.274  0.00  0.00    +0.120 A 
ATOM     28  C   UNL     1       2.152   9.861  -0.086  0.00  0.00    +0.091 A 
ATOM     29  C   UNL     1       2.160   8.477  -0.102  0.00  0.00    +0.129 A 
BRANCH  29  30
ATOM     30  O   UNL     1       1.004   7.786   0.076  0.00  0.00    -0.506 OA
ATOM     31  H   UNL     1       0.808   7.580   1.000  0.00  0.00    +0.292 HD
ENDBRANCH  29  30
BRANCH  27  32
ATOM     32  O   UNL     1       3.319  11.923  -0.263  0.00  0.00    -0.507 OA
ATOM     33  H   UNL     1       3.173  12.322  -1.132  0.00  0.00    +0.292 HD
ENDBRANCH  27  32
ENDBRANCH  23  24
ENDBRANCH  20  22
ENDBRANCH   4  18
TORSDOF 7
