REMARK  Name = ZINC12851636
REMARK  8 active torsions:
REMARK  status: ('A' for Active; 'I' for Inactive)
REMARK    1  A    between atoms: C_1  and  N_2
REMARK    2  A    between atoms: N_2  and  C_3
REMARK    3  A    between atoms: C_3  and  C_4
REMARK    4  A    between atoms: C_14  and  C_16
REMARK    5  A    between atoms: C_20  and  S_22
REMARK    6  A    between atoms: S_22  and  N_25
REMARK    7  A    between atoms: N_25  and  C_26
REMARK    8  A    between atoms: N_25  and  C_27
REMARK                            x       y       z     vdW  Elec       q    Type
REMARK                         _______ _______ _______ _____ _____    ______ ____
ROOT
ATOM      1  C   UNL     1       4.739  -0.050  -3.888  0.00  0.00    +0.039 A 
ATOM      2  C   UNL     1       4.211  -1.020  -4.742  0.00  0.00    +0.013 A 
ATOM      3  C   UNL     1       4.617  -1.069  -6.059  0.00  0.00    +0.003 A 
ATOM      4  C   UNL     1       5.553  -0.167  -6.533  0.00  0.00    +0.029 A 
ATOM      5  C   UNL     1       6.083   0.794  -5.690  0.00  0.00    +0.109 A 
ATOM      6  C   UNL     1       5.682   0.857  -4.372  0.00  0.00    +0.042 A 
ENDROOT
BRANCH   1   9
ATOM      7  C   UNL     1       4.490   2.439  -2.584  0.00  0.00    +0.132 C 
ATOM      8  N   UNL     1       4.152   1.205  -1.870  0.00  0.00    -0.296 N 
ATOM      9  C   UNL     1       4.305   0.011  -2.476  0.00  0.00    +0.247 C 
ATOM     10  O   UNL     1       4.085  -1.014  -1.862  0.00  0.00    -0.270 OA
BRANCH   8  11
ATOM     11  C   UNL     1       3.648   1.270  -0.496  0.00  0.00    +0.143 C 
BRANCH  11  12
ATOM     12  C   UNL     1       4.806   1.212   0.467  0.00  0.00    -0.026 A 
ATOM     13  C   UNL     1       5.417   2.381   0.882  0.00  0.00    +0.009 A 
ATOM     14  C   UNL     1       6.480   2.332   1.763  0.00  0.00    +0.050 A 
ATOM     15  C   UNL     1       6.937   1.109   2.234  0.00  0.00    +0.162 A 
ATOM     16  C   UNL     1       6.320  -0.065   1.820  0.00  0.00    +0.162 A 
ATOM     17  C   UNL     1       5.255  -0.009   0.934  0.00  0.00    +0.054 A 
ATOM     18  O   UNL     1       6.747  -1.274   2.276  0.00  0.00    -0.485 OA
ATOM     19  C   UNL     1       8.051  -1.316   2.866  0.00  0.00    +0.270 C 
ATOM     20  C   UNL     1       8.177  -0.134   3.837  0.00  0.00    +0.270 C 
ATOM     21  O   UNL     1       7.991   1.077   3.095  0.00  0.00    -0.485 OA
ENDBRANCH  11  12
ENDBRANCH   8  11
ENDBRANCH   1   9
BRANCH   5  22
ATOM     22  S   UNL     1       7.274   1.939  -6.303  0.00  0.00    +0.074 S 
ATOM     23  O   UNL     1       7.165   1.920  -7.720  0.00  0.00    -0.150 OA
ATOM     24  O   UNL     1       7.121   3.130  -5.543  0.00  0.00    -0.150 OA
BRANCH  22  25
ATOM     25  N   UNL     1       8.771   1.332  -5.936  0.00  0.00    -0.206 N 
ATOM     26  C   UNL     1       9.383   1.628  -4.638  0.00  0.00    +0.157 C 
BRANCH  25  27
ATOM     27  C   UNL     1       9.449   0.538  -6.864  0.00  0.00    +0.052 A 
ATOM     28  C   UNL     1      10.837   0.487  -6.853  0.00  0.00    +0.025 A 
ATOM     29  C   UNL     1      11.505  -0.299  -7.771  0.00  0.00    +0.003 A 
ATOM     30  C   UNL     1      10.794  -1.036  -8.700  0.00  0.00    +0.020 A 
ATOM     31  C   UNL     1       9.412  -0.988  -8.714  0.00  0.00    +0.043 A 
ATOM     32  C   UNL     1       8.737  -0.207  -7.794  0.00  0.00    +0.044 A 
ATOM     33 CL   UNL     1       8.523  -1.916  -9.882  0.00  0.00    -0.083 Cl
ENDBRANCH  25  27
ENDBRANCH  22  25
ENDBRANCH   5  22
TORSDOF 6
