REMARK  Name = ZINC39977143
REMARK  6 active torsions:
REMARK  status: ('A' for Active; 'I' for Inactive)
REMARK    1  A    between atoms: C_1  and  C_2
REMARK    2  A    between atoms: C_2  and  C_4
REMARK    3  A    between atoms: C_8  and  N_10
REMARK    4  A    between atoms: N_10  and  C_11
REMARK    5  A    between atoms: N_14  and  S_15
REMARK    6  A    between atoms: S_15  and  C_18
REMARK                            x       y       z     vdW  Elec       q    Type
REMARK                         _______ _______ _______ _____ _____    ______ ____
ROOT
ATOM      1  C   UNL     1      -0.088  -4.924  -3.785  0.00  0.00    +0.237 C 
ATOM      2  C   UNL     1       0.930  -6.042  -3.776  0.00  0.00    +0.192 C 
ATOM      3  N   UNL     1       2.194  -5.781  -3.613  0.00  0.00    -0.110 NA
ATOM      4  N   UNL     1       0.510  -7.306  -3.938  0.00  0.00    -0.226 NA
ATOM      5  C   UNL     1      -0.763  -7.595  -4.104  0.00  0.00    +0.089 A 
ATOM      6  C   UNL     1      -1.171  -8.943  -4.273  0.00  0.00    +0.030 A 
ATOM      7  C   UNL     1      -2.476  -9.245  -4.444  0.00  0.00    +0.002 A 
ATOM      8  C   UNL     1      -3.486  -8.268  -4.466  0.00  0.00    +0.002 A 
ATOM      9  C   UNL     1      -3.207  -6.955  -4.315  0.00  0.00    +0.027 A 
ATOM     10  C   UNL     1      -1.809  -6.543  -4.123  0.00  0.00    +0.063 A 
ATOM     11  N   UNL     1      -1.502  -5.285  -3.973  0.00  0.00    -0.359 N 
ATOM     12  H   UNL     1      -2.191  -4.602  -3.985  0.00  0.00    +0.162 HD
ENDROOT
BRANCH   3  13
ATOM     13  S   UNL     1       3.299  -7.015  -3.605  0.00  0.00    +0.100 S 
ATOM     14  O   UNL     1       3.028  -7.795  -2.448  0.00  0.00    -0.146 OA
ATOM     15  O   UNL     1       3.300  -7.568  -4.914  0.00  0.00    -0.146 OA
BRANCH  13  16
ATOM     16  C   UNL     1       4.887  -6.290  -3.364  0.00  0.00    +0.113 A 
ATOM     17  C   UNL     1       5.637  -5.892  -4.454  0.00  0.00    +0.030 A 
ATOM     18  C   UNL     1       6.883  -5.324  -4.265  0.00  0.00    +0.022 A 
ATOM     19  C   UNL     1       7.379  -5.153  -2.985  0.00  0.00    +0.041 A 
ATOM     20  C   UNL     1       6.627  -5.552  -1.894  0.00  0.00    +0.022 A 
ATOM     21  C   UNL     1       5.379  -6.115  -2.084  0.00  0.00    +0.030 A 
ATOM     22 CL   UNL     1       8.943  -4.440  -2.747  0.00  0.00    -0.084 Cl
ENDBRANCH  13  16
ENDBRANCH   3  13
BRANCH   1  23
ATOM     23  N   UNL     1       0.025  -4.206  -2.513  0.00  0.00    -0.318 N 
ATOM     24  H   UNL     1       0.004  -4.695  -1.676  0.00  0.00    +0.148 HD
BRANCH  23  29
ATOM     25  C   UNL     1       0.579  -0.762  -1.320  0.00  0.00    +0.019 A 
ATOM     26  C   UNL     1       0.430  -0.049  -2.514  0.00  0.00    +0.011 A 
ATOM     27  C   UNL     1       0.150  -0.720  -3.686  0.00  0.00    +0.002 A 
ATOM     28  C   UNL     1       0.016  -2.096  -3.687  0.00  0.00    +0.023 A 
ATOM     29  C   UNL     1       0.162  -2.815  -2.506  0.00  0.00    +0.030 A 
ATOM     30  C   UNL     1       0.448  -2.154  -1.322  0.00  0.00    +0.034 A 
BRANCH  25  32
ATOM     31  C   UNL     1       1.018   1.450  -0.067  0.00  0.00    +0.091 C 
ATOM     32  C   UNL     1       0.878  -0.050  -0.067  0.00  0.00    +0.160 C 
ATOM     33  O   UNL     1       1.011  -0.671   0.966  0.00  0.00    -0.292 OA
ENDBRANCH  25  32
ENDBRANCH  23  29
ENDBRANCH   1  23
TORSDOF 5
