REMARK  Name = ZINC63600856
REMARK  7 active torsions:
REMARK  status: ('A' for Active; 'I' for Inactive)
REMARK    1  A    between atoms: C_1  and  S_2
REMARK    2  A    between atoms: S_2  and  N_5
REMARK    3  A    between atoms: N_5  and  C_6
REMARK    4  A    between atoms: C_12  and  N_16
REMARK    5  A    between atoms: C_17  and  C_19
REMARK    6  A    between atoms: C_19  and  C_20
REMARK    7  A    between atoms: C_20  and  C_21
REMARK                            x       y       z     vdW  Elec       q    Type
REMARK                         _______ _______ _______ _____ _____    ______ ____
ROOT
ATOM      1  N   UNL     1       4.912   1.409  -7.137  0.00  0.00    -0.285 N 
ATOM      2  C   UNL     1       5.636   0.695  -8.023  0.00  0.00    +0.217 C 
ATOM      3  O   UNL     1       5.777  -0.499  -7.867  0.00  0.00    -0.275 OA
ATOM      4  H   UNL     1       4.735   2.349  -7.301  0.00  0.00    +0.155 HD
ENDROOT
BRANCH   1  10
ATOM      5  C   UNL     1       3.860  -2.167  -1.974  0.00  0.00    +0.224 C 
ATOM      6  N   UNL     1       2.990  -1.106  -2.498  0.00  0.00    -0.318 N 
ATOM      7  C   UNL     1       3.409  -0.439  -3.651  0.00  0.00    +0.043 A 
ATOM      8  C   UNL     1       2.711   0.599  -4.295  0.00  0.00    +0.026 A 
ATOM      9  C   UNL     1       3.206   1.196  -5.430  0.00  0.00    +0.025 A 
ATOM     10  C   UNL     1       4.416   0.794  -5.980  0.00  0.00    +0.035 A 
ATOM     11  C   UNL     1       5.126  -0.230  -5.363  0.00  0.00    +0.040 A 
ATOM     12  C   UNL     1       4.624  -0.824  -4.228  0.00  0.00    +0.034 A 
ATOM     13  S   UNL     1       5.238  -2.132  -3.189  0.00  0.00    -0.084 S 
ATOM     14  H   UNL     1       2.155  -0.877  -2.060  0.00  0.00    +0.148 HD
BRANCH   5  15
ATOM     15  N   UNL     1       4.337  -1.839  -0.628  0.00  0.00    -0.165 NA
ATOM     16  H   UNL     1       4.412  -0.912  -0.352  0.00  0.00    +0.151 HD
BRANCH  15  18
ATOM     17  C   UNL     1       6.186  -3.858  -0.335  0.00  0.00    +0.214 C 
ATOM     18  S   UNL     1       4.748  -3.052   0.423  0.00  0.00    +0.029 S 
ATOM     19  O   UNL     1       3.633  -3.932   0.415  0.00  0.00    -0.158 OA
ATOM     20  O   UNL     1       5.134  -2.383   1.615  0.00  0.00    -0.158 OA
ENDBRANCH  15  18
ENDBRANCH   5  15
ENDBRANCH   1  10
BRANCH   2  21
ATOM     21  C   UNL     1       6.270   1.382  -9.205  0.00  0.00    +0.100 C 
BRANCH  21  22
ATOM     22  C   UNL     1       7.029   0.353 -10.046  0.00  0.00    +0.056 C 
BRANCH  22  23
ATOM     23  C   UNL     1       7.672   1.050 -11.246  0.00  0.00    +0.174 C 
ATOM     24  N   UNL     1       6.634   1.620 -12.114  0.00  0.00    -0.363 N 
ATOM     25  C   UNL     1       6.745   1.053 -13.280  0.00  0.00    +0.060 A 
ATOM     26  C   UNL     1       6.003   1.204 -14.539  0.00  0.00    +0.027 A 
ATOM     27  C   UNL     1       6.353   0.463 -15.611  0.00  0.00    +0.002 A 
ATOM     28  C   UNL     1       7.411  -0.462 -15.580  0.00  0.00    +0.002 A 
ATOM     29  C   UNL     1       8.155  -0.678 -14.477  0.00  0.00    +0.027 A 
ATOM     30  C   UNL     1       7.866   0.074 -13.248  0.00  0.00    +0.060 A 
ATOM     31  N   UNL     1       8.404   0.073 -12.063  0.00  0.00    -0.363 N 
ATOM     32  H   UNL     1       5.984   2.295 -11.864  0.00  0.00    +0.162 HD
ATOM     33  H   UNL     1       9.152  -0.472 -11.772  0.00  0.00    +0.162 HD
ENDBRANCH  22  23
ENDBRANCH  21  22
ENDBRANCH   2  21
TORSDOF 6
