REMARK  Name = ZINC67271395
REMARK  4 active torsions:
REMARK  status: ('A' for Active; 'I' for Inactive)
REMARK    1  A    between atoms: C_4  and  C_7
REMARK    2  A    between atoms: C_7  and  N_8
REMARK    3  A    between atoms: C_11  and  N_14
REMARK    4  A    between atoms: C_15  and  C_17
REMARK                            x       y       z     vdW  Elec       q    Type
REMARK                         _______ _______ _______ _____ _____    ______ ____
ROOT
ATOM      1  N   UNL     1       4.546  -5.887   2.338  0.00  0.00    -0.312 N 
ATOM      2  C   UNL     1       5.431  -6.603   3.059  0.00  0.00    +0.216 C 
ATOM      3  O   UNL     1       6.230  -6.037   3.775  0.00  0.00    -0.276 OA
ATOM      4  H   UNL     1       3.908  -6.340   1.766  0.00  0.00    +0.149 HD
ENDROOT
BRANCH   2   5
ATOM      5  C   UNL     1       5.428  -8.108   2.976  0.00  0.00    +0.075 C 
ATOM      6  C   UNL     1       4.066  -8.641   3.426  0.00  0.00    +0.015 C 
ATOM      7  C   UNL     1       4.060 -10.169   3.329  0.00  0.00    +0.036 C 
ATOM      8  C   UNL     1       5.165 -10.741   4.211  0.00  0.00    +0.112 C 
ATOM      9  C   UNL     1       6.527 -10.199   3.791  0.00  0.00    +0.036 C 
ATOM     10  C   UNL     1       6.522  -8.671   3.885  0.00  0.00    +0.015 C 
ATOM     11  C   UNL     1       4.897 -10.426   5.665  0.00  0.00    +0.244 C 
ATOM     12  O   UNL     1       4.815  -9.329   6.175  0.00  0.00    -0.273 OA
ATOM     13  N   UNL     1       4.768 -11.623   6.275  0.00  0.00    -0.238 N 
ATOM     14  C   UNL     1       4.917 -12.635   5.412  0.00  0.00    +0.307 C 
ATOM     15  O   UNL     1       4.844 -13.807   5.725  0.00  0.00    -0.252 OA
ATOM     16  N   UNL     1       5.157 -12.209   4.157  0.00  0.00    -0.285 N 
ATOM     17  H   UNL     1       4.590 -11.735   7.221  0.00  0.00    +0.159 HD
ATOM     18  H   UNL     1       5.296 -12.762   3.372  0.00  0.00    +0.151 HD
ENDBRANCH   2   5
BRANCH   1  22
ATOM     19  N   UNL     1       3.042  -1.950   2.402  0.00  0.00    +0.380 N 
ATOM     20  C   UNL     1       3.887  -2.315   1.259  0.00  0.00    -0.077 C 
ATOM     21  C   UNL     1       3.954  -3.839   1.135  0.00  0.00    +0.003 C 
ATOM     22  C   UNL     1       4.550  -4.424   2.419  0.00  0.00    +0.069 C 
ATOM     23  C   UNL     1       3.702  -3.975   3.614  0.00  0.00    +0.003 C 
ATOM     24  C   UNL     1       3.644  -2.447   3.645  0.00  0.00    -0.077 C 
ATOM     25  H   UNL     1       2.127  -2.360   2.286  0.00  0.00    -0.082 HD
BRANCH  19  26
ATOM     26  C   UNL     1       2.917  -0.488   2.470  0.00  0.00    -0.075 C 
BRANCH  26  30
ATOM     27  C   UNL     1      -0.019   1.526   0.010  0.00  0.00    +0.000 C 
ATOM     28  C   UNL     1       1.417   2.055  -0.000  0.00  0.00    +0.000 C 
ATOM     29  C   UNL     1       2.157   1.548   1.239  0.00  0.00    +0.002 C 
ATOM     30  C   UNL     1       2.178   0.019   1.231  0.00  0.00    -0.028 C 
ATOM     31  C   UNL     1       0.742  -0.511   1.242  0.00  0.00    +0.002 C 
ATOM     32  C   UNL     1       0.002  -0.004   0.002  0.00  0.00    +0.000 C 
ENDBRANCH  26  30
ENDBRANCH  19  26
ENDBRANCH   1  22
TORSDOF 4
