REMARK  Name = ZINC37392075
REMARK  4 active torsions:
REMARK  status: ('A' for Active; 'I' for Inactive)
REMARK    1  A    between atoms: C_1  and  C_2
REMARK    2  A    between atoms: C_5  and  C_9
REMARK    3  A    between atoms: C_7  and  N_8
REMARK    4  A    between atoms: N_11  and  C_12
REMARK                            x       y       z     vdW  Elec       q    Type
REMARK                         _______ _______ _______ _____ _____    ______ ____
ROOT
ATOM      1  C   UNL     1       0.052  -4.256  -0.029  0.00  0.00    +0.248 C 
ATOM      2  O   UNL     1       0.069  -4.875   1.018  0.00  0.00    -0.270 OA
ATOM      3  N   UNL     1       0.061  -4.919  -1.203  0.00  0.00    -0.280 N 
ATOM      4  H   UNL     1      -0.018  -4.429  -2.036  0.00  0.00    +0.155 HD
ENDROOT
BRANCH   3   5
ATOM      5  C   UNL     1       0.184  -6.312  -1.219  0.00  0.00    +0.052 A 
ATOM      6  C   UNL     1      -0.392  -7.074  -0.211  0.00  0.00    +0.026 A 
ATOM      7  C   UNL     1      -0.269  -8.449  -0.229  0.00  0.00    +0.017 A 
ATOM      8  C   UNL     1       0.429  -9.069  -1.251  0.00  0.00    +0.019 A 
ATOM      9  C   UNL     1       1.005  -8.314  -2.257  0.00  0.00    +0.037 A 
ATOM     10  C   UNL     1       0.879  -6.938  -2.247  0.00  0.00    +0.063 A 
ATOM     11 CL   UNL     1       1.595  -5.991  -3.514  0.00  0.00    -0.082 Cl
ATOM     12 BR   UNL     1       0.595 -10.953  -1.272  0.00  0.00    -0.050 Br
ENDBRANCH   3   5
BRANCH   1  17
ATOM     13  C   UNL     1      -0.068   1.502   0.013  0.00  0.00    +0.045 C 
ATOM     14  C   UNL     1      -0.036  -0.005   0.004  0.00  0.00    -0.030 A 
ATOM     15  C   UNL     1      -0.026  -0.687  -1.199  0.00  0.00    +0.006 A 
ATOM     16  C   UNL     1       0.002  -2.066  -1.215  0.00  0.00    +0.013 A 
ATOM     17  C   UNL     1       0.022  -2.779  -0.014  0.00  0.00    +0.039 A 
ATOM     18  C   UNL     1       0.012  -2.091   1.199  0.00  0.00    +0.036 A 
ATOM     19  C   UNL     1      -0.011  -0.705   1.205  0.00  0.00    +0.028 A 
BRANCH  19  20
ATOM     20  N   UNL     1      -0.015  -0.011   2.418  0.00  0.00    -0.358 N 
ATOM     21  H   UNL     1      -0.036   0.959   2.421  0.00  0.00    +0.142 HD
ATOM     22  H   UNL     1       0.002  -0.499   3.256  0.00  0.00    +0.142 HD
ENDBRANCH  19  20
ENDBRANCH   1  17
TORSDOF 3
