REMARK  Name = ZINC30564529
REMARK  7 active torsions:
REMARK  status: ('A' for Active; 'I' for Inactive)
REMARK    1  A    between atoms: C_1  and  C_2
REMARK    2  A    between atoms: C_4  and  C_32
REMARK    3  A    between atoms: C_10  and  C_13
REMARK    4  A    between atoms: C_18  and  C_21
REMARK    5  A    between atoms: C_21  and  N_22
REMARK    6  A    between atoms: C_24  and  C_31
REMARK    7  A    between atoms: C_27  and  C_30
REMARK                            x       y       z     vdW  Elec       q    Type
REMARK                         _______ _______ _______ _____ _____    ______ ____
ROOT
ATOM      1  C   UNL     1      -0.821   5.044   6.846  0.00  0.00    +0.251 C 
ATOM      2  O   UNL     1      -1.761   4.430   7.311  0.00  0.00    -0.270 OA
ATOM      3  N   UNL     1      -0.190   4.580   5.749  0.00  0.00    -0.261 N 
ATOM      4  C   UNL     1      -0.615   3.401   5.150  0.00  0.00    +0.165 A 
ATOM      5  N   UNL     1      -0.129   2.790   4.087  0.00  0.00    -0.231 NA
ATOM      6  C   UNL     1      -0.658   1.666   3.644  0.00  0.00    +0.034 A 
ATOM      7  C   UNL     1      -1.714   1.141   4.313  0.00  0.00    +0.070 A 
ATOM      8  S   UNL     1      -1.916   2.349   5.614  0.00  0.00    -0.060 S 
ATOM      9  H   UNL     1       0.661   5.135   5.327  0.00  0.00    +0.157 HD
ENDROOT
BRANCH   1  19
ATOM     10  C   UNL     1       0.628  12.880  11.123  0.00  0.00    +0.067 C 
ATOM     11  C   UNL     1       1.026  11.695  10.281  0.00  0.00    +0.061 A 
ATOM     12  C   UNL     1       2.293  11.471   9.730  0.00  0.00    +0.048 A 
ATOM     13  C   UNL     1       2.252  10.303   9.050  0.00  0.00    +0.044 A 
ATOM     14  N   UNL     1       0.991   9.808   9.160  0.00  0.00    -0.219 N 
ATOM     15  N   UNL     1       0.247  10.701   9.941  0.00  0.00    -0.170 NA
ATOM     16  C   UNL     1       0.522   8.619   8.600  0.00  0.00    +0.154 A 
ATOM     17  C   UNL     1      -0.559   7.966   9.182  0.00  0.00    +0.049 A 
ATOM     18  C   UNL     1      -1.018   6.790   8.624  0.00  0.00    +0.018 A 
ATOM     19  C   UNL     1      -0.369   6.298   7.482  0.00  0.00    +0.055 A 
ATOM     20  C   UNL     1       0.713   7.007   6.959  0.00  0.00    +0.126 A 
ATOM     21  N   UNL     1       1.114   8.128   7.521  0.00  0.00    -0.235 NA
ATOM     22  C   UNL     1       3.395   9.667   8.302  0.00  0.00    +0.066 C 
ENDBRANCH   1  19
BRANCH   6  23
ATOM     23  C   UNL     1      -0.099   0.979   2.425  0.00  0.00    -0.022 C 
BRANCH  23  24
ATOM     24  N   UNL     1      -0.700   1.559   1.216  0.00  0.00    +0.384 N 
ATOM     25  C   UNL     1      -0.013   1.086   0.008  0.00  0.00    -0.075 C 
ATOM     26  C   UNL     1      -0.752   1.593  -1.232  0.00  0.00    -0.031 C 
ATOM     27  C   UNL     1      -0.788   3.123  -1.209  0.00  0.00    +0.003 C 
ATOM     28  C   UNL     1      -1.465   3.591   0.082  0.00  0.00    -0.031 C 
ATOM     29  C   UNL     1      -0.705   3.026   1.284  0.00  0.00    -0.075 C 
ATOM     30  C   UNL     1      -2.911   3.091   0.111  0.00  0.00    +0.005 C 
ATOM     31  C   UNL     1      -0.024   1.117  -2.491  0.00  0.00    +0.005 C 
ATOM     32  H   UNL     1      -1.745   1.222   1.161  0.00  0.00    -0.081 HD
ENDBRANCH  23  24
ENDBRANCH   6  23
TORSDOF 3
