REMARK  Name = ZINC03083725
REMARK  7 active torsions:
REMARK  status: ('A' for Active; 'I' for Inactive)
REMARK    1  A    between atoms: C_3  and  N_24
REMARK    2  A    between atoms: C_6  and  C_7
REMARK    3  A    between atoms: N_8  and  N_9
REMARK    4  A    between atoms: C_10  and  C_12
REMARK    5  A    between atoms: C_12  and  C_13
REMARK    6  A    between atoms: C_13  and  C_14
REMARK    7  A    between atoms: N_16  and  C_17
REMARK                            x       y       z     vdW  Elec       q    Type
REMARK                         _______ _______ _______ _____ _____    ______ ____
ROOT
ATOM      1  N   UNL     1       5.918   2.600  -0.406  0.00  0.00    -0.207 N 
ATOM      2  C   UNL     1       4.857   1.789  -0.224  0.00  0.00    +0.233 C 
ATOM      3  O   UNL     1       5.028   0.613   0.019  0.00  0.00    -0.274 OA
ATOM      4  H   UNL     1       5.782   3.541  -0.600  0.00  0.00    +0.177 HD
ENDROOT
BRANCH   1   6
ATOM      5  C   UNL     1       8.239   2.865  -0.489  0.00  0.00    +0.138 C 
ATOM      6  N   UNL     1       7.218   2.085  -0.314  0.00  0.00    -0.188 NA
BRANCH   5  12
ATOM      7  C   UNL     1       9.807   0.970  -0.108  0.00  0.00    +0.012 A 
ATOM      8  C   UNL     1      11.089   0.468  -0.025  0.00  0.00    +0.033 A 
ATOM      9  C   UNL     1      12.176   1.304  -0.213  0.00  0.00    +0.126 A 
ATOM     10  C   UNL     1      11.986   2.646  -0.490  0.00  0.00    +0.033 A 
ATOM     11  C   UNL     1      10.709   3.160  -0.581  0.00  0.00    +0.012 A 
ATOM     12  C   UNL     1       9.607   2.323  -0.393  0.00  0.00    -0.005 A 
BRANCH   9  13
ATOM     13  N   UNL     1      13.549   0.759  -0.116  0.00  0.00    +0.056 N 
ATOM     14  O   UNL     1      14.508   1.492  -0.280  0.00  0.00    -0.126 OA
ATOM     15  O   UNL     1      13.720  -0.422   0.128  0.00  0.00    -0.126 OA
ENDBRANCH   9  13
ENDBRANCH   5  12
ENDBRANCH   1   6
BRANCH   2  16
ATOM     16  C   UNL     1       3.459   2.344  -0.322  0.00  0.00    +0.107 C 
BRANCH  16  17
ATOM     17  C   UNL     1       2.448   1.222  -0.076  0.00  0.00    +0.105 C 
BRANCH  17  18
ATOM     18  C   UNL     1       1.050   1.777  -0.174  0.00  0.00    +0.218 C 
ATOM     19  O   UNL     1       0.880   2.953  -0.417  0.00  0.00    -0.275 OA
ATOM     20  N   UNL     1      -0.011   0.966   0.007  0.00  0.00    -0.285 N 
ATOM     21  H   UNL     1       0.122   0.012   0.124  0.00  0.00    +0.155 HD
BRANCH  20  22
ATOM     22  C   UNL     1      -1.305   1.499   0.022  0.00  0.00    +0.033 A 
ATOM     23  C   UNL     1      -1.528   2.769   0.536  0.00  0.00    +0.024 A 
ATOM     24  C   UNL     1      -2.805   3.295   0.544  0.00  0.00    +0.016 A 
ATOM     25  C   UNL     1      -3.863   2.553   0.052  0.00  0.00    +0.013 A 
ATOM     26  C   UNL     1      -3.645   1.285  -0.456  0.00  0.00    +0.016 A 
ATOM     27  C   UNL     1      -2.369   0.756  -0.472  0.00  0.00    +0.024 A 
ATOM     28  I   UNL     1      -5.800   3.351   0.074  0.00  0.00    -0.044 I 
ENDBRANCH  20  22
ENDBRANCH  17  18
ENDBRANCH  16  17
ENDBRANCH   2  16
TORSDOF 7
