REMARK  Name = ZINC20080045
REMARK  11 active torsions:
REMARK  status: ('A' for Active; 'I' for Inactive)
REMARK    1  A    between atoms: C_1  and  C_2
REMARK    2  A    between atoms: C_2  and  C_3
REMARK    3  A    between atoms: C_3  and  C_4
REMARK    4  A    between atoms: C_3  and  C_5
REMARK    5  A    between atoms: C_3  and  N_6
REMARK    6  A    between atoms: C_7  and  C_11
REMARK    7  A    between atoms: C_11  and  C_13
REMARK    8  A    between atoms: C_11  and  N_27
REMARK    9  A    between atoms: C_17  and  O_25
REMARK   10  A    between atoms: O_25  and  C_26
REMARK   11  A    between atoms: N_30  and  C_33
REMARK                            x       y       z     vdW  Elec       q    Type
REMARK                         _______ _______ _______ _____ _____    ______ ____
ROOT
ATOM      1  C   UNL     1      -6.997  -0.435  -0.766  0.00  0.00    +0.162 C 
ENDROOT
BRANCH   1   2
ATOM      2  C   UNL     1      -8.308   0.232  -1.095  0.00  0.00    +0.042 A 
ATOM      3  C   UNL     1      -9.399  -0.005  -0.325  0.00  0.00    +0.021 A 
ATOM      4  C   UNL     1     -10.656   0.661  -0.669  0.00  0.00    +0.002 A 
ATOM      5  C   UNL     1     -11.812   0.459   0.092  0.00  0.00    +0.055 A 
ATOM      6  C   UNL     1     -12.982   1.099  -0.263  0.00  0.00    +0.121 A 
ATOM      7  C   UNL     1     -13.014   1.942  -1.372  0.00  0.00    +0.047 A 
ATOM      8  C   UNL     1     -11.883   2.149  -2.129  0.00  0.00    +0.030 A 
ATOM      9  C   UNL     1     -10.693   1.514  -1.788  0.00  0.00    +0.049 A 
ATOM     10  N   UNL     1      -9.548   1.708  -2.534  0.00  0.00    -0.322 N 
ATOM     11  H   UNL     1      -9.569   2.373  -3.411  0.00  0.00    +0.169 HD
ATOM     12  C   UNL     1      -8.397   1.095  -2.208  0.00  0.00    +0.254 A 
ATOM     13  O   UNL     1      -7.405   1.291  -2.889  0.00  0.00    -0.268 OA
BRANCH   6  14
ATOM     14  O   UNL     1     -14.109   0.906   0.472  0.00  0.00    -0.495 OA
ATOM     15  C   UNL     1     -15.286   1.599   0.051  0.00  0.00    +0.277 C 
ENDBRANCH   6  14
ENDBRANCH   1   2
BRANCH   1  16
ATOM     16  N   UNL     1      -5.951   0.586  -0.621  0.00  0.00    -0.286 NA
ATOM     17  C   UNL     1      -6.158   1.383   0.596  0.00  0.00    +0.104 C 
ATOM     18  C   UNL     1      -5.097   2.484   0.669  0.00  0.00    +0.120 C 
ATOM     19  N   UNL     1      -3.761   1.873   0.664  0.00  0.00    -0.327 N 
ATOM     20  C   UNL     1      -3.553   1.075  -0.553  0.00  0.00    +0.120 C 
ATOM     21  C   UNL     1      -4.615  -0.025  -0.625  0.00  0.00    +0.104 C 
BRANCH  19  22
ATOM     22  C   UNL     1      -2.766   2.844   0.802  0.00  0.00    +0.031 A 
ATOM     23  C   UNL     1      -1.427   2.471   0.821  0.00  0.00    +0.023 A 
ATOM     24  C   UNL     1      -0.446   3.434   0.951  0.00  0.00    +0.003 A 
ATOM     25  C   UNL     1      -0.793   4.767   1.068  0.00  0.00    +0.020 A 
ATOM     26  C   UNL     1      -2.126   5.142   1.054  0.00  0.00    +0.043 A 
ATOM     27  C   UNL     1      -3.113   4.183   0.925  0.00  0.00    +0.043 A 
ATOM     28 CL   UNL     1      -2.557   6.817   1.201  0.00  0.00    -0.083 Cl
ENDBRANCH  19  22
ENDBRANCH   1  16
BRANCH   1  30
ATOM     29  N   UNL     1      -6.577  -2.727  -1.803  0.00  0.00    -0.222 N 
ATOM     30  C   UNL     1      -6.623  -1.384  -1.875  0.00  0.00    +0.174 A 
ATOM     31  N   UNL     1      -6.274  -1.060  -3.097  0.00  0.00    -0.111 NA
ATOM     32  N   UNL     1      -6.031  -2.149  -3.742  0.00  0.00    -0.023 NA
ATOM     33  N   UNL     1      -6.217  -3.158  -2.965  0.00  0.00    -0.043 NA
BRANCH  29  34
ATOM     34  C   UNL     1      -6.883  -3.546  -0.627  0.00  0.00    +0.062 C 
ATOM     35  C   UNL     1      -5.876  -3.239   0.483  0.00  0.00    +0.036 C 
ATOM     36  C   UNL     1      -8.296  -3.227  -0.137  0.00  0.00    +0.036 C 
BRANCH  34  38
ATOM     37  C   UNL     1      -7.114  -5.883   0.227  0.00  0.00    +0.006 C 
ATOM     38  C   UNL     1      -6.795  -5.027  -1.001  0.00  0.00    +0.026 C 
ENDBRANCH  34  38
ENDBRANCH  29  34
ENDBRANCH   1  30
TORSDOF 7
