REMARK  Name = ZINC57674762
REMARK  5 active torsions:
REMARK  status: ('A' for Active; 'I' for Inactive)
REMARK    1  A    between atoms: C_2  and  N_10
REMARK    2  A    between atoms: C_5  and  N_8
REMARK    3  A    between atoms: C_11  and  C_13
REMARK    4  A    between atoms: C_13  and  N_14
REMARK    5  A    between atoms: C_15  and  C_17
REMARK                            x       y       z     vdW  Elec       q    Type
REMARK                         _______ _______ _______ _____ _____    ______ ____
ROOT
ATOM      1  N   UNL     1       1.157   3.490   0.010  0.00  0.00    -0.284 N 
ATOM      2  C   UNL     1       2.311   4.179   0.104  0.00  0.00    +0.234 C 
ATOM      3  O   UNL     1       3.371   3.591   0.091  0.00  0.00    -0.274 OA
ATOM      4  H   UNL     1       0.312   3.963  -0.047  0.00  0.00    +0.155 HD
ENDROOT
BRANCH   1   6
ATOM      5  C   UNL     1       0.154   1.373   0.602  0.00  0.00    +0.045 A 
ATOM      6  C   UNL     1       1.177   2.088  -0.006  0.00  0.00    +0.036 A 
ATOM      7  C   UNL     1       2.219   1.416  -0.630  0.00  0.00    +0.045 A 
ATOM      8  C   UNL     1       2.239   0.035  -0.646  0.00  0.00    +0.065 A 
ATOM      9  C   UNL     1       1.216  -0.682  -0.037  0.00  0.00    +0.062 A 
ATOM     10  C   UNL     1       0.173  -0.009   0.587  0.00  0.00    +0.065 A 
ATOM     11 CL   UNL     1      -1.105  -0.903   1.348  0.00  0.00    -0.082 Cl
ATOM     12 CL   UNL     1       3.542  -0.805  -1.428  0.00  0.00    -0.082 Cl
BRANCH   9  13
ATOM     13  N   UNL     1       1.236  -2.082  -0.054  0.00  0.00    -0.356 N 
ATOM     14  H   UNL     1       1.964  -2.552  -0.490  0.00  0.00    +0.142 HD
ATOM     15  H   UNL     1       0.522  -2.582   0.371  0.00  0.00    +0.142 HD
ENDBRANCH   9  13
ENDBRANCH   1   6
BRANCH   2  16
ATOM     16  C   UNL     1       2.283   5.681   0.226  0.00  0.00    +0.200 C 
BRANCH  16  17
ATOM     17  N   UNL     1       3.655   6.189   0.313  0.00  0.00    -0.306 N 
ATOM     18  C   UNL     1       3.877   7.513   0.428  0.00  0.00    +0.220 C 
ATOM     19  O   UNL     1       2.941   8.284   0.460  0.00  0.00    -0.275 OA
ATOM     20  H   UNL     1       4.403   5.572   0.287  0.00  0.00    +0.149 HD
BRANCH  18  21
ATOM     21  C   UNL     1       5.287   8.036   0.517  0.00  0.00    +0.048 C 
ATOM     22  C   UNL     1       5.976   7.437   1.745  0.00  0.00    +0.019 C 
ATOM     23  C   UNL     1       7.409   7.967   1.836  0.00  0.00    -0.009 C 
ATOM     24  C   UNL     1       7.381   9.492   1.960  0.00  0.00    +0.007 C 
ATOM     25  C   UNL     1       6.692  10.091   0.732  0.00  0.00    -0.009 C 
ATOM     26  C   UNL     1       5.260   9.560   0.641  0.00  0.00    +0.019 C 
ATOM     27  C   UNL     1       7.463   9.695  -0.529  0.00  0.00    +0.007 C 
ATOM     28  C   UNL     1       7.491   8.171  -0.653  0.00  0.00    -0.009 C 
ATOM     29  C   UNL     1       8.180   7.572   0.575  0.00  0.00    +0.007 C 
ATOM     30  C   UNL     1       6.059   7.640  -0.744  0.00  0.00    +0.019 C 
ENDBRANCH  18  21
ENDBRANCH  16  17
ENDBRANCH   2  16
TORSDOF 5
