REMARK  Name = ZINC13239165
REMARK  9 active torsions:
REMARK  status: ('A' for Active; 'I' for Inactive)
REMARK    1  A    between atoms: C_1  and  C_2
REMARK    2  A    between atoms: C_5  and  N_9
REMARK    3  A    between atoms: C_7  and  C_8
REMARK    4  A    between atoms: C_13  and  C_15
REMARK    5  A    between atoms: C_15  and  S_16
REMARK    6  A    between atoms: S_16  and  C_17
REMARK    7  A    between atoms: C_20  and  C_25
REMARK    8  A    between atoms: N_21  and  C_22
REMARK    9  A    between atoms: C_22  and  C_23
REMARK                            x       y       z     vdW  Elec       q    Type
REMARK                         _______ _______ _______ _____ _____    ______ ____
ROOT
ATOM      1  N   UNL     1       3.876  14.250   0.103  0.00  0.00    -0.269 N 
ATOM      2  C   UNL     1       4.213  13.001  -0.276  0.00  0.00    +0.310 C 
ATOM      3  O   UNL     1       5.313  12.785  -0.746  0.00  0.00    -0.252 OA
ATOM      4  N   UNL     1       3.331  11.992  -0.133  0.00  0.00    -0.239 N 
ATOM      5  C   UNL     1       3.668  10.744  -0.512  0.00  0.00    +0.231 C 
ATOM      6  O   UNL     1       4.765  10.528  -0.981  0.00  0.00    -0.274 OA
ATOM      7  H   UNL     1       2.974  14.438   0.406  0.00  0.00    +0.156 HD
ATOM      8  H   UNL     1       2.453  12.165   0.242  0.00  0.00    +0.159 HD
ENDROOT
BRANCH   1  13
ATOM      9  C   UNL     1       7.733  18.407  -0.076  0.00  0.00    +0.044 C 
ATOM     10  C   UNL     1       6.708  17.303  -0.029  0.00  0.00    -0.047 A 
ATOM     11  C   UNL     1       7.101  16.009   0.264  0.00  0.00    +0.005 A 
ATOM     12  C   UNL     1       6.164  14.996   0.315  0.00  0.00    +0.023 A 
ATOM     13  C   UNL     1       4.827  15.275   0.059  0.00  0.00    +0.035 A 
ATOM     14  C   UNL     1       4.436  16.575  -0.236  0.00  0.00    +0.027 A 
ATOM     15  C   UNL     1       5.378  17.585  -0.278  0.00  0.00    -0.046 A 
ATOM     16  C   UNL     1       4.955  18.995  -0.598  0.00  0.00    +0.044 C 
ENDBRANCH   1  13
BRANCH   5  17
ATOM     17  C   UNL     1       2.682   9.616  -0.352  0.00  0.00    +0.173 C 
BRANCH  17  18
ATOM     18  S   UNL     1       3.425   8.076  -0.946  0.00  0.00    -0.077 S 
BRANCH  18  19
ATOM     19  C   UNL     1       2.094   6.960  -0.650  0.00  0.00    +0.193 A 
ATOM     20  N   UNL     1       0.923   7.262  -0.136  0.00  0.00    -0.122 NA
ATOM     21  N   UNL     1       0.189   6.211  -0.059  0.00  0.00    -0.128 NA
ATOM     22  C   UNL     1       0.845   5.170  -0.520  0.00  0.00    +0.172 A 
ATOM     23  N   UNL     1       2.089   5.617  -0.908  0.00  0.00    -0.291 N 
BRANCH  22  24
ATOM     24  C   UNL     1       0.348   3.787  -0.601  0.00  0.00    +0.056 A 
ATOM     25  C   UNL     1      -0.939   3.322  -0.494  0.00  0.00    +0.019 A 
ATOM     26  C   UNL     1      -1.165   1.969  -0.611  0.00  0.00    +0.008 A 
ATOM     27  C   UNL     1      -0.111   1.137  -0.815  0.00  0.00    +0.046 A 
ATOM     28  S   UNL     1       1.263   2.276  -0.864  0.00  0.00    -0.094 S 
ENDBRANCH  22  24
BRANCH  23  29
ATOM     29  C   UNL     1       3.177   4.822  -1.481  0.00  0.00    +0.250 C 
BRANCH  29  30
ATOM     30  C   UNL     1       3.051   4.805  -2.982  0.00  0.00    +0.375 C 
ATOM     31  O   UNL     1       2.145   5.397  -3.519  0.00  0.00    -0.244 OA
ATOM     32  O   UNL     1       3.946   4.132  -3.724  0.00  0.00    -0.244 OA
ENDBRANCH  29  30
ENDBRANCH  23  29
ENDBRANCH  18  19
ENDBRANCH  17  18
ENDBRANCH   5  17
TORSDOF 7
