REMARK  Name = ZINC66890951
REMARK  10 active torsions:
REMARK  status: ('A' for Active; 'I' for Inactive)
REMARK    1  A    between atoms: C_1  and  C_2
REMARK    2  A    between atoms: C_2  and  O_3
REMARK    3  A    between atoms: O_3  and  C_4
REMARK    4  A    between atoms: C_9  and  N_10
REMARK    5  A    between atoms: C_11  and  C_13
REMARK    6  A    between atoms: C_13  and  C_15
REMARK    7  A    between atoms: C_13  and  N_16
REMARK    8  A    between atoms: C_19  and  N_22
REMARK    9  A    between atoms: C_23  and  C_25
REMARK   10  A    between atoms: C_29  and  C_30
REMARK                            x       y       z     vdW  Elec       q    Type
REMARK                         _______ _______ _______ _____ _____    ______ ____
ROOT
ATOM      1  N   UNL     1       3.929  -1.816  -6.524  0.00  0.00    +0.387 N 
ATOM      2  C   UNL     1       2.902  -2.670  -7.132  0.00  0.00    -0.076 C 
ATOM      3  C   UNL     1       3.536  -3.545  -8.216  0.00  0.00    +0.004 C 
ATOM      4  C   UNL     1       4.157  -2.647  -9.290  0.00  0.00    +0.070 C 
ATOM      5  C   UNL     1       5.173  -1.709  -8.632  0.00  0.00    +0.004 C 
ATOM      6  C   UNL     1       4.478  -0.902  -7.533  0.00  0.00    -0.076 C 
ATOM      7  H   UNL     1       4.669  -2.394  -6.156  0.00  0.00    -0.081 HD
ENDROOT
BRANCH   4   8
ATOM      8  N   UNL     1       4.832  -3.476 -10.291  0.00  0.00    -0.309 N 
ATOM      9  C   UNL     1       5.008  -3.011 -11.544  0.00  0.00    +0.248 C 
ATOM     10  O   UNL     1       4.605  -1.903 -11.843  0.00  0.00    -0.270 OA
ATOM     11  H   UNL     1       5.154  -4.360 -10.052  0.00  0.00    +0.149 HD
BRANCH   9  12
ATOM     12  C   UNL     1       5.687  -3.845 -12.551  0.00  0.00    +0.077 A 
ATOM     13  C   UNL     1       6.227  -5.200 -12.365  0.00  0.00    +0.054 A 
ATOM     14  C   UNL     1       6.749  -5.555 -13.549  0.00  0.00    +0.196 A 
ATOM     15  O   UNL     1       6.576  -4.552 -14.424  0.00  0.00    -0.467 OA
ATOM     16  C   UNL     1       5.941  -3.524 -13.852  0.00  0.00    +0.114 A 
ATOM     17  C   UNL     1       5.571  -2.230 -14.529  0.00  0.00    +0.087 C 
ENDBRANCH   9  12
ENDBRANCH   4   8
BRANCH   1  18
ATOM     18  C   UNL     1       3.331  -1.035  -5.433  0.00  0.00    +0.016 C 
ATOM     19  C   UNL     1       4.413  -0.192  -4.756  0.00  0.00    -0.004 C 
BRANCH  18  21
ATOM     20  N   UNL     1       1.692  -1.556  -3.654  0.00  0.00    -0.284 N 
ATOM     21  C   UNL     1       2.719  -1.971  -4.422  0.00  0.00    +0.203 C 
ATOM     22  O   UNL     1       3.151  -3.098  -4.300  0.00  0.00    -0.277 OA
ATOM     23  H   UNL     1       1.297  -0.682  -3.803  0.00  0.00    +0.155 HD
BRANCH  20  29
ATOM     24  C   UNL     1      -0.089  -2.186  -2.141  0.00  0.00    +0.142 A 
ATOM     25  C   UNL     1      -0.577  -3.012  -1.142  0.00  0.00    +0.047 A 
ATOM     26  C   UNL     1       0.213  -4.029  -0.639  0.00  0.00    +0.004 A 
ATOM     27  C   UNL     1       1.490  -4.225  -1.130  0.00  0.00    +0.002 A 
ATOM     28  C   UNL     1       1.984  -3.405  -2.127  0.00  0.00    +0.027 A 
ATOM     29  C   UNL     1       1.196  -2.385  -2.640  0.00  0.00    +0.076 A 
BRANCH  24  30
ATOM     30  O   UNL     1      -0.865  -1.185  -2.637  0.00  0.00    -0.490 OA
BRANCH  30  32
ATOM     31  C   UNL     1      -2.890   0.129  -2.756  0.00  0.00    +0.048 C 
ATOM     32  C   UNL     1      -2.172  -1.039  -2.077  0.00  0.00    +0.226 C 
ENDBRANCH  30  32
ENDBRANCH  24  30
ENDBRANCH  20  29
ENDBRANCH  18  21
ENDBRANCH   1  18
TORSDOF 7
