REMARK  Name = ZINC27531883
REMARK  8 active torsions:
REMARK  status: ('A' for Active; 'I' for Inactive)
REMARK    1  A    between atoms: C_1  and  C_2
REMARK    2  A    between atoms: N_6  and  C_26
REMARK    3  A    between atoms: N_9  and  C_16
REMARK    4  A    between atoms: C_12  and  C_13
REMARK    5  A    between atoms: C_16  and  C_17
REMARK    6  A    between atoms: C_17  and  C_19
REMARK    7  A    between atoms: C_26  and  C_27
REMARK    8  A    between atoms: C_27  and  O_28
REMARK                            x       y       z     vdW  Elec       q    Type
REMARK                         _______ _______ _______ _____ _____    ______ ____
ROOT
ATOM      1  C   UNL     1       3.843   3.082  -0.017  0.00  0.00    +0.046 C 
ATOM      2  C   UNL     1       2.487   3.738  -0.002  0.00  0.00    -0.015 A 
ATOM      3  C   UNL     1       2.366   5.131   0.006  0.00  0.00    +0.074 A 
ATOM      4  C   UNL     1       3.438   6.157   0.001  0.00  0.00    +0.265 A 
ATOM      5  O   UNL     1       4.608   5.825  -0.011  0.00  0.00    -0.267 OA
ATOM      6  N   UNL     1       3.099   7.458   0.010  0.00  0.00    -0.258 N 
ATOM      7  C   UNL     1       1.818   7.859   0.024  0.00  0.00    +0.333 A 
ATOM      8  O   UNL     1       1.567   9.048   0.032  0.00  0.00    -0.246 OA
ATOM      9  N   UNL     1       0.805   6.971   0.029  0.00  0.00    -0.280 N 
ATOM     10  C   UNL     1       1.053   5.631   0.021  0.00  0.00    +0.098 A 
ATOM     11  S   UNL     1       0.062   4.221   0.016  0.00  0.00    -0.063 S 
ATOM     12  C   UNL     1       1.347   2.985   0.005  0.00  0.00    +0.106 A 
ENDROOT
BRANCH  12  13
ATOM     13  C   UNL     1       1.214   1.528  -0.001  0.00  0.00    +0.393 C 
ATOM     14  O   UNL     1       2.208   0.827  -0.015  0.00  0.00    -0.240 OA
ATOM     15  O   UNL     1      -0.011   0.963   0.007  0.00  0.00    -0.240 OA
ENDBRANCH  12  13
BRANCH   9  16
ATOM     16  C   UNL     1      -0.579   7.452   0.044  0.00  0.00    +0.207 C 
BRANCH  16  17
ATOM     17  C   UNL     1      -1.041   7.610   1.470  0.00  0.00    +0.183 C 
ATOM     18  O   UNL     1      -0.288   7.348   2.383  0.00  0.00    -0.290 OA
BRANCH  17  19
ATOM     19  C   UNL     1      -2.405   8.083   1.753  0.00  0.00    +0.019 A 
ATOM     20  C   UNL     1      -3.274   8.393   0.701  0.00  0.00    +0.012 A 
ATOM     21  C   UNL     1      -4.552   8.830   0.974  0.00  0.00    +0.016 A 
ATOM     22  C   UNL     1      -4.973   8.974   2.286  0.00  0.00    +0.018 A 
ATOM     23  C   UNL     1      -4.116   8.675   3.333  0.00  0.00    +0.016 A 
ATOM     24  C   UNL     1      -2.837   8.231   3.075  0.00  0.00    +0.012 A 
ATOM     25 BR   UNL     1      -6.726   9.582   2.650  0.00  0.00    -0.050 Br
ENDBRANCH  17  19
ENDBRANCH  16  17
ENDBRANCH   9  16
BRANCH   6  26
ATOM     26  C   UNL     1       4.160   8.468   0.006  0.00  0.00    +0.157 C 
BRANCH  26  27
ATOM     27  C   UNL     1       4.543   8.813   1.446  0.00  0.00    +0.177 C 
BRANCH  27  28
ATOM     28  O   UNL     1       5.117   7.666   2.075  0.00  0.00    -0.393 OA
ATOM     29  H   UNL     1       5.455   7.722   3.120  0.00  0.00    +0.209 HD
ENDBRANCH  27  28
ENDBRANCH  26  27
ENDBRANCH   6  26
TORSDOF 7
