REMARK  Name = ZINC05584268
REMARK  4 active torsions:
REMARK  status: ('A' for Active; 'I' for Inactive)
REMARK    1  A    between atoms: C_5  and  C_7
REMARK    2  A    between atoms: C_15  and  C_16
REMARK    3  A    between atoms: C_21  and  N_25
REMARK    4  A    between atoms: C_22  and  C_23
REMARK                            x       y       z     vdW  Elec       q    Type
REMARK                         _______ _______ _______ _____ _____    ______ ____
ROOT
ATOM      1  C   UNL     1      -2.374  -0.512  -0.860  0.00  0.00    +0.080 C 
ATOM      2  C   UNL     1      -1.194  -0.910   0.015  0.00  0.00    +0.117 C 
ATOM      3  C   UNL     1      -0.582  -2.176  -0.680  0.00  0.00    +0.287 C 
ATOM      4  N   UNL     1       0.732  -2.138  -0.035  0.00  0.00    -0.230 N 
ATOM      5  N   UNL     1       1.054  -0.757  -0.012  0.00  0.00    -0.184 NA
ATOM      6  C   UNL     1       0.002  -0.004   0.002  0.00  0.00    +0.148 C 
ATOM      7  O   UNL     1      -1.462  -3.237  -0.364  0.00  0.00    -0.455 OA
ATOM      8  C   UNL     1      -2.749  -2.999  -0.742  0.00  0.00    +0.194 C 
ATOM      9  C   UNL     1      -3.226  -1.759  -1.011  0.00  0.00    +0.094 C 
ATOM     10  H   UNL     1       1.258  -2.882   0.298  0.00  0.00    +0.172 HD
ENDROOT
BRANCH   1  15
ATOM     11  C   UNL     1      -4.407   1.380   1.697  0.00  0.00    +0.000 A 
ATOM     12  C   UNL     1      -4.623   2.580   1.046  0.00  0.00    +0.001 A 
ATOM     13  C   UNL     1      -4.112   2.780  -0.223  0.00  0.00    +0.020 A 
ATOM     14  C   UNL     1      -3.383   1.779  -0.840  0.00  0.00    +0.045 A 
ATOM     15  C   UNL     1      -3.167   0.579  -0.188  0.00  0.00    -0.020 A 
ATOM     16  C   UNL     1      -3.684   0.378   1.079  0.00  0.00    +0.006 A 
ATOM     17 CL   UNL     1      -2.740   2.030  -2.433  0.00  0.00    -0.083 Cl
ENDBRANCH   1  15
BRANCH   6  18
ATOM     18  C   UNL     1      -0.018   1.503   0.010  0.00  0.00    +0.432 C 
ATOM     19  F   UNL     1       1.294   1.987   0.000  0.00  0.00    -0.165 F 
ATOM     20  F   UNL     1      -0.695   1.966  -1.123  0.00  0.00    -0.165 F 
ATOM     21  F   UNL     1      -0.673   1.954   1.161  0.00  0.00    -0.165 F 
ENDBRANCH   6  18
BRANCH   8  22
ATOM     22  N   UNL     1      -3.604  -4.066  -0.854  0.00  0.00    -0.329 N 
ATOM     23  H   UNL     1      -3.287  -4.964  -0.667  0.00  0.00    +0.145 HD
ATOM     24  H   UNL     1      -4.526  -3.923  -1.121  0.00  0.00    +0.145 HD
ENDBRANCH   8  22
BRANCH   9  25
ATOM     25  C   UNL     1      -4.581  -1.621  -1.454  0.00  0.00    +0.100 C 
ATOM     26  N   UNL     1      -5.656  -1.512  -1.805  0.00  0.00    -0.191 NA
ENDBRANCH   9  25
TORSDOF 4
