REMARK  Name = ZINC11854849
REMARK  7 active torsions:
REMARK  status: ('A' for Active; 'I' for Inactive)
REMARK    1  A    between atoms: C_1  and  C_2
REMARK    2  A    between atoms: C_2  and  C_3
REMARK    3  A    between atoms: C_3  and  C_4
REMARK    4  A    between atoms: C_13  and  N_22
REMARK    5  A    between atoms: C_15  and  C_17
REMARK    6  A    between atoms: C_23  and  C_25
REMARK    7  A    between atoms: C_27  and  C_30
REMARK                            x       y       z     vdW  Elec       q    Type
REMARK                         _______ _______ _______ _____ _____    ______ ____
ROOT
ATOM      1  C   UNL     1       3.702  -4.763  -0.039  0.00  0.00    +0.050 A 
ATOM      2  C   UNL     1       4.475  -5.887  -0.047  0.00  0.00    +0.093 A 
ATOM      3  C   UNL     1       5.875  -5.748  -0.062  0.00  0.00    +0.253 A 
ATOM      4  O   UNL     1       6.598  -6.731  -0.071  0.00  0.00    -0.268 OA
ATOM      5  N   UNL     1       6.403  -4.505  -0.074  0.00  0.00    -0.291 N 
ATOM      6  H   UNL     1       7.366  -4.385  -0.088  0.00  0.00    +0.172 HD
ATOM      7  C   UNL     1       5.581  -3.422  -0.059  0.00  0.00    +0.234 A 
ATOM      8  N   UNL     1       4.273  -3.560  -0.045  0.00  0.00    -0.217 NA
ATOM      9  N   UNL     1       6.129  -2.155  -0.065  0.00  0.00    -0.185 N 
ATOM     10  C   UNL     1       5.434  -0.979  -0.057  0.00  0.00    +0.132 A 
ATOM     11  C   UNL     1       6.337   0.034  -0.060  0.00  0.00    +0.074 A 
ATOM     12  C   UNL     1       7.627  -0.538  -0.076  0.00  0.00    +0.102 A 
ATOM     13  N   UNL     1       7.496  -1.849  -0.082  0.00  0.00    -0.162 NA
ENDROOT
BRANCH  12  14
ATOM     14  C   UNL     1       8.905   0.206  -0.085  0.00  0.00    +0.039 A 
ATOM     15  C   UNL     1      10.185  -0.279  -0.100  0.00  0.00    +0.018 A 
ATOM     16  C   UNL     1      11.232   0.616  -0.106  0.00  0.00    +0.008 A 
ATOM     17  C   UNL     1      10.965   1.947  -0.096  0.00  0.00    +0.046 A 
ATOM     18  S   UNL     1       9.180   1.970  -0.085  0.00  0.00    -0.095 S 
ENDBRANCH  12  14
BRANCH  10  19
ATOM     19  N   UNL     1       4.048  -0.844  -0.042  0.00  0.00    -0.265 N 
ATOM     20  C   UNL     1       3.491   0.383  -0.030  0.00  0.00    +0.271 C 
ATOM     21  O   UNL     1       4.198   1.372  -0.032  0.00  0.00    -0.268 OA
ATOM     22  H   UNL     1       3.484  -1.633  -0.041  0.00  0.00    +0.157 HD
BRANCH  20  23
ATOM     23  C   UNL     1       2.015   0.527  -0.014  0.00  0.00    +0.168 A 
ATOM     24  C   UNL     1       1.275   1.742  -0.001  0.00  0.00    +0.081 A 
ATOM     25  C   UNL     1      -0.016   1.336   0.009  0.00  0.00    +0.141 A 
ATOM     26  O   UNL     1       0.002  -0.004   0.002  0.00  0.00    -0.359 OA
ATOM     27  N   UNL     1       1.130  -0.439  -0.011  0.00  0.00    -0.073 NA
BRANCH  25  28
ATOM     28  C   UNL     1      -1.237   2.219   0.020  0.00  0.00    +0.058 C 
ATOM     29  C   UNL     1      -2.595   1.546   0.230  0.00  0.00    +0.012 C 
ATOM     30  C   UNL     1      -2.214   2.088  -1.150  0.00  0.00    +0.012 C 
ENDBRANCH  25  28
ENDBRANCH  20  23
ENDBRANCH  10  19
BRANCH   1  31
ATOM     31  C   UNL     1       2.200  -4.883  -0.023  0.00  0.00    +0.055 C 
BRANCH  31  33
ATOM     32  C   UNL     1       0.172  -4.921   1.436  0.00  0.00    +0.004 C 
ATOM     33  C   UNL     1       1.696  -4.799   1.420  0.00  0.00    +0.003 C 
ENDBRANCH  31  33
ENDBRANCH   1  31
TORSDOF 6
