REMARK  Name = ZINC02196393
REMARK  9 active torsions:
REMARK  status: ('A' for Active; 'I' for Inactive)
REMARK    1  A    between atoms: C_1  and  C_2
REMARK    2  A    between atoms: C_2  and  N_3
REMARK    3  A    between atoms: N_3  and  C_4
REMARK    4  A    between atoms: N_3  and  C_6
REMARK    5  A    between atoms: C_4  and  C_5
REMARK    6  A    between atoms: C_7  and  C_18
REMARK    7  A    between atoms: C_14  and  C_17
REMARK    8  A    between atoms: N_22  and  C_26
REMARK    9  A    between atoms: C_26  and  C_27
REMARK                            x       y       z     vdW  Elec       q    Type
REMARK                         _______ _______ _______ _____ _____    ______ ____
ROOT
ATOM      1  C   UNL     1      -0.342  10.215   0.773  0.00  0.00    +0.037 C 
ATOM      2  C   UNL     1       0.123   8.933   0.713  0.00  0.00    +0.077 C 
ATOM      3  C   UNL     1      -0.579   7.728   0.424  0.00  0.00    +0.259 C 
ATOM      4  O   UNL     1      -1.774   7.741   0.184  0.00  0.00    -0.269 OA
ATOM      5  N   UNL     1       0.101   6.595   0.425  0.00  0.00    -0.251 N 
ATOM      6  C   UNL     1       1.425   6.580   0.698  0.00  0.00    +0.121 C 
ATOM      7  S   UNL     1       2.494   5.244   0.760  0.00  0.00    -0.027 S 
ATOM      8  S   UNL     1       1.778   8.310   0.973  0.00  0.00    -0.061 S 
ENDROOT
BRANCH   1  10
ATOM      9  C   UNL     1       0.793  12.356   0.346  0.00  0.00    +0.136 A 
ATOM     10  C   UNL     1       0.515  11.259   1.194  0.00  0.00    +0.081 A 
ATOM     11  C   UNL     1       1.112  11.234   2.478  0.00  0.00    +0.267 A 
ATOM     12  O   UNL     1       0.896  10.311   3.244  0.00  0.00    -0.267 OA
ATOM     13  N   UNL     1       1.927  12.249   2.837  0.00  0.00    -0.267 N 
ATOM     14  C   UNL     1       2.510  12.231   4.070  0.00  0.00    +0.096 A 
ATOM     15  C   UNL     1       3.328  13.233   4.463  0.00  0.00    +0.019 A 
ATOM     16  C   UNL     1       3.586  14.309   3.602  0.00  0.00    +0.008 A 
ATOM     17  C   UNL     1       3.008  14.336   2.368  0.00  0.00    -0.007 A 
ATOM     18  C   UNL     1       2.160  13.284   1.976  0.00  0.00    +0.145 A 
ATOM     19  N   UNL     1       1.600  13.319   0.766  0.00  0.00    -0.213 NA
ATOM     20  C   UNL     1       3.275  15.485   1.430  0.00  0.00    +0.047 C 
BRANCH   9  21
ATOM     21  N   UNL     1       0.229  12.422  -0.910  0.00  0.00    -0.315 N 
BRANCH  21  23
ATOM     22  C   UNL     1      -1.985  13.032  -0.060  0.00  0.00    +0.024 C 
ATOM     23  C   UNL     1      -0.821  13.448  -0.961  0.00  0.00    +0.103 C 
ENDBRANCH  21  23
BRANCH  21  24
ATOM     24  C   UNL     1       1.253  12.665  -1.935  0.00  0.00    +0.103 C 
ATOM     25  C   UNL     1       2.049  11.380  -2.175  0.00  0.00    +0.024 C 
ENDBRANCH  21  24
ENDBRANCH   9  21
ENDBRANCH   1  10
BRANCH   5  26
ATOM     26  C   UNL     1      -0.590   5.337   0.133  0.00  0.00    +0.150 C 
BRANCH  26  27
ATOM     27  C   UNL     1      -0.547   5.073  -1.350  0.00  0.00    -0.026 A 
ATOM     28  C   UNL     1      -1.557   5.549  -2.165  0.00  0.00    +0.009 A 
ATOM     29  C   UNL     1      -1.522   5.310  -3.526  0.00  0.00    +0.050 A 
ATOM     30  C   UNL     1      -0.473   4.590  -4.076  0.00  0.00    +0.166 A 
ATOM     31  C   UNL     1       0.544   4.110  -3.255  0.00  0.00    +0.167 A 
ATOM     32  C   UNL     1       0.502   4.354  -1.892  0.00  0.00    +0.054 A 
ATOM     33  O   UNL     1       1.453   3.442  -4.028  0.00  0.00    -0.453 OA
ATOM     34  C   UNL     1       1.190   3.866  -5.379  0.00  0.00    +0.466 C 
ATOM     35  O   UNL     1      -0.205   4.222  -5.363  0.00  0.00    -0.453 OA
ENDBRANCH  26  27
ENDBRANCH   5  26
TORSDOF 6
