REMARK  Name = ZINC13444947
REMARK  9 active torsions:
REMARK  status: ('A' for Active; 'I' for Inactive)
REMARK    1  A    between atoms: C_1  and  C_2
REMARK    2  A    between atoms: C_3  and  C_27
REMARK    3  A    between atoms: C_4  and  C_26
REMARK    4  A    between atoms: C_9  and  S_11
REMARK    5  A    between atoms: S_11  and  C_12
REMARK    6  A    between atoms: C_12  and  C_13
REMARK    7  A    between atoms: N_15  and  C_16
REMARK    8  A    between atoms: C_27  and  C_28
REMARK    9  A    between atoms: C_28  and  C_29
REMARK                            x       y       z     vdW  Elec       q    Type
REMARK                         _______ _______ _______ _____ _____    ______ ____
ROOT
ATOM      1  C   UNL     1       1.188   3.559  -0.068  0.00  0.00    +0.066 C 
ATOM      2  C   UNL     1       1.193   2.052  -0.068  0.00  0.00    +0.047 A 
ATOM      3  C   UNL     1      -0.019   1.352  -0.063  0.00  0.00    -0.005 A 
ATOM      4  C   UNL     1       0.000  -0.007  -0.063  0.00  0.00    +0.048 A 
ATOM      5  N   UNL     1       1.197  -0.650  -0.068  0.00  0.00    -0.200 N 
ATOM      6  C   UNL     1       2.362   0.064  -0.072  0.00  0.00    +0.254 A 
ATOM      7  N   UNL     1       2.334   1.401  -0.073  0.00  0.00    -0.216 NA
ATOM      8  N   UNL     1       3.363  -0.811  -0.075  0.00  0.00    -0.183 NA
ATOM      9  C   UNL     1       2.876  -2.050  -0.073  0.00  0.00    +0.211 A 
ATOM     10  N   UNL     1       1.559  -2.003  -0.068  0.00  0.00    -0.137 NA
ATOM     11  C   UNL     1      -1.288  -0.789  -0.058  0.00  0.00    +0.066 C 
ENDROOT
BRANCH   9  12
ATOM     12  S   UNL     1       3.842  -3.523  -0.075  0.00  0.00    -0.075 S 
BRANCH  12  13
ATOM     13  C   UNL     1       5.555  -2.925  -0.082  0.00  0.00    +0.173 C 
BRANCH  13  14
ATOM     14  C   UNL     1       6.498  -4.101  -0.085  0.00  0.00    +0.228 C 
ATOM     15  O   UNL     1       6.058  -5.231  -0.083  0.00  0.00    -0.275 OA
ATOM     16  N   UNL     1       7.830  -3.896  -0.090  0.00  0.00    -0.284 N 
ATOM     17  H   UNL     1       8.182  -2.994  -0.157  0.00  0.00    +0.155 HD
BRANCH  16  18
ATOM     18  C   UNL     1       8.706  -4.985   0.003  0.00  0.00    +0.056 A 
ATOM     19  C   UNL     1       8.375  -6.195  -0.592  0.00  0.00    +0.074 A 
ATOM     20  C   UNL     1       9.242  -7.272  -0.500  0.00  0.00    +0.168 A 
ATOM     21  C   UNL     1      10.445  -7.138   0.189  0.00  0.00    +0.168 A 
ATOM     22  C   UNL     1      10.773  -5.929   0.781  0.00  0.00    +0.071 A 
ATOM     23  C   UNL     1       9.909  -4.853   0.684  0.00  0.00    +0.066 A 
ATOM     24 CL   UNL     1      10.327  -3.338   1.421  0.00  0.00    -0.082 Cl
ATOM     25  O   UNL     1      11.113  -8.329   0.134  0.00  0.00    -0.453 OA
ATOM     26  C   UNL     1      10.125  -9.306  -0.242  0.00  0.00    +0.466 C 
ATOM     27  O   UNL     1       9.156  -8.545  -0.986  0.00  0.00    -0.453 OA
ENDBRANCH  16  18
ENDBRANCH  13  14
ENDBRANCH  12  13
ENDBRANCH   9  12
BRANCH   3  28
ATOM     28  C   UNL     1      -1.329   2.096  -0.064  0.00  0.00    +0.050 C 
BRANCH  28  29
ATOM     29  C   UNL     1      -1.774   2.348   1.378  0.00  0.00    +0.130 C 
BRANCH  29  30
ATOM     30  C   UNL     1      -3.085   3.092   1.377  0.00  0.00    +0.356 C 
ATOM     31  O   UNL     1      -3.609   3.390   0.330  0.00  0.00    -0.246 OA
ATOM     32  O   UNL     1      -3.669   3.423   2.539  0.00  0.00    -0.246 OA
ENDBRANCH  29  30
ENDBRANCH  28  29
ENDBRANCH   3  28
TORSDOF 7
