REMARK  Name = ZINC12864242
REMARK  14 active torsions:
REMARK  status: ('A' for Active; 'I' for Inactive)
REMARK    1  A    between atoms: C_1  and  C_2
REMARK    2  A    between atoms: C_3  and  C_26
REMARK    3  A    between atoms: C_4  and  N_11
REMARK    4  A    between atoms: C_6  and  C_7
REMARK    5  A    between atoms: C_7  and  O_9
REMARK    6  A    between atoms: O_9  and  C_10
REMARK    7  A    between atoms: C_12  and  C_14
REMARK    8  A    between atoms: C_14  and  C_15
REMARK    9  A    between atoms: C_15  and  N_51
REMARK   10  A    between atoms: C_16  and  C_18
REMARK   11  A    between atoms: C_16  and  C_19
REMARK   12  A    between atoms: C_16  and  N_51
REMARK   13  A    between atoms: C_26  and  O_28
REMARK   14  A    between atoms: O_28  and  C_29
REMARK                            x       y       z     vdW  Elec       q    Type
REMARK                         _______ _______ _______ _____ _____    ______ ____
ROOT
ATOM      1  N   UNL     1       4.896   8.237  -3.651  0.00  0.00    -0.279 N 
ATOM      2  C   UNL     1       4.805   7.179  -2.822  0.00  0.00    +0.216 C 
ATOM      3  O   UNL     1       5.806   6.577  -2.494  0.00  0.00    -0.276 OA
ATOM      4  H   UNL     1       4.096   8.718  -3.914  0.00  0.00    +0.155 HD
ENDROOT
BRANCH   1   8
ATOM      5  C   UNL     1       8.169  11.021  -6.245  0.00  0.00    +0.046 C 
ATOM      6  C   UNL     1       7.759   9.901  -5.324  0.00  0.00    -0.014 A 
ATOM      7  C   UNL     1       6.429   9.699  -4.988  0.00  0.00    +0.091 A 
ATOM      8  C   UNL     1       6.129   8.637  -4.128  0.00  0.00    +0.087 A 
ATOM      9  S   UNL     1       7.687   7.951  -3.800  0.00  0.00    -0.066 S 
ATOM     10  C   UNL     1       8.687   9.047  -4.790  0.00  0.00    +0.102 A 
BRANCH  10  11
ATOM     11  C   UNL     1      10.137   9.039  -4.980  0.00  0.00    +0.346 C 
ATOM     12  O   UNL     1      10.661   9.872  -5.694  0.00  0.00    -0.244 OA
BRANCH  11  13
ATOM     13  O   UNL     1      10.893   8.107  -4.364  0.00  0.00    -0.464 OA
ATOM     14  C   UNL     1      12.302   8.158  -4.594  0.00  0.00    +0.280 C 
ENDBRANCH  11  13
ENDBRANCH  10  11
BRANCH   7  15
ATOM     15  C   UNL     1       5.373  10.569  -5.516  0.00  0.00    +0.342 C 
ATOM     16  O   UNL     1       5.047  11.569  -4.907  0.00  0.00    -0.245 OA
BRANCH  15  17
ATOM     17  O   UNL     1       4.763  10.259  -6.678  0.00  0.00    -0.464 OA
ATOM     18  C   UNL     1       3.726  11.165  -7.141  0.00  0.00    +0.280 C 
ENDBRANCH  15  17
ENDBRANCH   7  15
ENDBRANCH   1   8
BRANCH   2  19
ATOM     19  C   UNL     1       3.459   6.743  -2.303  0.00  0.00    +0.077 C 
BRANCH  19  20
ATOM     20  C   UNL     1       3.635   5.528  -1.389  0.00  0.00    -0.073 C 
BRANCH  20  21
ATOM     21  N   UNL     1       2.313   5.107  -0.885  0.00  0.00    +0.384 N 
ATOM     22  H   UNL     1       1.710   4.862  -1.679  0.00  0.00    -0.085 HD
ATOM     23  H   UNL     1       1.890   5.881  -0.359  0.00  0.00    -0.085 HD
BRANCH  21  24
ATOM     24  C   UNL     1       2.452   3.936   0.000  0.00  0.00    -0.044 C 
ATOM     25  C   UNL     1       2.776   4.404   1.421  0.00  0.00    -0.009 C 
BRANCH  24  26
ATOM     26  C   UNL     1       1.157   3.166   0.008  0.00  0.00    -0.060 A 
ATOM     27  C   UNL     1       1.175   1.783   0.000  0.00  0.00    +0.002 A 
ATOM     28  C   UNL     1      -0.013   1.076   0.008  0.00  0.00    +0.002 A 
ATOM     29  C   UNL     1      -1.219   1.750   0.017  0.00  0.00    +0.020 A 
ATOM     30  C   UNL     1      -1.238   3.134   0.030  0.00  0.00    +0.041 A 
ATOM     31  C   UNL     1      -0.048   3.841   0.023  0.00  0.00    +0.022 A 
ATOM     32 CL   UNL     1      -2.752   3.982   0.049  0.00  0.00    -0.084 Cl
ENDBRANCH  24  26
ENDBRANCH  21  24
ENDBRANCH  20  21
ENDBRANCH  19  20
ENDBRANCH   2  19
TORSDOF 10
