REMARK  Name = ZINC45201781
REMARK  17 active torsions:
REMARK  status: ('A' for Active; 'I' for Inactive)
REMARK    1  A    between atoms: C_1  and  C_2
REMARK    2  A    between atoms: C_2  and  C_3
REMARK    3  A    between atoms: C_3  and  N_4
REMARK    4  A    between atoms: N_4  and  C_5
REMARK    5  A    between atoms: C_5  and  C_6
REMARK    6  A    between atoms: C_9  and  C_12
REMARK    7  A    between atoms: C_15  and  C_18
REMARK    8  A    between atoms: C_18  and  N_19
REMARK    9  A    between atoms: N_19  and  C_20
REMARK   10  A    between atoms: C_20  and  C_22
REMARK   11  A    between atoms: C_20  and  C_23
REMARK   12  A    between atoms: C_23  and  N_24
REMARK   13  A    between atoms: N_24  and  C_25
REMARK   14  A    between atoms: N_24  and  C_26
REMARK   15  A    between atoms: C_27  and  C_29
REMARK   16  A    between atoms: C_30  and  C_40
REMARK   17  A    between atoms: N_32  and  C_34
REMARK                            x       y       z     vdW  Elec       q    Type
REMARK                         _______ _______ _______ _____ _____    ______ ____
ROOT
ATOM      1  N   UNL     1       1.249 -12.779   1.188  0.00  0.00    -0.291 N 
ATOM      2  C   UNL     1       0.059 -13.123   1.719  0.00  0.00    +0.269 C 
ATOM      3  O   UNL     1      -0.123 -13.021   2.917  0.00  0.00    -0.268 OA
ENDROOT
BRANCH   2   4
ATOM      4  C   UNL     1      -1.023 -13.624   0.847  0.00  0.00    +0.170 A 
ATOM      5  C   UNL     1      -2.344 -13.899   1.242  0.00  0.00    +0.093 A 
ATOM      6  N   UNL     1      -2.976 -14.320   0.172  0.00  0.00    -0.152 NA
ATOM      7  N   UNL     1      -2.055 -14.309  -0.884  0.00  0.00    -0.149 N 
ATOM      8  N   UNL     1      -0.921 -13.888  -0.443  0.00  0.00    -0.142 NA
ATOM      9  C   UNL     1      -2.921 -13.740   2.625  0.00  0.00    +0.070 C 
BRANCH   7  10
ATOM     10  C   UNL     1      -2.325 -14.688  -2.206  0.00  0.00    +0.086 A 
ATOM     11  C   UNL     1      -1.295 -14.758  -3.134  0.00  0.00    +0.029 A 
ATOM     12  C   UNL     1      -1.565 -15.133  -4.436  0.00  0.00    +0.002 A 
ATOM     13  C   UNL     1      -2.860 -15.437  -4.815  0.00  0.00    +0.000 A 
ATOM     14  C   UNL     1      -3.888 -15.368  -3.893  0.00  0.00    +0.002 A 
ATOM     15  C   UNL     1      -3.623 -15.001  -2.588  0.00  0.00    +0.029 A 
ENDBRANCH   7  10
ENDBRANCH   2   4
BRANCH   1  16
ATOM     16  C   UNL     1       1.493 -12.967  -0.245  0.00  0.00    +0.057 C 
ATOM     17  C   UNL     1       2.552 -14.053  -0.444  0.00  0.00    +0.026 C 
BRANCH  16  18
ATOM     18  C   UNL     1       1.989 -11.654  -0.854  0.00  0.00    -0.057 C 
BRANCH  18  19
ATOM     19  N   UNL     1       2.065 -11.790  -2.315  0.00  0.00    +0.377 N 
ATOM     20  C   UNL     1       0.711 -11.952  -2.863  0.00  0.00    -0.097 C 
ATOM     21  C   UNL     1       2.684 -10.587  -2.887  0.00  0.00    -0.097 C 
ATOM     22  H   UNL     1       2.621 -12.598  -2.549  0.00  0.00    -0.083 HD
ENDBRANCH  18  19
ENDBRANCH  16  18
ENDBRANCH   1  16
BRANCH   1  23
ATOM     23  C   UNL     1       2.298 -12.217   2.042  0.00  0.00    +0.143 C 
BRANCH  23  27
ATOM     24  C   UNL     1       1.650  -8.018   2.522  0.00  0.00    +0.000 A 
ATOM     25  C   UNL     1       0.968  -8.928   3.328  0.00  0.00    +0.010 A 
ATOM     26  C   UNL     1       1.181 -10.282   3.169  0.00  0.00    +0.006 A 
ATOM     27  C   UNL     1       2.069 -10.737   2.211  0.00  0.00    -0.030 A 
ATOM     28  C   UNL     1       2.748  -9.838   1.407  0.00  0.00    +0.006 A 
ATOM     29  C   UNL     1       2.539  -8.482   1.554  0.00  0.00    +0.010 A 
BRANCH  24  33
ATOM     30  C   UNL     1       1.034  -3.881   2.970  0.00  0.00    -0.046 A 
ATOM     31  C   UNL     1       0.335  -4.744   3.802  0.00  0.00    +0.005 A 
ATOM     32  C   UNL     1       0.534  -6.106   3.658  0.00  0.00    +0.028 A 
ATOM     33  C   UNL     1       1.425  -6.561   2.688  0.00  0.00    +0.071 A 
ATOM     34  N   UNL     1       2.074  -5.702   1.913  0.00  0.00    -0.255 NA
ATOM     35  C   UNL     1       1.898  -4.401   2.025  0.00  0.00    +0.113 A 
BRANCH  30  36
ATOM     36  C   UNL     1       0.848  -2.390   3.092  0.00  0.00    -0.045 C 
BRANCH  36  37
ATOM     37  N   UNL     1      -0.248  -1.960   2.214  0.00  0.00    +0.382 N 
ATOM     38  H   UNL     1      -1.100  -2.428   2.485  0.00  0.00    -0.085 HD
ATOM     39  H   UNL     1      -0.025  -2.194   1.258  0.00  0.00    -0.085 HD
BRANCH  37  40
ATOM     40  C   UNL     1      -0.429  -0.507   2.332  0.00  0.00    -0.082 C 
BRANCH  40  42
ATOM     41  C   UNL     1      -1.760   1.454   1.541  0.00  0.00    +0.002 C 
ATOM     42  C   UNL     1      -1.571  -0.059   1.418  0.00  0.00    -0.022 C 
ENDBRANCH  40  42
ENDBRANCH  37  40
ENDBRANCH  36  37
ENDBRANCH  30  36
ENDBRANCH  24  33
ENDBRANCH  23  27
ENDBRANCH   1  23
TORSDOF 12
