REMARK  Name = ZINC10064187
REMARK  11 active torsions:
REMARK  status: ('A' for Active; 'I' for Inactive)
REMARK    1  A    between atoms: C_1  and  C_2
REMARK    2  A    between atoms: C_5  and  C_9
REMARK    3  A    between atoms: C_7  and  C_8
REMARK    4  A    between atoms: C_9  and  C_10
REMARK    5  A    between atoms: C_10  and  N_12
REMARK    6  A    between atoms: N_14  and  C_26
REMARK    7  A    between atoms: C_18  and  S_22
REMARK    8  A    between atoms: S_22  and  N_25
REMARK    9  A    between atoms: C_26  and  C_27
REMARK   10  A    between atoms: C_27  and  O_28
REMARK   11  A    between atoms: O_28  and  C_29
REMARK                            x       y       z     vdW  Elec       q    Type
REMARK                         _______ _______ _______ _____ _____    ______ ____
ROOT
ATOM      1  N   UNL     1       1.138   1.872   0.051  0.00  0.00    -0.156 NA
ATOM      2  C   UNL     1       2.304   1.231  -0.003  0.00  0.00    +0.166 A 
ATOM      3  N   UNL     1       3.556   1.760  -0.038  0.00  0.00    -0.319 N 
ATOM      4  C   UNL     1       4.659   0.928  -0.093  0.00  0.00    +0.058 A 
ATOM      5  C   UNL     1       6.016   1.284  -0.135  0.00  0.00    +0.029 A 
ATOM      6  C   UNL     1       6.994   0.319  -0.188  0.00  0.00    +0.030 A 
ATOM      7  C   UNL     1       6.673  -1.029  -0.201  0.00  0.00    +0.106 A 
ATOM      8  C   UNL     1       5.343  -1.407  -0.160  0.00  0.00    +0.045 A 
ATOM      9  C   UNL     1       4.364  -0.443  -0.108  0.00  0.00    +0.041 A 
ATOM     10  S   UNL     1       2.591  -0.479  -0.038  0.00  0.00    -0.052 S 
ENDROOT
BRANCH   7  11
ATOM     11  S   UNL     1       7.944  -2.247  -0.269  0.00  0.00    +0.056 S 
ATOM     12  O   UNL     1       7.356  -3.417  -0.821  0.00  0.00    -0.153 OA
ATOM     13  O   UNL     1       9.079  -1.618  -0.850  0.00  0.00    -0.153 OA
BRANCH  11  14
ATOM     14  N   UNL     1       8.354  -2.614   1.293  0.00  0.00    -0.204 NA
ATOM     15  H   UNL     1       8.678  -3.502   1.513  0.00  0.00    +0.144 HD
ATOM     16  H   UNL     1       8.271  -1.942   1.987  0.00  0.00    +0.144 HD
ENDBRANCH  11  14
ENDBRANCH   7  11
BRANCH   1  17
ATOM     17  C   UNL     1       0.002   1.183   0.079  0.00  0.00    +0.243 C 
ATOM     18  O   UNL     1       0.028  -0.033   0.055  0.00  0.00    -0.273 OA
BRANCH  17  19
ATOM     19  C   UNL     1      -1.317   1.908   0.134  0.00  0.00    +0.133 C 
BRANCH  19  24
ATOM     20  C   UNL     1      -5.629  -1.939   0.194  0.00  0.00    +0.044 C 
ATOM     21  C   UNL     1      -4.505  -0.935   0.178  0.00  0.00    -0.048 A 
ATOM     22  C   UNL     1      -3.951  -0.498   1.368  0.00  0.00    +0.004 A 
ATOM     23  C   UNL     1      -2.920   0.422   1.353  0.00  0.00    +0.004 A 
ATOM     24  C   UNL     1      -2.442   0.905   0.150  0.00  0.00    -0.038 A 
ATOM     25  C   UNL     1      -2.998   0.472  -1.039  0.00  0.00    +0.007 A 
ATOM     26  C   UNL     1      -4.027  -0.451  -1.025  0.00  0.00    -0.047 A 
ATOM     27  C   UNL     1      -4.631  -0.927  -2.321  0.00  0.00    +0.044 C 
ENDBRANCH  19  24
ENDBRANCH  17  19
ENDBRANCH   1  17
BRANCH   3  28
ATOM     28  C   UNL     1       3.736   3.213  -0.017  0.00  0.00    +0.152 C 
BRANCH  28  29
ATOM     29  C   UNL     1       2.623   3.877  -0.831  0.00  0.00    +0.181 C 
BRANCH  29  30
ATOM     30  O   UNL     1       2.874   5.281  -0.924  0.00  0.00    -0.381 OA
ATOM     31  C   UNL     1       1.888   5.999  -1.668  0.00  0.00    +0.194 C 
ENDBRANCH  29  30
ENDBRANCH  28  29
ENDBRANCH   3  28
TORSDOF 8
