REMARK  Name = ZINC17304303
REMARK  4 active torsions:
REMARK  status: ('A' for Active; 'I' for Inactive)
REMARK    1  A    between atoms: N_9  and  C_14
REMARK    2  A    between atoms: C_14  and  C_15
REMARK    3  A    between atoms: C_15  and  C_16
REMARK    4  A    between atoms: C_16  and  N_18
REMARK                            x       y       z     vdW  Elec       q    Type
REMARK                         _______ _______ _______ _____ _____    ______ ____
ROOT
ATOM      1  C   UNL     1       2.670  -4.682  -1.492  0.00  0.00    +0.119 C 
ENDROOT
BRANCH   1   2
ATOM      2  C   UNL     1       2.772  -6.186  -1.499  0.00  0.00    +0.241 C 
ATOM      3  O   UNL     1       2.833  -6.796  -0.449  0.00  0.00    -0.274 OA
BRANCH   2   4
ATOM      4  N   UNL     1       2.795  -6.845  -2.653  0.00  0.00    -0.147 NA
ATOM      5  C   UNL     1       2.990  -8.161  -2.664  0.00  0.00    +0.198 A 
ATOM      6  N   UNL     1       3.062  -8.955  -1.563  0.00  0.00    -0.326 N 
ATOM      7  H   UNL     1       2.981  -8.659  -0.643  0.00  0.00    +0.169 HD
ATOM      8  C   UNL     1       3.272 -10.264  -1.983  0.00  0.00    +0.065 A 
ATOM      9  C   UNL     1       3.421 -11.464  -1.303  0.00  0.00    +0.028 A 
ATOM     10  C   UNL     1       3.622 -12.634  -2.008  0.00  0.00    +0.002 A 
ATOM     11  C   UNL     1       3.675 -12.615  -3.392  0.00  0.00    +0.002 A 
ATOM     12  C   UNL     1       3.528 -11.426  -4.078  0.00  0.00    +0.028 A 
ATOM     13  C   UNL     1       3.326 -10.245  -3.378  0.00  0.00    +0.065 A 
ATOM     14  N   UNL     1       3.142  -8.925  -3.777  0.00  0.00    -0.326 N 
ATOM     15  H   UNL     1       3.128  -8.604  -4.693  0.00  0.00    +0.169 HD
ENDBRANCH   2   4
ENDBRANCH   1   2
BRANCH   1  16
ATOM     16  C   UNL     1       2.663  -4.178  -0.047  0.00  0.00    +0.136 C 
BRANCH  16  25
ATOM     17  C   UNL     1       0.040   1.390   0.023  0.00  0.00    +0.001 A 
ATOM     18  C   UNL     1       1.229   2.104   0.003  0.00  0.00    +0.002 A 
ATOM     19  C   UNL     1       2.443   1.448  -0.023  0.00  0.00    +0.026 A 
ATOM     20  C   UNL     1       2.477   0.061  -0.029  0.00  0.00    +0.053 A 
ATOM     21  C   UNL     1       1.272  -0.663  -0.008  0.00  0.00    +0.063 A 
ATOM     22  C   UNL     1       0.054   0.011   0.018  0.00  0.00    +0.015 A 
ATOM     23  C   UNL     1       1.344  -2.136  -0.015  0.00  0.00    +0.262 A 
ATOM     24  O   UNL     1       0.332  -2.810   0.002  0.00  0.00    -0.267 OA
ATOM     25  N   UNL     1       2.563  -2.716  -0.040  0.00  0.00    -0.288 N 
ATOM     26  C   UNL     1       3.686  -1.980  -0.059  0.00  0.00    +0.161 A 
ATOM     27  S   UNL     1       5.195  -2.788  -0.090  0.00  0.00    -0.013 S 
ATOM     28  N   UNL     1       3.675  -0.636  -0.055  0.00  0.00    -0.335 N 
ATOM     29  H   UNL     1       4.514  -0.150  -0.069  0.00  0.00    +0.168 HD
ENDBRANCH  16  25
ENDBRANCH   1  16
TORSDOF 4
