REMARK  Name = ZINC35057379
REMARK  9 active torsions:
REMARK  status: ('A' for Active; 'I' for Inactive)
REMARK    1  A    between atoms: C_1  and  C_2
REMARK    2  A    between atoms: C_2  and  C_4
REMARK    3  A    between atoms: C_2  and  O_7
REMARK    4  A    between atoms: O_7  and  C_8
REMARK    5  A    between atoms: C_10  and  N_37
REMARK    6  A    between atoms: C_12  and  S_29
REMARK    7  A    between atoms: C_20  and  C_24
REMARK    8  A    between atoms: S_29  and  C_30
REMARK    9  A    between atoms: C_38  and  C_40
REMARK                            x       y       z     vdW  Elec       q    Type
REMARK                         _______ _______ _______ _____ _____    ______ ____
ROOT
ATOM      1  C   UNL     1       0.030  -0.662   2.228  0.00  0.00    +0.174 C 
ATOM      2  C   UNL     1      -0.648  -2.018   2.462  0.00  0.00    +0.143 C 
ATOM      3  C   UNL     1      -1.488  -1.959   3.740  0.00  0.00    +0.203 C 
ATOM      4  O   UNL     1      -0.668  -1.568   4.846  0.00  0.00    -0.356 OA
ATOM      5  C   UNL     1      -0.076  -0.282   4.684  0.00  0.00    +0.177 C 
ATOM      6  C   UNL     1       0.856  -0.309   3.465  0.00  0.00    +0.183 C 
ATOM      7  O   UNL     1       1.469   0.973   3.327  0.00  0.00    -0.336 OA
ATOM      8  C   UNL     1       2.228   1.358   4.478  0.00  0.00    +0.319 C 
ATOM      9  O   UNL     1       1.392   1.368   5.637  0.00  0.00    -0.342 OA
ATOM     10  C   UNL     1       0.749   0.107   5.911  0.00  0.00    +0.197 C 
ENDROOT
BRANCH   8  11
ATOM     11  C   UNL     1       3.354   0.378   4.686  0.00  0.00    +0.161 A 
ATOM     12  C   UNL     1       4.265   0.424   5.674  0.00  0.00    +0.050 A 
ATOM     13  C   UNL     1       5.128  -0.681   5.487  0.00  0.00    +0.041 A 
ATOM     14  C   UNL     1       4.692  -1.336   4.396  0.00  0.00    +0.195 A 
ATOM     15  O   UNL     1       3.614  -0.693   3.918  0.00  0.00    -0.463 OA
ENDBRANCH   8  11
BRANCH   2  16
ATOM     16  N   UNL     1      -1.515  -2.332   1.324  0.00  0.00    -0.307 N 
ATOM     17  C   UNL     1      -1.764  -3.617   1.001  0.00  0.00    +0.210 C 
ATOM     18  O   UNL     1      -1.270  -4.513   1.653  0.00  0.00    -0.276 OA
ATOM     19  C   UNL     1      -2.656  -3.940  -0.170  0.00  0.00    +0.109 C 
ATOM     20  H   UNL     1      -1.910  -1.616   0.803  0.00  0.00    +0.149 HD
ENDBRANCH   2  16
BRANCH   1  21
ATOM     21  O   UNL     1       0.886  -0.745   1.086  0.00  0.00    -0.358 OA
BRANCH  21  23
ATOM     22  C   UNL     1       0.680   1.312  -0.165  0.00  0.00    +0.050 C 
ATOM     23  C   UNL     1       0.330  -0.176  -0.100  0.00  0.00    +0.228 C 
BRANCH  23  24
ATOM     24  C   UNL     1       0.896  -0.878  -1.308  0.00  0.00    +0.384 C 
ATOM     25  O   UNL     1       1.768  -1.718  -1.171  0.00  0.00    -0.243 OA
ATOM     26  O   UNL     1       0.482  -0.605  -2.421  0.00  0.00    -0.243 OA
ENDBRANCH  23  24
ENDBRANCH  21  23
ENDBRANCH   1  21
BRANCH   3  27
ATOM     27  S   UNL     1      -2.824  -0.751   3.527  0.00  0.00    -0.092 S 
BRANCH  27  28
ATOM     28  C   UNL     1      -3.776  -0.905   5.002  0.00  0.00    +0.010 A 
ATOM     29  C   UNL     1      -3.398  -1.813   5.983  0.00  0.00    +0.016 A 
ATOM     30  C   UNL     1      -4.146  -1.931   7.138  0.00  0.00    +0.021 A 
ATOM     31  C   UNL     1      -5.271  -1.146   7.318  0.00  0.00    +0.041 A 
ATOM     32  C   UNL     1      -5.651  -0.241   6.342  0.00  0.00    +0.021 A 
ATOM     33  C   UNL     1      -4.904  -0.114   5.188  0.00  0.00    +0.016 A 
ATOM     34 CL   UNL     1      -6.210  -1.298   8.771  0.00  0.00    -0.084 Cl
ENDBRANCH  27  28
ENDBRANCH   3  27
TORSDOF 7
