REMARK  Name = ZINC00244042
REMARK  5 active torsions:
REMARK  status: ('A' for Active; 'I' for Inactive)
REMARK    1  A    between atoms: C_3  and  C_9
REMARK    2  A    between atoms: C_4  and  O_8
REMARK    3  A    between atoms: C_6  and  O_7
REMARK    4  A    between atoms: N_10  and  C_11
REMARK    5  A    between atoms: C_12  and  C_19
REMARK                            x       y       z     vdW  Elec       q    Type
REMARK                         _______ _______ _______ _____ _____    ______ ____
ROOT
ATOM      1  C   UNL     1       3.646   2.168  -0.021  0.00  0.00    +0.123 C 
ATOM      2  N   UNL     1       4.789   1.530  -0.036  0.00  0.00    -0.246 NA
ENDROOT
BRANCH   2   3
ATOM      3  C   UNL     1       5.948   2.221  -0.044  0.00  0.00    +0.119 A 
ATOM      4  C   UNL     1       7.259   1.742  -0.065  0.00  0.00    +0.088 A 
ATOM      5  C   UNL     1       8.322   2.678  -0.069  0.00  0.00    -0.018 A 
ATOM      6  C   UNL     1       7.984   3.985  -0.049  0.00  0.00    -0.004 A 
ATOM      7  S   UNL     1       6.206   3.987  -0.038  0.00  0.00    -0.073 S 
ATOM      8  C   UNL     1       9.190   4.884  -0.048  0.00  0.00    +0.043 C 
ATOM      9  C   UNL     1      10.360   3.963   0.363  0.00  0.00    +0.010 C 
ATOM     10  C   UNL     1       9.851   2.583  -0.095  0.00  0.00    +0.037 C 
BRANCH   4  11
ATOM     11  C   UNL     1       7.524   0.335  -0.081  0.00  0.00    +0.102 C 
ATOM     12  N   UNL     1       7.733  -0.781  -0.093  0.00  0.00    -0.191 NA
ENDBRANCH   4  11
ENDBRANCH   2   3
BRANCH   1  15
ATOM     13  C   UNL     1      -0.017   1.387   0.010  0.00  0.00    +0.046 A 
ATOM     14  C   UNL     1       1.162   2.097   0.002  0.00  0.00    +0.016 A 
ATOM     15  C   UNL     1       2.386   1.417  -0.013  0.00  0.00    +0.035 A 
ATOM     16  C   UNL     1       2.402   0.011  -0.021  0.00  0.00    +0.129 A 
ATOM     17  C   UNL     1       1.209  -0.689  -0.013  0.00  0.00    +0.091 A 
ATOM     18  C   UNL     1       0.002  -0.004   0.002  0.00  0.00    +0.120 A 
BRANCH  18  19
ATOM     19  O   UNL     1      -1.166  -0.695   0.010  0.00  0.00    -0.507 OA
ATOM     20  H   UNL     1      -1.513  -0.891  -0.871  0.00  0.00    +0.292 HD
ENDBRANCH  18  19
BRANCH  16  21
ATOM     21  O   UNL     1       3.584  -0.657  -0.036  0.00  0.00    -0.506 OA
ATOM     22  H   UNL     1       3.935  -0.855   0.843  0.00  0.00    +0.292 HD
ENDBRANCH  16  21
ENDBRANCH   1  15
TORSDOF 5
