REMARK  Name = ZINC38609933
REMARK  10 active torsions:
REMARK  status: ('A' for Active; 'I' for Inactive)
REMARK    1  A    between atoms: C_1  and  C_2
REMARK    2  A    between atoms: C_2  and  C_4
REMARK    3  A    between atoms: C_2  and  N_22
REMARK    4  A    between atoms: N_6  and  C_7
REMARK    5  A    between atoms: C_15  and  C_17
REMARK    6  A    between atoms: C_17  and  O_19
REMARK    7  A    between atoms: O_19  and  C_20
REMARK    8  A    between atoms: N_25  and  C_28
REMARK    9  A    between atoms: C_33  and  O_34
REMARK   10  A    between atoms: O_34  and  C_35
REMARK                            x       y       z     vdW  Elec       q    Type
REMARK                         _______ _______ _______ _____ _____    ______ ____
ROOT
ATOM      1  C   UNL     1       0.463   0.377  -1.976  0.00  0.00    +0.203 C 
ATOM      2  O   UNL     1       1.359  -0.323  -1.557  0.00  0.00    -0.277 OA
ATOM      3  N   UNL     1       0.264   0.496  -3.304  0.00  0.00    -0.288 N 
ATOM      4  H   UNL     1      -0.417   1.099  -3.640  0.00  0.00    +0.155 HD
ENDROOT
BRANCH   3   5
ATOM      5  C   UNL     1       1.020  -0.231  -4.173  0.00  0.00    +0.053 C 
ATOM      6  C   UNL     1       0.856  -0.328  -5.544  0.00  0.00    +0.019 A 
ATOM      7  C   UNL     1      -0.079   0.250  -6.437  0.00  0.00    +0.026 A 
ATOM      8  C   UNL     1      -0.001  -0.027  -7.763  0.00  0.00    +0.019 A 
ATOM      9  C   UNL     1       0.984  -0.875  -8.278  0.00  0.00    +0.017 A 
ATOM     10  C   UNL     1       1.911  -1.462  -7.482  0.00  0.00    +0.027 A 
ATOM     11  C   UNL     1       1.895  -1.221  -6.084  0.00  0.00    +0.045 A 
ATOM     12  N   UNL     1       2.671  -1.663  -5.114  0.00  0.00    -0.367 N 
ATOM     13  C   UNL     1       2.216  -1.095  -3.841  0.00  0.00    +0.234 C 
ATOM     14 BR   UNL     1      -1.257   0.751  -8.943  0.00  0.00    -0.050 Br
ATOM     15  H   UNL     1       3.424  -2.264  -5.226  0.00  0.00    +0.161 HD
BRANCH  13  16
ATOM     16  C   UNL     1       3.307  -0.257  -3.224  0.00  0.00    +0.335 C 
ATOM     17  O   UNL     1       3.961   0.487  -3.916  0.00  0.00    -0.248 OA
BRANCH  16  18
ATOM     18  O   UNL     1       3.551  -0.337  -1.907  0.00  0.00    -0.466 OA
ATOM     19  C   UNL     1       4.598   0.485  -1.390  0.00  0.00    +0.280 C 
ENDBRANCH  16  18
ENDBRANCH  13  16
ENDBRANCH   3   5
BRANCH   1  21
ATOM     20  C   UNL     1       0.130   2.519  -0.771  0.00  0.00    -0.004 C 
ATOM     21  C   UNL     1      -0.430   1.116  -1.012  0.00  0.00    +0.017 C 
BRANCH  21  22
ATOM     22  N   UNL     1      -0.485   0.385   0.262  0.00  0.00    +0.389 N 
ATOM     23  C   UNL     1      -1.008  -0.966   0.026  0.00  0.00    -0.059 C 
ATOM     24  C   UNL     1      -0.959  -1.767   1.332  0.00  0.00    +0.086 C 
ATOM     25  N   UNL     1      -1.676  -1.010   2.370  0.00  0.00    -0.331 N 
ATOM     26  C   UNL     1      -1.326   0.406   2.562  0.00  0.00    +0.086 C 
ATOM     27  C   UNL     1      -1.358   1.104   1.199  0.00  0.00    -0.059 C 
ATOM     28  H   UNL     1       0.444   0.320   0.652  0.00  0.00    -0.081 HD
BRANCH  25  29
ATOM     29  C   UNL     1      -2.663  -1.620   3.153  0.00  0.00    +0.072 A 
ATOM     30  C   UNL     1      -2.321  -2.233   4.350  0.00  0.00    +0.027 A 
ATOM     31  C   UNL     1      -3.298  -2.834   5.121  0.00  0.00    +0.002 A 
ATOM     32  C   UNL     1      -4.616  -2.826   4.704  0.00  0.00    +0.004 A 
ATOM     33  C   UNL     1      -4.964  -2.217   3.512  0.00  0.00    +0.047 A 
ATOM     34  C   UNL     1      -3.992  -1.608   2.735  0.00  0.00    +0.141 A 
BRANCH  34  35
ATOM     35  O   UNL     1      -4.334  -1.004   1.566  0.00  0.00    -0.493 OA
ATOM     36  C   UNL     1      -5.715  -1.031   1.201  0.00  0.00    +0.277 C 
ENDBRANCH  34  35
ENDBRANCH  25  29
ENDBRANCH  21  22
ENDBRANCH   1  21
TORSDOF 7
