REMARK  Name = ZINC09820851
REMARK  5 active torsions:
REMARK  status: ('A' for Active; 'I' for Inactive)
REMARK    1  A    between atoms: C_1  and  C_2
REMARK    2  A    between atoms: C_3  and  C_11
REMARK    3  A    between atoms: C_7  and  N_8
REMARK    4  A    between atoms: C_21  and  C_23
REMARK    5  A    between atoms: N_25  and  C_26
REMARK                            x       y       z     vdW  Elec       q    Type
REMARK                         _______ _______ _______ _____ _____    ______ ____
ROOT
ATOM      1  C   UNL     1       1.621   2.968  -0.013  0.00  0.00    +0.252 C 
ATOM      2  O   UNL     1       1.950   1.806   0.125  0.00  0.00    -0.270 OA
ATOM      3  N   UNL     1       0.321   3.284  -0.182  0.00  0.00    -0.255 N 
ATOM      4  C   UNL     1      -0.718   2.359  -0.310  0.00  0.00    +0.041 A 
ATOM      5  C   UNL     1      -0.669   0.963  -0.284  0.00  0.00    +0.024 A 
ATOM      6  C   UNL     1      -1.824   0.225  -0.424  0.00  0.00    +0.002 A 
ATOM      7  C   UNL     1      -3.042   0.860  -0.586  0.00  0.00    +0.000 A 
ATOM      8  C   UNL     1      -3.099   2.241  -0.608  0.00  0.00    +0.005 A 
ATOM      9  C   UNL     1      -1.944   2.986  -0.468  0.00  0.00    -0.024 A 
ATOM     10  C   UNL     1      -1.724   4.482  -0.455  0.00  0.00    +0.069 C 
ATOM     11  C   UNL     1      -0.208   4.648  -0.263  0.00  0.00    +0.172 C 
ENDROOT
BRANCH   1  14
ATOM     12  C   UNL     1       3.598   3.021   2.099  0.00  0.00    +0.047 C 
ATOM     13  C   UNL     1       3.603   4.070   1.017  0.00  0.00    -0.008 A 
ATOM     14  C   UNL     1       2.644   4.034   0.003  0.00  0.00    +0.042 A 
ATOM     15  C   UNL     1       2.656   5.010  -0.995  0.00  0.00    +0.013 A 
ATOM     16  C   UNL     1       3.614   6.003  -0.974  0.00  0.00    +0.003 A 
ATOM     17  C   UNL     1       4.562   6.032   0.034  0.00  0.00    +0.033 A 
ATOM     18  C   UNL     1       4.556   5.067   1.026  0.00  0.00    +0.130 A 
BRANCH  18  19
ATOM     19  N   UNL     1       5.574   5.106   2.100  0.00  0.00    +0.057 N 
ATOM     20  O   UNL     1       6.493   5.903   2.039  0.00  0.00    -0.126 OA
ATOM     21  O   UNL     1       5.493   4.341   3.044  0.00  0.00    -0.126 OA
ENDBRANCH  18  19
ENDBRANCH   1  14
BRANCH  11  22
ATOM     22  C   UNL     1       0.079   5.397   1.012  0.00  0.00    +0.234 C 
ATOM     23  O   UNL     1       0.672   4.849   1.917  0.00  0.00    -0.274 OA
ATOM     24  N   UNL     1      -0.324   6.676   1.148  0.00  0.00    -0.317 N 
ATOM     25  C   UNL     1      -0.045   7.404   2.389  0.00  0.00    +0.128 C 
ATOM     26  H   UNL     1      -0.799   7.114   0.425  0.00  0.00    +0.148 HD
ENDBRANCH  11  22
TORSDOF 3
