REMARK  Name = ZINC63020356
REMARK  6 active torsions:
REMARK  status: ('A' for Active; 'I' for Inactive)
REMARK    1  A    between atoms: C_1  and  C_2
REMARK    2  A    between atoms: C_2  and  C_3
REMARK    3  A    between atoms: C_2  and  C_4
REMARK    4  A    between atoms: C_2  and  N_6
REMARK    5  A    between atoms: C_4  and  N_5
REMARK    6  A    between atoms: C_7  and  C_9
REMARK                            x       y       z     vdW  Elec       q    Type
REMARK                         _______ _______ _______ _____ _____    ______ ____
ROOT
ATOM      1  N   UNL     1       0.688  -0.476  -1.203  0.00  0.00    -0.312 N 
ATOM      2  C   UNL     1       1.972  -0.132  -1.427  0.00  0.00    +0.220 C 
ATOM      3  O   UNL     1       2.559   0.569  -0.630  0.00  0.00    -0.275 OA
ATOM      4  H   UNL     1       0.218  -1.037  -1.840  0.00  0.00    +0.149 HD
ENDROOT
BRANCH   2   5
ATOM      5  C   UNL     1       2.677  -0.618  -2.667  0.00  0.00    +0.048 C 
ATOM      6  C   UNL     1       2.698  -2.148  -2.675  0.00  0.00    +0.019 C 
ATOM      7  C   UNL     1       3.414  -2.642  -3.934  0.00  0.00    -0.009 C 
ATOM      8  C   UNL     1       4.849  -2.112  -3.945  0.00  0.00    +0.007 C 
ATOM      9  C   UNL     1       4.828  -0.582  -3.937  0.00  0.00    -0.009 C 
ATOM     10  C   UNL     1       4.112  -0.089  -2.678  0.00  0.00    +0.019 C 
ATOM     11  C   UNL     1       4.088  -0.075  -5.176  0.00  0.00    +0.007 C 
ATOM     12  C   UNL     1       2.653  -0.605  -5.165  0.00  0.00    -0.009 C 
ATOM     13  C   UNL     1       2.674  -2.135  -5.174  0.00  0.00    +0.007 C 
ATOM     14  C   UNL     1       1.937  -0.111  -3.906  0.00  0.00    +0.019 C 
ENDBRANCH   2   5
BRANCH   1  16
ATOM     15  C   UNL     1      -0.019   1.526   0.010  0.00  0.00    +0.029 C 
ATOM     16  C   UNL     1       0.002  -0.004   0.002  0.00  0.00    +0.013 C 
ATOM     17  C   UNL     1       0.742  -0.511   1.242  0.00  0.00    +0.029 C 
BRANCH  16  18
ATOM     18  C   UNL     1      -1.433  -0.534   0.013  0.00  0.00    -0.061 C 
BRANCH  18  19
ATOM     19  N   UNL     1      -1.413  -2.002   0.005  0.00  0.00    +0.379 N 
ATOM     20  H   UNL     1      -0.941  -2.328  -0.825  0.00  0.00    -0.090 HD
ATOM     21  H   UNL     1      -0.925  -2.337   0.822  0.00  0.00    -0.090 HD
ATOM     22  H   UNL     1      -2.360  -2.352   0.012  0.00  0.00    -0.090 HD
ENDBRANCH  18  19
ENDBRANCH  16  18
ENDBRANCH   1  16
TORSDOF 4
