REMARK  Name = ZINC63384844
REMARK  10 active torsions:
REMARK  status: ('A' for Active; 'I' for Inactive)
REMARK    1  A    between atoms: C_1  and  C_2
REMARK    2  A    between atoms: C_2  and  C_38
REMARK    3  A    between atoms: C_8  and  O_19
REMARK    4  A    between atoms: O_19  and  C_20
REMARK    5  A    between atoms: C_20  and  C_21
REMARK    6  A    between atoms: N_23  and  C_24
REMARK    7  A    between atoms: C_24  and  C_25
REMARK    8  A    between atoms: C_25  and  C_26
REMARK    9  A    between atoms: C_29  and  O_35
REMARK   10  A    between atoms: O_35  and  C_36
REMARK                            x       y       z     vdW  Elec       q    Type
REMARK                         _______ _______ _______ _____ _____    ______ ____
ROOT
ATOM      1  C   UNL     1      -0.019   1.526   0.010  0.00  0.00    +0.055 C 
ATOM      2  C   UNL     1       0.002  -0.004   0.002  0.00  0.00    +0.105 C 
ATOM      3  C   UNL     1       0.743  -0.504  -1.245  0.00  0.00    +0.052 C 
ATOM      4  C   UNL     1       2.132   0.138  -1.266  0.00  0.00    +0.046 C 
ATOM      5  C   UNL     1       2.781  -0.008   0.088  0.00  0.00    +0.038 A 
ATOM      6  C   UNL     1       2.036  -0.301   1.217  0.00  0.00    +0.131 A 
ATOM      7  C   UNL     1       2.662  -0.424   2.459  0.00  0.00    +0.092 A 
ATOM      8  C   UNL     1       4.026  -0.263   2.578  0.00  0.00    +0.136 A 
ATOM      9  C   UNL     1       4.791   0.028   1.434  0.00  0.00    +0.063 A 
ATOM     10  C   UNL     1       4.156   0.158   0.187  0.00  0.00    +0.149 A 
ATOM     11  O   UNL     1       4.888   0.443  -0.913  0.00  0.00    -0.421 OA
ATOM     12  C   UNL     1       6.219   0.602  -0.832  0.00  0.00    +0.341 A 
ATOM     13  O   UNL     1       6.853   0.861  -1.841  0.00  0.00    -0.245 OA
ATOM     14  C   UNL     1       6.899   0.477   0.399  0.00  0.00    +0.041 A 
ATOM     15  C   UNL     1       6.198   0.193   1.526  0.00  0.00    -0.023 A 
ATOM     16  C   UNL     1       7.128   0.105   2.715  0.00  0.00    +0.037 C 
ATOM     17  C   UNL     1       8.539  -0.054   2.108  0.00  0.00    +0.010 C 
ATOM     18  C   UNL     1       8.371   0.610   0.724  0.00  0.00    +0.043 C 
ATOM     19  O   UNL     1       0.692  -0.482   1.157  0.00  0.00    -0.486 OA
ATOM     20  C   UNL     1      -1.431  -0.539  -0.001  0.00  0.00    +0.055 C 
ENDROOT
BRANCH   8  21
ATOM     21  O   UNL     1       4.626  -0.383   3.789  0.00  0.00    -0.482 OA
BRANCH  21  22
ATOM     22  C   UNL     1       3.783  -0.679   4.904  0.00  0.00    +0.324 C 
BRANCH  22  23
ATOM     23  C   UNL     1       4.618  -0.775   6.154  0.00  0.00    +0.251 C 
ATOM     24  O   UNL     1       5.818  -0.606   6.096  0.00  0.00    -0.272 OA
ATOM     25  N   UNL     1       4.033  -1.048   7.337  0.00  0.00    -0.312 N 
ATOM     26  H   UNL     1       3.073  -1.183   7.383  0.00  0.00    +0.149 HD
BRANCH  25  27
ATOM     27  C   UNL     1       4.845  -1.141   8.553  0.00  0.00    +0.108 C 
BRANCH  27  28
ATOM     28  C   UNL     1       3.942  -1.458   9.746  0.00  0.00    +0.052 C 
BRANCH  28  29
ATOM     29  C   UNL     1       4.778  -1.553  10.997  0.00  0.00    -0.040 C 
ATOM     30  C   UNL     1       5.007  -0.572  11.898  0.00  0.00    +0.002 A 
ATOM     31  C   UNL     1       4.566   0.824  11.983  0.00  0.00    +0.055 A 
ATOM     32  C   UNL     1       4.965   1.588  13.029  0.00  0.00    +0.121 A 
ATOM     33  C   UNL     1       5.796   1.090  14.048  0.00  0.00    +0.047 A 
ATOM     34  C   UNL     1       6.253  -0.181  14.057  0.00  0.00    +0.029 A 
ATOM     35  C   UNL     1       5.882  -1.096  12.973  0.00  0.00    +0.043 A 
ATOM     36  N   UNL     1       6.181  -2.350  12.744  0.00  0.00    -0.380 N 
ATOM     37  C   UNL     1       5.525  -2.768  11.501  0.00  0.00    +0.144 C 
ATOM     38  H   UNL     1       6.741  -2.910  13.305  0.00  0.00    +0.160 HD
BRANCH  32  39
ATOM     39  O   UNL     1       4.549   2.880  13.094  0.00  0.00    -0.495 OA
ATOM     40  C   UNL     1       4.995   3.649  14.213  0.00  0.00    +0.277 C 
ENDBRANCH  32  39
ENDBRANCH  28  29
ENDBRANCH  27  28
ENDBRANCH  25  27
ENDBRANCH  22  23
ENDBRANCH  21  22
ENDBRANCH   8  21
TORSDOF 7
