REMARK  Name = ZINC65357179
REMARK  10 active torsions:
REMARK  status: ('A' for Active; 'I' for Inactive)
REMARK    1  A    between atoms: C_1  and  C_2
REMARK    2  A    between atoms: C_2  and  C_4
REMARK    3  A    between atoms: C_2  and  N_15
REMARK    4  A    between atoms: C_4  and  C_5
REMARK    5  A    between atoms: C_8  and  O_13
REMARK    6  A    between atoms: C_9  and  O_11
REMARK    7  A    between atoms: O_11  and  C_12
REMARK    8  A    between atoms: O_13  and  C_14
REMARK    9  A    between atoms: N_15  and  C_16
REMARK   10  A    between atoms: C_24  and  N_31
REMARK                            x       y       z     vdW  Elec       q    Type
REMARK                         _______ _______ _______ _____ _____    ______ ____
ROOT
ATOM      1  C   UNL     1      -0.086  -0.093  -2.394  0.00  0.00    -0.045 C 
ATOM      2  C   UNL     1      -1.430  -0.828  -2.391  0.00  0.00    -0.013 C 
ATOM      3  C   UNL     1      -2.315  -0.368  -3.548  0.00  0.00    +0.003 C 
ATOM      4  C   UNL     1      -1.657  -0.725  -4.892  0.00  0.00    +0.033 C 
ATOM      5  C   UNL     1      -0.245  -0.198  -4.834  0.00  0.00    -0.040 C 
ATOM      6  C   UNL     1       0.446   0.565  -5.671  0.00  0.00    +0.001 A 
ATOM      7  C   UNL     1       0.135   1.079  -7.014  0.00  0.00    +0.042 A 
ATOM      8  C   UNL     1       1.081   1.869  -7.588  0.00  0.00    +0.127 A 
ATOM      9  C   UNL     1       2.292   2.194  -6.968  0.00  0.00    +0.035 A 
ATOM     10  C   UNL     1       2.664   1.758  -5.738  0.00  0.00    +0.028 A 
ATOM     11  C   UNL     1       1.756   0.912  -5.038  0.00  0.00    +0.043 A 
ATOM     12  N   UNL     1       1.865   0.339  -3.876  0.00  0.00    -0.379 N 
ATOM     13  C   UNL     1       0.682  -0.484  -3.658  0.00  0.00    +0.092 C 
ATOM     14  H   UNL     1       2.607   0.443  -3.260  0.00  0.00    +0.160 HD
ENDROOT
BRANCH   1  15
ATOM     15  N   UNL     1       0.690  -0.478  -1.207  0.00  0.00    +0.384 N 
ATOM     16  H   UNL     1       1.608  -0.063  -1.256  0.00  0.00    -0.085 HD
ATOM     17  H   UNL     1       0.776  -1.482  -1.172  0.00  0.00    -0.085 HD
BRANCH  15  19
ATOM     18  C   UNL     1      -0.019   1.526   0.010  0.00  0.00    -0.013 C 
ATOM     19  C   UNL     1       0.002  -0.004   0.002  0.00  0.00    -0.070 C 
BRANCH  19  20
ATOM     20  C   UNL     1       0.742  -0.511   1.242  0.00  0.00    +0.019 C 
BRANCH  20  21
ATOM     21  C   UNL     1       0.657  -2.014   1.298  0.00  0.00    -0.045 A 
ATOM     22  C   UNL     1      -0.397  -2.621   1.956  0.00  0.00    +0.007 A 
ATOM     23  C   UNL     1      -0.480  -4.000   2.010  0.00  0.00    +0.049 A 
ATOM     24  C   UNL     1       0.494  -4.777   1.404  0.00  0.00    +0.161 A 
ATOM     25  C   UNL     1       1.555  -4.166   0.741  0.00  0.00    +0.162 A 
ATOM     26  C   UNL     1       1.629  -2.784   0.686  0.00  0.00    +0.053 A 
BRANCH  25  27
ATOM     27  O   UNL     1       2.513  -4.925   0.145  0.00  0.00    -0.491 OA
ATOM     28  C   UNL     1       3.572  -4.229  -0.517  0.00  0.00    +0.277 C 
ENDBRANCH  25  27
BRANCH  24  29
ATOM     29  O   UNL     1       0.415  -6.134   1.457  0.00  0.00    -0.491 OA
ATOM     30  C   UNL     1      -0.701  -6.691   2.155  0.00  0.00    +0.277 C 
ENDBRANCH  24  29
ENDBRANCH  20  21
ENDBRANCH  19  20
ENDBRANCH  15  19
ENDBRANCH   1  15
BRANCH   8  31
ATOM     31  N   UNL     1       0.817   2.411  -8.940  0.00  0.00    +0.056 N 
ATOM     32  O   UNL     1      -0.219   2.148  -9.505  0.00  0.00    -0.126 OA
ATOM     33  O   UNL     1       1.638   3.116  -9.479  0.00  0.00    -0.126 OA
ENDBRANCH   8  31
TORSDOF 7
