REMARK  Name = ZINC39024688
REMARK  6 active torsions:
REMARK  status: ('A' for Active; 'I' for Inactive)
REMARK    1  A    between atoms: C_1  and  C_2
REMARK    2  A    between atoms: C_5  and  C_34
REMARK    3  A    between atoms: C_6  and  N_8
REMARK    4  A    between atoms: C_9  and  O_33
REMARK    5  A    between atoms: C_12  and  O_32
REMARK    6  A    between atoms: C_13  and  C_17
REMARK                            x       y       z     vdW  Elec       q    Type
REMARK                         _______ _______ _______ _____ _____    ______ ____
ROOT
ATOM      1  N   UNL     1       0.240  -2.857   2.494  0.00  0.00    -0.225 N 
ATOM      2  C   UNL     1       1.458  -3.292   3.162  0.00  0.00    +0.338 C 
ATOM      3  N   UNL     1       1.217  -4.397   4.075  0.00  0.00    -0.204 NA
ATOM      4  C   UNL     1       0.074  -4.692   4.559  0.00  0.00    +0.200 C 
ATOM      5  C   UNL     1      -1.172  -3.921   4.234  0.00  0.00    +0.183 C 
ATOM      6  C   UNL     1      -0.981  -3.122   2.976  0.00  0.00    +0.237 C 
ATOM      7  O   UNL     1      -1.955  -2.712   2.381  0.00  0.00    -0.274 OA
ENDROOT
BRANCH   5   8
ATOM      8  C   UNL     1      -1.492  -2.966   5.386  0.00  0.00    +0.122 C 
ATOM      9  C   UNL     1      -2.807  -2.272   5.119  0.00  0.00    +0.039 A 
ATOM     10  H   UNL     1      -4.074  -3.774   4.427  0.00  0.00    +0.166 HD
ATOM     11  C   UNL     1      -2.996  -0.949   5.326  0.00  0.00    -0.016 A 
ATOM     12  C   UNL     1      -4.363  -0.651   4.962  0.00  0.00    +0.003 A 
ATOM     13  C   UNL     1      -5.112   0.530   4.966  0.00  0.00    +0.010 A 
ATOM     14  C   UNL     1      -6.416   0.440   4.543  0.00  0.00    +0.001 A 
ATOM     15  C   UNL     1      -6.974  -0.758   4.130  0.00  0.00    +0.002 A 
ATOM     16  C   UNL     1      -6.257  -1.942   4.115  0.00  0.00    +0.026 A 
ATOM     17  C   UNL     1      -4.931  -1.881   4.539  0.00  0.00    +0.047 A 
ATOM     18  N   UNL     1      -3.961  -2.837   4.649  0.00  0.00    -0.356 N 
ATOM     19  C   UNL     1      -1.923  -0.026   5.847  0.00  0.00    +0.052 C 
ATOM     20  C   UNL     1      -0.805  -0.890   6.445  0.00  0.00    +0.086 C 
ATOM     21  N   UNL     1      -0.435  -1.948   5.493  0.00  0.00    -0.307 NA
ATOM     22  H   UNL     1       0.448  -2.369   5.740  0.00  0.00    +0.123 HD
ENDBRANCH   5   8
BRANCH   1  28
ATOM     23  C   UNL     1       0.625   1.479   0.209  0.00  0.00    +0.044 C 
ATOM     24  C   UNL     1       0.537  -0.025   0.168  0.00  0.00    -0.049 A 
ATOM     25  C   UNL     1       0.565  -0.686  -1.046  0.00  0.00    +0.004 A 
ATOM     26  C   UNL     1       0.485  -2.066  -1.088  0.00  0.00    +0.005 A 
ATOM     27  C   UNL     1       0.377  -2.788   0.084  0.00  0.00    -0.029 A 
ATOM     28  C   UNL     1       0.349  -2.128   1.305  0.00  0.00    +0.044 A 
ATOM     29  C   UNL     1       0.435  -0.742   1.344  0.00  0.00    +0.027 A 
ATOM     30  C   UNL     1       0.290  -4.292   0.038  0.00  0.00    +0.045 C 
ENDBRANCH   1  28
BRANCH   4  31
ATOM     31  O   UNL     1      -0.019  -5.742   5.401  0.00  0.00    -0.495 OA
ATOM     32  H   UNL     1       0.822  -6.191   5.564  0.00  0.00    +0.293 HD
ENDBRANCH   4  31
BRANCH   2  33
ATOM     33  O   UNL     1       2.002  -2.195   3.898  0.00  0.00    -0.356 OA
ATOM     34  H   UNL     1       2.817  -2.405   4.372  0.00  0.00    +0.214 HD
ENDBRANCH   2  33
TORSDOF 4
