REMARK  Name = ZINC39710378
REMARK  9 active torsions:
REMARK  status: ('A' for Active; 'I' for Inactive)
REMARK    1  A    between atoms: C_1  and  C_2
REMARK    2  A    between atoms: C_2  and  C_3
REMARK    3  A    between atoms: C_10  and  C_15
REMARK    4  A    between atoms: C_15  and  C_17
REMARK    5  A    between atoms: C_15  and  N_27
REMARK    6  A    between atoms: N_22  and  C_23
REMARK    7  A    between atoms: C_23  and  C_24
REMARK    8  A    between atoms: C_23  and  C_25
REMARK    9  A    between atoms: C_23  and  C_26
REMARK                            x       y       z     vdW  Elec       q    Type
REMARK                         _______ _______ _______ _____ _____    ______ ____
ROOT
ATOM      1  C   UNL     1       5.521  -3.437  -3.299  0.00  0.00    -0.009 C 
ENDROOT
BRANCH   1   9
ATOM      2  C   UNL     1       4.995   0.337  -7.718  0.00  0.00    -0.047 A 
ATOM      3  C   UNL     1       6.107   1.064  -7.293  0.00  0.00    +0.005 A 
ATOM      4  C   UNL     1       6.679   0.883  -6.074  0.00  0.00    +0.024 A 
ATOM      5  C   UNL     1       6.159  -0.067  -5.175  0.00  0.00    +0.040 A 
ATOM      6  N   UNL     1       6.728  -0.236  -3.982  0.00  0.00    -0.285 N 
ATOM      7  C   UNL     1       6.291  -1.111  -3.091  0.00  0.00    +0.223 C 
ATOM      8  O   UNL     1       6.852  -1.220  -2.017  0.00  0.00    -0.275 OA
ATOM      9  C   UNL     1       5.091  -1.973  -3.412  0.00  0.00    +0.088 C 
ATOM     10  C   UNL     1       4.440  -1.784  -4.768  0.00  0.00    -0.006 C 
ATOM     11  C   UNL     1       4.984  -0.849  -5.598  0.00  0.00    -0.007 A 
ATOM     12  C   UNL     1       4.415  -0.599  -6.923  0.00  0.00    +0.013 A 
ATOM     13  H   UNL     1       7.499   0.307  -3.756  0.00  0.00    +0.155 HD
BRANCH   2  15
ATOM     14  C   UNL     1       3.360   1.699  -8.991  0.00  0.00    +0.009 C 
ATOM     15  C   UNL     1       4.420   0.601  -9.086  0.00  0.00    +0.032 C 
ENDBRANCH   2  15
ENDBRANCH   1   9
BRANCH   1  16
ATOM     16  N   UNL     1       6.284  -3.817  -4.495  0.00  0.00    +0.388 N 
ATOM     17  C   UNL     1       5.438  -3.660  -5.688  0.00  0.00    -0.073 C 
ATOM     18  C   UNL     1       6.324  -3.759  -6.931  0.00  0.00    +0.017 C 
ATOM     19  C   UNL     1       7.174  -5.002  -6.852  0.00  0.00    -0.048 A 
ATOM     20  C   UNL     1       7.785  -5.463  -8.008  0.00  0.00    +0.004 A 
ATOM     21  C   UNL     1       8.573  -6.596  -7.974  0.00  0.00    +0.000 A 
ATOM     22  C   UNL     1       8.755  -7.273  -6.782  0.00  0.00    +0.000 A 
ATOM     23  C   UNL     1       8.146  -6.814  -5.632  0.00  0.00    +0.002 A 
ATOM     24  C   UNL     1       7.352  -5.677  -5.664  0.00  0.00    -0.061 A 
ATOM     25  C   UNL     1       6.700  -5.218  -4.386  0.00  0.00    -0.042 C 
ATOM     26  H   UNL     1       7.099  -3.228  -4.577  0.00  0.00    -0.081 HD
ENDBRANCH   1  16
BRANCH   1  27
ATOM     27  C   UNL     1       6.397  -3.616  -2.057  0.00  0.00    +0.205 C 
ATOM     28  N   UNL     1       6.636  -5.043  -1.800  0.00  0.00    -0.152 NA
ATOM     29  N   UNL     1       6.172  -5.332  -0.695  0.00  0.00    -0.070 NA
ATOM     30  N   UNL     1       5.582  -4.244  -0.053  0.00  0.00    -0.179 N 
ATOM     31  N   UNL     1       5.690  -3.133  -0.853  0.00  0.00    -0.183 NA
ATOM     32  H   UNL     1       5.162  -4.268   0.822  0.00  0.00    +0.191 HD
BRANCH  31  33
ATOM     33  C   UNL     1       4.364  -2.602  -1.198  0.00  0.00    +0.035 C 
ATOM     34  C   UNL     1       3.800  -3.374  -2.392  0.00  0.00    +0.029 C 
ATOM     35  C   UNL     1       3.425  -2.757  -0.000  0.00  0.00    +0.029 C 
ATOM     36  C   UNL     1       4.488  -1.121  -1.561  0.00  0.00    +0.029 C 
ENDBRANCH  31  33
ENDBRANCH   1  27
TORSDOF 5
