REMARK  Name = ZINC66194835
REMARK  8 active torsions:
REMARK  status: ('A' for Active; 'I' for Inactive)
REMARK    1  A    between atoms: C_1  and  C_2
REMARK    2  A    between atoms: C_4  and  C_7
REMARK    3  A    between atoms: C_7  and  C_9
REMARK    4  A    between atoms: C_7  and  N_10
REMARK    5  A    between atoms: N_13  and  C_14
REMARK    6  A    between atoms: N_13  and  C_15
REMARK    7  A    between atoms: N_18  and  C_21
REMARK    8  A    between atoms: C_24  and  C_27
REMARK                            x       y       z     vdW  Elec       q    Type
REMARK                         _______ _______ _______ _____ _____    ______ ____
ROOT
ATOM      1  N   UNL     1      -0.923  -4.213  -1.241  0.00  0.00    -0.288 N 
ATOM      2  C   UNL     1      -1.464  -5.077  -2.122  0.00  0.00    +0.303 C 
ATOM      3  O   UNL     1      -1.155  -5.021  -3.297  0.00  0.00    -0.253 OA
ATOM      4  N   UNL     1      -2.348  -6.003  -1.702  0.00  0.00    -0.286 N 
ATOM      5  C   UNL     1      -2.721  -6.072  -0.287  0.00  0.00    +0.134 C 
ATOM      6  H   UNL     1      -1.170  -4.258  -0.304  0.00  0.00    +0.151 HD
ENDROOT
BRANCH   4   7
ATOM      7  C   UNL     1      -2.937  -6.943  -2.660  0.00  0.00    +0.074 C 
ATOM      8  C   UNL     1      -4.460  -6.783  -2.664  0.00  0.00    +0.004 C 
ATOM      9  C   UNL     1      -5.073  -7.821  -3.608  0.00  0.00    -0.077 C 
ATOM     10  N   UNL     1      -4.722  -9.171  -3.151  0.00  0.00    +0.382 N 
ATOM     11  C   UNL     1      -3.267  -9.355  -3.213  0.00  0.00    -0.077 C 
ATOM     12  C   UNL     1      -2.584  -8.377  -2.255  0.00  0.00    +0.004 C 
ATOM     13  H   UNL     1      -5.035  -9.295  -2.200  0.00  0.00    -0.081 HD
BRANCH  10  14
ATOM     14  C   UNL     1      -5.376 -10.163  -4.014  0.00  0.00    -0.069 C 
ATOM     15  C   UNL     1      -6.894  -9.979  -3.943  0.00  0.00    -0.015 C 
ATOM     16  C   UNL     1      -7.575 -11.013  -4.842  0.00  0.00    +0.002 C 
ATOM     17  C   UNL     1      -7.210 -12.421  -4.367  0.00  0.00    -0.014 C 
ATOM     18  C   UNL     1      -5.693 -12.605  -4.438  0.00  0.00    +0.002 C 
ATOM     19  C   UNL     1      -5.011 -11.571  -3.539  0.00  0.00    -0.015 C 
ATOM     20  C   UNL     1      -7.680 -12.610  -2.924  0.00  0.00    +0.007 C 
ENDBRANCH  10  14
ENDBRANCH   4   7
BRANCH   1  21
ATOM     21  C   UNL     1       0.038  -3.206  -1.697  0.00  0.00    +0.160 C 
ATOM     22  C   UNL     1       1.439  -3.818  -1.734  0.00  0.00    +0.038 C 
BRANCH  21  26
ATOM     23  C   UNL     1      -0.018   1.503   0.010  0.00  0.00    +0.091 C 
ATOM     24  C   UNL     1       0.002  -0.004   0.002  0.00  0.00    +0.169 A 
ATOM     25  N   UNL     1       0.008  -0.776  -1.091  0.00  0.00    -0.195 NA
ATOM     26  C   UNL     1       0.026  -2.034  -0.750  0.00  0.00    +0.247 A 
ATOM     27  O   UNL     1       0.033  -2.107   0.587  0.00  0.00    -0.336 OA
ATOM     28  N   UNL     1       0.023  -0.767   1.057  0.00  0.00    -0.062 NA
ENDBRANCH  21  26
ENDBRANCH   1  21
TORSDOF 4
