REMARK  Name = ZINC13777905
REMARK  8 active torsions:
REMARK  status: ('A' for Active; 'I' for Inactive)
REMARK    1  A    between atoms: C_1  and  C_2
REMARK    2  A    between atoms: N_4  and  C_5
REMARK    3  A    between atoms: C_5  and  C_6
REMARK    4  A    between atoms: C_6  and  C_7
REMARK    5  A    between atoms: N_9  and  C_10
REMARK    6  A    between atoms: C_14  and  S_16
REMARK    7  A    between atoms: S_16  and  N_19
REMARK    8  A    between atoms: N_19  and  C_20
REMARK                            x       y       z     vdW  Elec       q    Type
REMARK                         _______ _______ _______ _____ _____    ______ ____
ROOT
ATOM      1  C   UNL     1      -1.354   1.822   0.374  0.00  0.00    +0.035 A 
ATOM      2  C   UNL     1      -1.388   3.210   0.373  0.00  0.00    +0.025 A 
ATOM      3  C   UNL     1      -2.601   3.869   0.329  0.00  0.00    +0.024 A 
ATOM      4  C   UNL     1      -3.782   3.148   0.298  0.00  0.00    +0.068 A 
ATOM      5  C   UNL     1      -3.750   1.765   0.305  0.00  0.00    +0.128 A 
ATOM      6  C   UNL     1      -2.540   1.100   0.342  0.00  0.00    +0.053 A 
ATOM      7 CL   UNL     1      -5.304   3.980   0.251  0.00  0.00    -0.082 Cl
ENDROOT
BRANCH   1  10
ATOM      8  C   UNL     1       0.028  -0.012  -0.253  0.00  0.00    +0.219 C 
ATOM      9  O   UNL     1      -0.920  -0.519  -0.815  0.00  0.00    -0.275 OA
ATOM     10  N   UNL     1      -0.126   1.151   0.411  0.00  0.00    -0.285 N 
ATOM     11  H   UNL     1       0.613   1.521   0.919  0.00  0.00    +0.155 HD
BRANCH   8  12
ATOM     12  C   UNL     1       1.377  -0.681  -0.298  0.00  0.00    +0.115 C 
BRANCH  12  13
ATOM     13  C   UNL     1       1.278  -1.974  -1.110  0.00  0.00    +0.113 C 
BRANCH  13  17
ATOM     14  C   UNL     1       4.092  -4.457  -1.863  0.00  0.00    +0.109 C 
ATOM     15  C   UNL     1       2.743  -3.788  -1.818  0.00  0.00    +0.210 C 
ATOM     16  O   UNL     1       1.795  -4.295  -2.380  0.00  0.00    -0.276 OA
ATOM     17  N   UNL     1       2.590  -2.625  -1.153  0.00  0.00    -0.315 N 
ATOM     18  H   UNL     1       3.347  -2.220  -0.704  0.00  0.00    +0.149 HD
ENDBRANCH  13  17
ENDBRANCH  12  13
ENDBRANCH   8  12
ENDBRANCH   1  10
BRANCH   5  19
ATOM     19  S   UNL     1      -5.256   0.850   0.265  0.00  0.00    +0.074 S 
ATOM     20  O   UNL     1      -6.032   1.391  -0.795  0.00  0.00    -0.150 OA
ATOM     21  O   UNL     1      -4.898  -0.524   0.323  0.00  0.00    -0.150 OA
BRANCH  19  22
ATOM     22  N   UNL     1      -6.070   1.186   1.668  0.00  0.00    -0.216 N 
ATOM     23  H   UNL     1      -6.921   1.649   1.635  0.00  0.00    +0.174 HD
BRANCH  22  24
ATOM     24  C   UNL     1      -5.530   0.802   2.898  0.00  0.00    +0.048 A 
ATOM     25  C   UNL     1      -5.013  -0.477   3.062  0.00  0.00    +0.026 A 
ATOM     26  C   UNL     1      -4.474  -0.851   4.278  0.00  0.00    +0.022 A 
ATOM     27  C   UNL     1      -4.461   0.042   5.335  0.00  0.00    +0.041 A 
ATOM     28  C   UNL     1      -4.981   1.314   5.176  0.00  0.00    +0.022 A 
ATOM     29  C   UNL     1      -5.515   1.696   3.961  0.00  0.00    +0.026 A 
ATOM     30 CL   UNL     1      -3.790  -0.435   6.863  0.00  0.00    -0.084 Cl
ENDBRANCH  22  24
ENDBRANCH  19  22
ENDBRANCH   5  19
TORSDOF 7
