REMARK  Name = ZINC15227520
REMARK  4 active torsions:
REMARK  status: ('A' for Active; 'I' for Inactive)
REMARK    1  A    between atoms: C_1  and  C_2
REMARK    2  A    between atoms: C_4  and  C_16
REMARK    3  A    between atoms: C_5  and  C_15
REMARK    4  A    between atoms: N_6  and  C_7
REMARK                            x       y       z     vdW  Elec       q    Type
REMARK                         _______ _______ _______ _____ _____    ______ ____
ROOT
ATOM      1  C   UNL     1       3.635   0.626  -0.029  0.00  0.00    +0.064 C 
ATOM      2  C   UNL     1       2.129   0.679  -0.015  0.00  0.00    +0.022 A 
ATOM      3  C   UNL     1       1.389   1.801  -0.002  0.00  0.00    +0.031 A 
ATOM      4  C   UNL     1      -0.017   1.376   0.010  0.00  0.00    -0.003 A 
ATOM      5  C   UNL     1       0.002  -0.004   0.002  0.00  0.00    +0.028 A 
ATOM      6  N   UNL     1       1.299  -0.406  -0.013  0.00  0.00    -0.317 N 
ATOM      7  C   UNL     1      -1.205  -0.906   0.009  0.00  0.00    +0.064 C 
ENDROOT
BRANCH   4   8
ATOM      8  C   UNL     1      -1.200   2.243   0.020  0.00  0.00    +0.030 C 
ATOM      9  C   UNL     1      -1.054   3.593   0.027  0.00  0.00    +0.078 C 
ATOM     10  C   UNL     1      -2.084   4.644   0.038  0.00  0.00    +0.256 C 
ATOM     11  O   UNL     1      -3.271   4.371   0.042  0.00  0.00    -0.269 OA
ATOM     12  N   UNL     1      -1.665   5.898   0.042  0.00  0.00    -0.261 N 
ATOM     13  C   UNL     1      -0.315   6.187   0.037  0.00  0.00    +0.158 C 
ATOM     14  N   UNL     1       0.265   7.356   0.040  0.00  0.00    -0.279 NA
ATOM     15  S   UNL     1       0.443   4.570   0.033  0.00  0.00    -0.049 S 
ATOM     16  H   UNL     1      -2.394   6.722   0.051  0.00  0.00    +0.157 HD
ATOM     17  H   UNL     1      -0.344   8.272   0.049  0.00  0.00    +0.189 HD
ENDBRANCH   4   8
BRANCH   6  18
ATOM     18  C   UNL     1       1.724  -1.742  -0.024  0.00  0.00    +0.049 A 
ATOM     19  C   UNL     1       1.467  -2.562   1.066  0.00  0.00    +0.046 A 
ATOM     20  C   UNL     1       1.883  -3.881   1.050  0.00  0.00    +0.044 A 
ATOM     21  C   UNL     1       2.565  -4.379  -0.045  0.00  0.00    +0.040 A 
ATOM     22  C   UNL     1       2.828  -3.561  -1.131  0.00  0.00    +0.044 A 
ATOM     23  C   UNL     1       2.409  -2.244  -1.122  0.00  0.00    +0.046 A 
ATOM     24 CL   UNL     1       3.684  -4.190  -2.503  0.00  0.00    -0.083 Cl
ATOM     25 CL   UNL     1       1.556  -4.910   2.410  0.00  0.00    -0.083 Cl
ENDBRANCH   6  18
TORSDOF 2
