REMARK  Name = ZINC12303157
REMARK  13 active torsions:
REMARK  status: ('A' for Active; 'I' for Inactive)
REMARK    1  A    between atoms: C_1  and  C_2
REMARK    2  A    between atoms: C_7  and  C_8
REMARK    3  A    between atoms: C_8  and  N_63
REMARK    4  A    between atoms: C_9  and  C_10
REMARK    5  A    between atoms: C_9  and  N_63
REMARK    6  A    between atoms: C_14  and  O_16
REMARK    7  A    between atoms: O_16  and  C_17
REMARK    8  A    between atoms: C_17  and  C_18
REMARK    9  A    between atoms: C_18  and  C_20
REMARK   10  A    between atoms: C_18  and  O_28
REMARK   11  A    between atoms: C_20  and  N_66
REMARK   12  A    between atoms: C_21  and  N_66
REMARK   13  A    between atoms: C_22  and  N_66
REMARK                            x       y       z     vdW  Elec       q    Type
REMARK                         _______ _______ _______ _____ _____    ______ ____
ROOT
ATOM      1  C   UNL     1       2.125   0.993   1.166  0.00  0.00    -0.061 A 
ATOM      2  C   UNL     1       2.841  -0.181   1.024  0.00  0.00    +0.002 A 
ATOM      3  C   UNL     1       3.551  -0.694   2.093  0.00  0.00    +0.004 A 
ATOM      4  C   UNL     1       3.546  -0.034   3.307  0.00  0.00    +0.045 A 
ATOM      5  C   UNL     1       2.829   1.144   3.452  0.00  0.00    +0.121 A 
ATOM      6  C   UNL     1       2.121   1.659   2.376  0.00  0.00    +0.047 A 
ENDROOT
BRANCH   1   7
ATOM      7  C   UNL     1       1.353   1.550  -0.003  0.00  0.00    -0.046 C 
BRANCH   7   8
ATOM      8  N   UNL     1      -0.015   0.998   0.015  0.00  0.00    +0.384 N 
ATOM      9  H   UNL     1       0.032  -0.025  -0.054  0.00  0.00    -0.085 HD
ATOM     10  H   UNL     1      -0.475   1.261   0.894  0.00  0.00    -0.085 HD
BRANCH   8  11
ATOM     11  C   UNL     1      -0.795   1.527  -1.120  0.00  0.00    -0.046 C 
BRANCH  11  18
ATOM     12  C   UNL     1      -2.769   2.639   0.673  0.00  0.00    +0.044 C 
ATOM     13  C   UNL     1      -3.130   1.479  -0.218  0.00  0.00    -0.049 A 
ATOM     14  C   UNL     1      -4.405   0.947  -0.179  0.00  0.00    +0.003 A 
ATOM     15  C   UNL     1      -4.736  -0.117  -0.997  0.00  0.00    +0.000 A 
ATOM     16  C   UNL     1      -3.792  -0.649  -1.855  0.00  0.00    +0.000 A 
ATOM     17  C   UNL     1      -2.518  -0.114  -1.899  0.00  0.00    +0.002 A 
ATOM     18  C   UNL     1      -2.186   0.947  -1.076  0.00  0.00    -0.061 A 
ENDBRANCH  11  18
ENDBRANCH   8  11
ENDBRANCH   7   8
ENDBRANCH   1   7
BRANCH   5  19
ATOM     19  O   UNL     1       2.823   1.795   4.645  0.00  0.00    -0.489 OA
BRANCH  19  20
ATOM     20  C   UNL     1       3.579   1.210   5.707  0.00  0.00    +0.258 C 
BRANCH  20  21
ATOM     21  C   UNL     1       3.454   2.078   6.961  0.00  0.00    +0.135 C 
BRANCH  21  22
ATOM     22  O   UNL     1       4.059   3.350   6.722  0.00  0.00    -0.390 OA
ATOM     23  H   UNL     1       4.999   3.302   6.501  0.00  0.00    +0.210 HD
ENDBRANCH  21  22
BRANCH  21  24
ATOM     24  C   UNL     1       4.159   1.389   8.131  0.00  0.00    -0.044 C 
BRANCH  24  26
ATOM     25  C   UNL     1       2.519   2.142   9.746  0.00  0.00    -0.096 C 
ATOM     26  N   UNL     1       3.944   2.189   9.355  0.00  0.00    +0.381 N 
ATOM     27  H   UNL     1       4.206   3.163   9.166  0.00  0.00    -0.082 HD
BRANCH  26  28
ATOM     28  C   UNL     1       4.786   1.669  10.453  0.00  0.00    -0.069 C 
ATOM     29  C   UNL     1       4.374   0.240  10.815  0.00  0.00    -0.015 C 
ATOM     30  C   UNL     1       5.259  -0.273  11.952  0.00  0.00    -0.002 C 
ATOM     31  C   UNL     1       5.093   0.631  13.175  0.00  0.00    -0.000 C 
ATOM     32  C   UNL     1       5.505   2.060  12.813  0.00  0.00    -0.002 C 
ATOM     33  C   UNL     1       4.620   2.573  11.675  0.00  0.00    -0.015 C 
ENDBRANCH  26  28
ENDBRANCH  24  26
ENDBRANCH  21  24
ENDBRANCH  20  21
ENDBRANCH  19  20
ENDBRANCH   5  19
TORSDOF 11
