REMARK  Name = ZINC32996052
REMARK  5 active torsions:
REMARK  status: ('A' for Active; 'I' for Inactive)
REMARK    1  A    between atoms: C_8  and  C_12
REMARK    2  A    between atoms: N_14  and  C_15
REMARK    3  A    between atoms: C_20  and  C_21
REMARK    4  A    between atoms: N_23  and  C_24
REMARK    5  A    between atoms: C_24  and  C_25
REMARK                            x       y       z     vdW  Elec       q    Type
REMARK                         _______ _______ _______ _____ _____    ______ ____
ROOT
ATOM      1  C   UNL     1       9.682  -1.725   0.759  0.00  0.00    +0.046 A 
ATOM      2  C   UNL     1      10.569  -2.131  -0.229  0.00  0.00    +0.024 A 
ATOM      3  C   UNL     1      10.101  -2.460  -1.485  0.00  0.00    +0.002 A 
ATOM      4  C   UNL     1       8.746  -2.394  -1.769  0.00  0.00    +0.001 A 
ATOM      5  C   UNL     1       7.851  -1.998  -0.799  0.00  0.00    +0.015 A 
ATOM      6  C   UNL     1       8.309  -1.662   0.477  0.00  0.00    +0.058 A 
ENDROOT
BRANCH   1   9
ATOM      7  C   UNL     1      11.346  -0.777   2.160  0.00  0.00    +0.255 C 
ATOM      8  O   UNL     1      11.969  -0.435   1.173  0.00  0.00    -0.270 OA
ATOM      9  N   UNL     1      10.152  -1.387   2.025  0.00  0.00    -0.281 N 
ATOM     10  H   UNL     1       9.549  -1.618   2.916  0.00  0.00    +0.155 HD
BRANCH   7  18
ATOM     11  C   UNL     1      11.637  -0.763   8.295  0.00  0.00    +0.001 A 
ATOM     12  C   UNL     1      12.870  -0.133   8.392  0.00  0.00    +0.004 A 
ATOM     13  C   UNL     1      13.557   0.244   7.258  0.00  0.00    +0.047 A 
ATOM     14  C   UNL     1      13.015  -0.006   6.001  0.00  0.00    +0.139 A 
ATOM     15  C   UNL     1      11.766  -0.645   5.906  0.00  0.00    +0.018 A 
ATOM     16  C   UNL     1      11.084  -1.020   7.074  0.00  0.00    +0.011 A 
ATOM     17  C   UNL     1      11.198  -0.908   4.634  0.00  0.00    +0.031 A 
ATOM     18  C   UNL     1      11.896  -0.524   3.502  0.00  0.00    +0.122 A 
ATOM     19  C   UNL     1      13.198   0.134   3.663  0.00  0.00    +0.350 A 
ATOM     20  O   UNL     1      13.832   0.476   2.682  0.00  0.00    -0.244 OA
ATOM     21  O   UNL     1      13.690   0.365   4.892  0.00  0.00    -0.422 OA
ENDBRANCH   7  18
ENDBRANCH   1   9
BRANCH   6  22
ATOM     22  C   UNL     1       7.356  -1.238   1.520  0.00  0.00    +0.246 C 
ATOM     23  O   UNL     1       7.746  -1.034   2.654  0.00  0.00    -0.270 OA
ATOM     24  N   UNL     1       6.053  -1.077   1.216  0.00  0.00    -0.307 N 
ATOM     25  H   UNL     1       5.700  -1.262   0.191  0.00  0.00    +0.149 HD
BRANCH  24  26
ATOM     26  C   UNL     1       5.106  -0.656   2.252  0.00  0.00    +0.140 C 
BRANCH  26  27
ATOM     27  C   UNL     1       3.725  -0.551   1.658  0.00  0.00    -0.027 A 
ATOM     28  C   UNL     1       2.886  -1.651   1.663  0.00  0.00    +0.009 A 
ATOM     29  C   UNL     1       1.619  -1.560   1.119  0.00  0.00    +0.050 A 
ATOM     30  C   UNL     1       1.186  -0.365   0.567  0.00  0.00    +0.166 A 
ATOM     31  C   UNL     1       2.030   0.742   0.561  0.00  0.00    +0.167 A 
ATOM     32  C   UNL     1       3.299   0.644   1.109  0.00  0.00    +0.054 A 
ATOM     33  O   UNL     1       1.379   1.785  -0.032  0.00  0.00    -0.453 OA
ATOM     34  C   UNL     1      -0.015   1.423  -0.022  0.00  0.00    +0.466 C 
ATOM     35  O   UNL     1       0.005  -0.017  -0.024  0.00  0.00    -0.453 OA
ENDBRANCH  26  27
ENDBRANCH  24  26
ENDBRANCH   6  22
TORSDOF 5
