REMARK  Name = ZINC08954330
REMARK  11 active torsions:
REMARK  status: ('A' for Active; 'I' for Inactive)
REMARK    1  A    between atoms: C_1  and  C_2
REMARK    2  A    between atoms: C_5  and  C_8
REMARK    3  A    between atoms: C_8  and  N_9
REMARK    4  A    between atoms: C_19  and  S_20
REMARK    5  A    between atoms: S_20  and  C_21
REMARK    6  A    between atoms: C_21  and  C_23
REMARK    7  A    between atoms: C_21  and  C_24
REMARK    8  A    between atoms: C_24  and  C_26
REMARK    9  A    between atoms: C_27  and  N_36
REMARK   10  A    between atoms: N_28  and  C_35
REMARK   11  A    between atoms: N_31  and  C_34
REMARK                            x       y       z     vdW  Elec       q    Type
REMARK                         _______ _______ _______ _____ _____    ______ ____
ROOT
ATOM      1  N   UNL     1       1.154  -0.778  -0.100  0.00  0.00    -0.283 N 
ATOM      2  C   UNL     1       2.362  -0.168  -0.135  0.00  0.00    +0.263 A 
ATOM      3  O   UNL     1       3.395  -0.812  -0.157  0.00  0.00    -0.267 OA
ATOM      4  C   UNL     1       2.380   1.301  -0.144  0.00  0.00    +0.065 A 
ATOM      5  C   UNL     1       3.572   2.023  -0.179  0.00  0.00    +0.015 A 
ATOM      6  C   UNL     1       3.531   3.390  -0.187  0.00  0.00    +0.001 A 
ATOM      7  C   UNL     1       2.317   4.064  -0.161  0.00  0.00    +0.002 A 
ATOM      8  C   UNL     1       1.134   3.382  -0.126  0.00  0.00    +0.028 A 
ATOM      9  C   UNL     1       1.142   1.984  -0.117  0.00  0.00    +0.079 A 
ATOM     10  N   UNL     1      -0.001   1.271  -0.083  0.00  0.00    -0.223 NA
ATOM     11  C   UNL     1       0.006  -0.040  -0.075  0.00  0.00    +0.173 A 
ENDROOT
BRANCH   1  12
ATOM     12  C   UNL     1       1.079  -2.241  -0.089  0.00  0.00    +0.162 C 
BRANCH  12  17
ATOM     13  C   UNL     1       0.839  -4.199  -5.521  0.00  0.00    +0.044 C 
ATOM     14  C   UNL     1       0.901  -3.689  -4.104  0.00  0.00    -0.050 A 
ATOM     15  C   UNL     1       2.125  -3.517  -3.485  0.00  0.00    +0.004 A 
ATOM     16  C   UNL     1       2.183  -3.049  -2.186  0.00  0.00    +0.005 A 
ATOM     17  C   UNL     1       1.016  -2.752  -1.506  0.00  0.00    -0.028 A 
ATOM     18  C   UNL     1      -0.208  -2.929  -2.123  0.00  0.00    +0.005 A 
ATOM     19  C   UNL     1      -0.265  -3.394  -3.424  0.00  0.00    +0.004 A 
ENDBRANCH  12  17
ENDBRANCH   1  12
BRANCH  11  20
ATOM     20  S   UNL     1      -1.538  -0.888  -0.032  0.00  0.00    -0.076 S 
BRANCH  20  21
ATOM     21  C   UNL     1      -2.671   0.523  -0.012  0.00  0.00    +0.122 C 
ATOM     22  C   UNL     1      -2.483   1.310   1.287  0.00  0.00    +0.028 C 
BRANCH  21  23
ATOM     23  C   UNL     1      -4.092   0.027  -0.097  0.00  0.00    +0.185 C 
ATOM     24  O   UNL     1      -4.368  -1.093   0.282  0.00  0.00    -0.291 OA
BRANCH  23  25
ATOM     25  C   UNL     1      -5.101   0.865  -0.617  0.00  0.00    +0.121 A 
ATOM     26  C   UNL     1      -6.407   0.385  -0.824  0.00  0.00    +0.116 A 
ATOM     27  N   UNL     1      -7.351   1.236  -1.325  0.00  0.00    -0.284 N 
ATOM     28  C   UNL     1      -7.053   2.508  -1.630  0.00  0.00    +0.333 A 
ATOM     29  O   UNL     1      -7.927   3.223  -2.078  0.00  0.00    -0.246 OA
ATOM     30  N   UNL     1      -5.823   3.020  -1.459  0.00  0.00    -0.263 N 
ATOM     31  C   UNL     1      -4.821   2.264  -0.965  0.00  0.00    +0.269 A 
ATOM     32  O   UNL     1      -3.707   2.731  -0.812  0.00  0.00    -0.267 OA
ATOM     33  C   UNL     1      -5.566   4.418  -1.813  0.00  0.00    +0.157 C 
ATOM     34  C   UNL     1      -8.715   0.747  -1.539  0.00  0.00    +0.155 C 
BRANCH  26  35
ATOM     35  N   UNL     1      -6.725  -0.903  -0.525  0.00  0.00    -0.344 N 
ATOM     36  H   UNL     1      -6.072  -1.477  -0.095  0.00  0.00    +0.144 HD
ATOM     37  H   UNL     1      -7.606  -1.248  -0.742  0.00  0.00    +0.144 HD
ENDBRANCH  26  35
ENDBRANCH  23  25
ENDBRANCH  21  23
ENDBRANCH  20  21
ENDBRANCH  11  20
TORSDOF 7
