REMARK  Name = ZINC12436101
REMARK  14 active torsions:
REMARK  status: ('A' for Active; 'I' for Inactive)
REMARK    1  A    between atoms: C_1  and  N_65
REMARK    2  A    between atoms: C_2  and  C_3
REMARK    3  A    between atoms: C_2  and  N_65
REMARK    4  A    between atoms: C_3  and  C_5
REMARK    5  A    between atoms: C_3  and  O_23
REMARK    6  A    between atoms: C_5  and  O_6
REMARK    7  A    between atoms: O_6  and  C_7
REMARK    8  A    between atoms: C_11  and  C_13
REMARK    9  A    between atoms: C_13  and  N_67
REMARK   10  A    between atoms: C_14  and  C_15
REMARK   11  A    between atoms: C_14  and  N_67
REMARK   12  A    between atoms: C_15  and  C_16
REMARK   13  A    between atoms: C_16  and  C_17
REMARK   14  A    between atoms: C_24  and  N_65
REMARK                            x       y       z     vdW  Elec       q    Type
REMARK                         _______ _______ _______ _____ _____    ______ ____
ROOT
ATOM      1  C   UNL     1       5.926   7.831  -6.288  0.00  0.00    +0.121 A 
ATOM      2  C   UNL     1       6.757   6.944  -6.958  0.00  0.00    +0.045 A 
ATOM      3  C   UNL     1       7.238   5.824  -6.307  0.00  0.00    +0.004 A 
ATOM      4  C   UNL     1       6.895   5.590  -4.987  0.00  0.00    +0.002 A 
ATOM      5  C   UNL     1       6.063   6.469  -4.320  0.00  0.00    -0.061 A 
ATOM      6  C   UNL     1       5.579   7.590  -4.967  0.00  0.00    +0.047 A 
ENDROOT
BRANCH   1   7
ATOM      7  O   UNL     1       5.452   8.933  -6.927  0.00  0.00    -0.489 OA
BRANCH   7   8
ATOM      8  C   UNL     1       5.850   9.116  -8.287  0.00  0.00    +0.258 C 
BRANCH   8   9
ATOM      9  C   UNL     1       5.223  10.401  -8.833  0.00  0.00    +0.135 C 
BRANCH   9  10
ATOM     10  O   UNL     1       3.802  10.258  -8.871  0.00  0.00    -0.390 OA
ATOM     11  H   UNL     1       3.495   9.531  -9.429  0.00  0.00    +0.210 HD
ENDBRANCH   9  10
BRANCH   9  12
ATOM     12  C   UNL     1       5.748  10.663 -10.246  0.00  0.00    -0.044 C 
BRANCH  12  14
ATOM     13  C   UNL     1       5.794  13.064  -9.935  0.00  0.00    -0.096 C 
ATOM     14  N   UNL     1       5.212  11.956 -10.721  0.00  0.00    +0.381 N 
ATOM     15  H   UNL     1       4.192  11.960 -10.598  0.00  0.00    -0.082 HD
BRANCH  14  16
ATOM     16  C   UNL     1       5.523  12.136 -12.155  0.00  0.00    -0.069 C 
ATOM     17  C   UNL     1       7.036  12.212 -12.370  0.00  0.00    -0.015 C 
ATOM     18  C   UNL     1       7.330  12.399 -13.860  0.00  0.00    -0.002 C 
ATOM     19  C   UNL     1       6.681  13.695 -14.349  0.00  0.00    -0.000 C 
ATOM     20  C   UNL     1       5.168  13.620 -14.133  0.00  0.00    -0.002 C 
ATOM     21  C   UNL     1       4.873  13.432 -12.644  0.00  0.00    -0.015 C 
ENDBRANCH  14  16
ENDBRANCH  12  14
ENDBRANCH   9  12
ENDBRANCH   8   9
ENDBRANCH   7   8
ENDBRANCH   1   7
BRANCH   5  22
ATOM     22  C   UNL     1       5.687   6.208  -2.885  0.00  0.00    -0.047 C 
BRANCH  22  23
ATOM     23  N   UNL     1       4.453   5.400  -2.847  0.00  0.00    +0.382 N 
ATOM     24  H   UNL     1       4.616   4.510  -3.332  0.00  0.00    -0.085 HD
ATOM     25  H   UNL     1       3.698   5.913  -3.317  0.00  0.00    -0.085 HD
BRANCH  23  26
ATOM     26  C   UNL     1       4.061   5.128  -1.451  0.00  0.00    -0.082 C 
BRANCH  26  27
ATOM     27  C   UNL     1       2.781   4.291  -1.444  0.00  0.00    -0.014 C 
BRANCH  27  28
ATOM     28  C   UNL     1       2.367   4.004   0.001  0.00  0.00    +0.035 C 
BRANCH  28  29
ATOM     29  C   UNL     1       1.106   3.179   0.008  0.00  0.00    -0.029 A 
ATOM     30  C   UNL     1       1.173   1.794   0.001  0.00  0.00    +0.006 A 
ATOM     31  C   UNL     1      -0.013   1.076   0.008  0.00  0.00    +0.020 A 
ATOM     32  C   UNL     1      -1.214   1.759   0.017  0.00  0.00    +0.111 A 
ATOM     33  N   UNL     1      -1.240   3.078   0.030  0.00  0.00    -0.263 NA
ATOM     34  C   UNL     1      -0.132   3.793   0.023  0.00  0.00    +0.114 A 
ENDBRANCH  28  29
ENDBRANCH  27  28
ENDBRANCH  26  27
ENDBRANCH  23  26
ENDBRANCH  22  23
ENDBRANCH   5  22
TORSDOF 13
