REMARK  Name = ZINC52432107
REMARK  5 active torsions:
REMARK  status: ('A' for Active; 'I' for Inactive)
REMARK    1  A    between atoms: C_1  and  C_2
REMARK    2  A    between atoms: C_10  and  C_11
REMARK    3  A    between atoms: C_11  and  C_13
REMARK    4  A    between atoms: C_11  and  N_14
REMARK    5  A    between atoms: N_14  and  C_15
REMARK                            x       y       z     vdW  Elec       q    Type
REMARK                         _______ _______ _______ _____ _____    ______ ____
ROOT
ATOM      1  C   UNL     1       0.030  -0.352   2.503  0.00  0.00    +0.134 C 
ATOM      2  C   UNL     1      -1.354  -0.570   3.116  0.00  0.00    +0.036 C 
ENDROOT
BRANCH   1  12
ATOM      3  C   UNL     1      -0.018   1.503   0.010  0.00  0.00    +0.048 C 
ATOM      4  C   UNL     1       0.002  -0.004   0.002  0.00  0.00    +0.000 A 
ATOM      5  C   UNL     1       0.009  -0.879  -1.177  0.00  0.00    +0.023 A 
ATOM      6  C   UNL     1       0.000  -0.660  -2.553  0.00  0.00    +0.012 A 
ATOM      7  C   UNL     1       0.011  -1.726  -3.409  0.00  0.00    +0.001 A 
ATOM      8  C   UNL     1       0.031  -3.023  -2.916  0.00  0.00    +0.004 A 
ATOM      9  C   UNL     1       0.040  -3.259  -1.558  0.00  0.00    +0.047 A 
ATOM     10  C   UNL     1       0.029  -2.190  -0.671  0.00  0.00    +0.136 A 
ATOM     11  O   UNL     1       0.033  -2.100   0.674  0.00  0.00    -0.458 OA
ATOM     12  C   UNL     1       0.023  -0.814   1.069  0.00  0.00    +0.129 A 
ENDBRANCH   1  12
BRANCH   1  13
ATOM     13  N   UNL     1       1.025  -1.119   3.258  0.00  0.00    -0.332 N 
ATOM     14  H   UNL     1       1.286  -2.003   2.958  0.00  0.00    +0.147 HD
BRANCH  13  15
ATOM     15  C   UNL     1       1.592  -0.580   4.401  0.00  0.00    +0.072 A 
ATOM     16  C   UNL     1       1.213   0.704   4.847  0.00  0.00    +0.157 A 
ATOM     17  N   UNL     1       1.746   1.212   5.923  0.00  0.00    -0.177 NA
ATOM     18  N   UNL     1       2.701   0.504   6.659  0.00  0.00    -0.242 N 
ATOM     19  H   UNL     1       3.085   0.901   7.456  0.00  0.00    +0.192 HD
ATOM     20  C   UNL     1       3.093  -0.725   6.269  0.00  0.00    +0.285 A 
ATOM     21  O   UNL     1       3.928  -1.338   6.917  0.00  0.00    -0.265 OA
ATOM     22  C   UNL     1       2.532  -1.298   5.119  0.00  0.00    +0.129 A 
ATOM     23 CL   UNL     1       3.014  -2.883   4.599  0.00  0.00    -0.076 Cl
ENDBRANCH  13  15
ENDBRANCH   1  13
TORSDOF 3
