REMARK  Name = ZINC14141066
REMARK  5 active torsions:
REMARK  status: ('A' for Active; 'I' for Inactive)
REMARK    1  A    between atoms: C_1  and  C_2
REMARK    2  A    between atoms: N_11  and  C_15
REMARK    3  A    between atoms: C_15  and  C_16
REMARK    4  A    between atoms: N_18  and  C_19
REMARK    5  A    between atoms: C_19  and  C_26
REMARK                            x       y       z     vdW  Elec       q    Type
REMARK                         _______ _______ _______ _____ _____    ______ ____
ROOT
ATOM      1  C   UNL     1      -0.459   0.606  -4.377  0.00  0.00    +0.010 C 
ATOM      2  C   UNL     1      -1.921   1.047  -4.273  0.00  0.00    +0.018 C 
ATOM      3  C   UNL     1      -2.830  -0.183  -4.336  0.00  0.00    +0.006 C 
ATOM      4  C   UNL     1      -4.290   0.257  -4.211  0.00  0.00    +0.000 C 
ATOM      5  C   UNL     1      -4.498   0.965  -2.871  0.00  0.00    +0.003 C 
ATOM      6  C   UNL     1      -3.595   2.200  -2.802  0.00  0.00    +0.035 C 
ATOM      7  C   UNL     1      -2.138   1.776  -2.952  0.00  0.00    +0.115 C 
ATOM      8  C   UNL     1      -1.716   0.900  -1.795  0.00  0.00    +0.247 C 
ATOM      9  O   UNL     1      -2.177  -0.178  -1.485  0.00  0.00    -0.273 OA
ATOM     10  N   UNL     1      -0.721   1.571  -1.179  0.00  0.00    -0.215 N 
ATOM     11  C   UNL     1      -0.458   2.733  -1.790  0.00  0.00    +0.310 C 
ATOM     12  O   UNL     1       0.400   3.511  -1.422  0.00  0.00    -0.252 OA
ATOM     13  N   UNL     1      -1.251   2.943  -2.857  0.00  0.00    -0.285 N 
ATOM     14  H   UNL     1      -1.239   3.713  -3.447  0.00  0.00    +0.151 HD
ENDROOT
BRANCH  10  15
ATOM     15  C   UNL     1      -0.013   1.086   0.008  0.00  0.00    +0.213 C 
BRANCH  15  16
ATOM     16  C   UNL     1      -0.718   1.572   1.248  0.00  0.00    +0.231 C 
ATOM     17  O   UNL     1      -1.714   2.256   1.150  0.00  0.00    -0.274 OA
ATOM     18  N   UNL     1      -0.242   1.246   2.466  0.00  0.00    -0.307 N 
ATOM     19  H   UNL     1       0.555   0.699   2.544  0.00  0.00    +0.149 HD
BRANCH  18  20
ATOM     20  C   UNL     1      -0.927   1.718   3.671  0.00  0.00    +0.053 C 
ATOM     21  C   UNL     1      -0.195   1.189   4.915  0.00  0.00    +0.049 C 
ATOM     22  C   UNL     1       1.143   1.970   5.059  0.00  0.00    +0.168 C 
ATOM     23  S   UNL     1       0.587   3.673   4.628  0.00  0.00    -0.029 S 
ATOM     24  O   UNL     1       0.225   4.356   5.819  0.00  0.00    -0.174 OA
ATOM     25  O   UNL     1       1.536   4.259   3.746  0.00  0.00    -0.174 OA
ATOM     26  C   UNL     1      -0.936   3.266   3.684  0.00  0.00    +0.191 C 
ATOM     27  C   UNL     1      -2.368   1.202   3.671  0.00  0.00    +0.033 C 
ENDBRANCH  18  20
ENDBRANCH  15  16
ENDBRANCH  10  15
TORSDOF 3
