REMARK  Name = ZINC65494675
REMARK  8 active torsions:
REMARK  status: ('A' for Active; 'I' for Inactive)
REMARK    1  A    between atoms: C_1  and  C_2
REMARK    2  A    between atoms: C_4  and  C_8
REMARK    3  A    between atoms: C_5  and  C_7
REMARK    4  A    between atoms: C_8  and  C_9
REMARK    5  A    between atoms: C_8  and  N_10
REMARK    6  A    between atoms: N_13  and  N_14
REMARK    7  A    between atoms: C_15  and  O_17
REMARK    8  A    between atoms: O_17  and  C_18
REMARK                            x       y       z     vdW  Elec       q    Type
REMARK                         _______ _______ _______ _____ _____    ______ ____
ROOT
ATOM      1  N   UNL     1      -2.752  -3.099  -0.586  0.00  0.00    -0.292 N 
ATOM      2  C   UNL     1      -3.473  -4.086  -1.154  0.00  0.00    +0.316 C 
ATOM      3  O   UNL     1      -3.031  -5.219  -1.188  0.00  0.00    -0.251 OA
ATOM      4  N   UNL     1      -4.682  -3.818  -1.684  0.00  0.00    -0.216 N 
ATOM      5  H   UNL     1      -3.105  -2.196  -0.558  0.00  0.00    +0.151 HD
ATOM      6  H   UNL     1      -5.201  -4.529  -2.093  0.00  0.00    +0.174 HD
ENDROOT
BRANCH   4   7
ATOM      7  N   UNL     1      -5.191  -2.514  -1.644  0.00  0.00    -0.198 N 
ATOM      8  C   UNL     1      -6.401  -2.246  -2.174  0.00  0.00    +0.417 C 
ATOM      9  O   UNL     1      -6.843  -1.115  -2.140  0.00  0.00    -0.225 OA
ATOM     10  H   UNL     1      -4.673  -1.803  -1.235  0.00  0.00    +0.176 HD
BRANCH   8  11
ATOM     11  O   UNL     1      -7.121  -3.232  -2.742  0.00  0.00    -0.453 OA
ATOM     12  C   UNL     1      -8.394  -2.877  -3.284  0.00  0.00    +0.282 C 
ENDBRANCH   8  11
ENDBRANCH   4   7
BRANCH   1  13
ATOM     13  C   UNL     1      -1.437  -3.390  -0.009  0.00  0.00    +0.105 C 
ATOM     14  C   UNL     1      -1.609  -3.892   1.426  0.00  0.00    +0.033 C 
BRANCH  13  18
ATOM     15  C   UNL     1      -0.018   1.503   0.010  0.00  0.00    +0.086 C 
ATOM     16  C   UNL     1       0.002  -0.004   0.002  0.00  0.00    +0.103 A 
ATOM     17  C   UNL     1      -1.078  -0.805   0.003  0.00  0.00    +0.050 A 
ATOM     18  C   UNL     1      -0.601  -2.136  -0.007  0.00  0.00    +0.013 A 
ATOM     19  C   UNL     1       0.742  -2.069  -0.013  0.00  0.00    +0.107 A 
ATOM     20  O   UNL     1       1.102  -0.775  -0.013  0.00  0.00    -0.465 OA
ATOM     21  C   UNL     1       1.684  -3.245  -0.023  0.00  0.00    +0.086 C 
ENDBRANCH  13  18
ENDBRANCH   1  13
TORSDOF 4
