REMARK  Name = ZINC62915503
REMARK  3 active torsions:
REMARK  status: ('A' for Active; 'I' for Inactive)
REMARK    1  A    between atoms: C_1  and  C_2
REMARK    2  A    between atoms: C_2  and  C_21
REMARK    3  A    between atoms: C_7  and  C_9
REMARK                            x       y       z     vdW  Elec       q    Type
REMARK                         _______ _______ _______ _____ _____    ______ ____
ROOT
ATOM      1  C   UNL     1      -0.019   1.526   0.010  0.00  0.00    +0.024 C 
ATOM      2  C   UNL     1       0.002  -0.004   0.002  0.00  0.00    +0.086 C 
ATOM      3  C   UNL     1       0.817  -0.523  -1.205  0.00  0.00    +0.038 C 
ATOM      4  C   UNL     1       2.210  -0.801  -0.587  0.00  0.00    +0.109 C 
ATOM      5  N   UNL     1       1.885  -1.333   0.757  0.00  0.00    -0.302 N 
ATOM      6  C   UNL     1       0.743  -0.536   1.243  0.00  0.00    +0.125 C 
ATOM      7  C   UNL     1       2.505  -2.341   1.403  0.00  0.00    +0.202 C 
ATOM      8  O   UNL     1       2.131  -2.674   2.507  0.00  0.00    -0.277 OA
ENDROOT
BRANCH   7   9
ATOM      9  C   UNL     1       3.664  -3.052   0.753  0.00  0.00    +0.017 C 
ATOM     10  C   UNL     1       3.199  -3.732  -0.549  0.00  0.00    -0.005 C 
ATOM     11  C   UNL     1       3.460  -5.248  -0.324  0.00  0.00    -0.026 C 
ATOM     12  C   UNL     1       2.163  -5.837   0.236  0.00  0.00    +0.002 C 
ATOM     13  C   UNL     1       2.415  -7.209   0.856  0.00  0.00    +0.000 C 
ATOM     14  C   UNL     1       3.391  -7.045   2.026  0.00  0.00    -0.002 C 
ATOM     15  C   UNL     1       4.723  -6.538   1.473  0.00  0.00    -0.015 C 
ATOM     16  C   UNL     1       4.567  -5.219   0.745  0.00  0.00    -0.068 C 
ATOM     17  N   UNL     1       4.168  -4.120   1.650  0.00  0.00    +0.389 N 
ATOM     18  H   UNL     1       4.962  -3.789   2.177  0.00  0.00    -0.084 HD
ATOM     19  H   UNL     1       3.436  -4.428   2.273  0.00  0.00    -0.084 HD
ENDBRANCH   7   9
BRANCH   2  20
ATOM     20  C   UNL     1      -1.404  -0.546  -0.040  0.00  0.00    +0.363 C 
ATOM     21  O   UNL     1      -2.141  -0.256  -0.967  0.00  0.00    -0.246 OA
ATOM     22  O   UNL     1      -1.804  -1.273   0.853  0.00  0.00    -0.246 OA
ENDBRANCH   2  20
TORSDOF 2
