REMARK  Name = ZINC00706490
REMARK  6 active torsions:
REMARK  status: ('A' for Active; 'I' for Inactive)
REMARK    1  A    between atoms: C_1  and  C_2
REMARK    2  A    between atoms: C_3  and  C_20
REMARK    3  A    between atoms: C_4  and  C_10
REMARK    4  A    between atoms: C_20  and  O_22
REMARK    5  A    between atoms: O_22  and  C_23
REMARK    6  A    between atoms: C_23  and  C_24
REMARK                            x       y       z     vdW  Elec       q    Type
REMARK                         _______ _______ _______ _____ _____    ______ ____
ROOT
ATOM      1  C   UNL     1      -2.104   0.351   0.852  0.00  0.00    +0.061 C 
ATOM      2  C   UNL     1      -0.926   1.216   0.483  0.00  0.00    +0.021 C 
ATOM      3  C   UNL     1      -1.125   2.521   0.196  0.00  0.00    +0.078 C 
ATOM      4  C   UNL     1       0.086   3.353  -0.175  0.00  0.00    +0.145 C 
ATOM      5  N   UNL     1       1.389   2.667  -0.187  0.00  0.00    -0.288 N 
ATOM      6  C   UNL     1       1.427   1.357   0.129  0.00  0.00    +0.304 C 
ATOM      7  O   UNL     1       2.498   0.782   0.121  0.00  0.00    -0.252 OA
ATOM      8  N   UNL     1       0.325   0.669   0.450  0.00  0.00    -0.273 N 
ATOM      9  H   UNL     1       2.200   3.146  -0.417  0.00  0.00    +0.151 HD
ATOM     10  H   UNL     1       0.419  -0.271   0.667  0.00  0.00    +0.156 HD
ENDROOT
BRANCH   4  11
ATOM     11  C   UNL     1       0.175   4.502   0.795  0.00  0.00    -0.005 A 
ATOM     12  C   UNL     1       0.952   4.386   1.933  0.00  0.00    +0.056 A 
ATOM     13  C   UNL     1       1.036   5.441   2.826  0.00  0.00    +0.167 A 
ATOM     14  C   UNL     1       0.336   6.620   2.575  0.00  0.00    +0.167 A 
ATOM     15  C   UNL     1      -0.441   6.730   1.434  0.00  0.00    +0.065 A 
ATOM     16  C   UNL     1      -0.515   5.674   0.543  0.00  0.00    +0.027 A 
ATOM     17 BR   UNL     1      -1.569   5.830  -1.019  0.00  0.00    -0.050 Br
ATOM     18  O   UNL     1       0.581   7.497   3.591  0.00  0.00    -0.453 OA
ATOM     19  C   UNL     1       1.108   6.701   4.669  0.00  0.00    +0.466 C 
ATOM     20  O   UNL     1       1.719   5.582   4.000  0.00  0.00    -0.453 OA
ENDBRANCH   4  11
BRANCH   3  21
ATOM     21  C   UNL     1      -2.419   3.090   0.236  0.00  0.00    +0.339 C 
ATOM     22  O   UNL     1      -2.773   3.728   1.209  0.00  0.00    -0.245 OA
BRANCH  21  23
ATOM     23  O   UNL     1      -3.261   2.924  -0.806  0.00  0.00    -0.459 OA
BRANCH  23  24
ATOM     24  C   UNL     1      -4.518   3.600  -0.738  0.00  0.00    +0.264 C 
BRANCH  24  25
ATOM     25  C   UNL     1      -5.281   3.392  -2.048  0.00  0.00    +0.156 C 
ATOM     26  C   UNL     1      -6.686   4.015  -1.940  0.00  0.00    +0.037 C 
ATOM     27  C   UNL     1      -6.731   5.051  -3.090  0.00  0.00    +0.031 C 
ATOM     28  C   UNL     1      -5.611   4.539  -4.032  0.00  0.00    +0.160 C 
ATOM     29  O   UNL     1      -4.598   4.060  -3.122  0.00  0.00    -0.373 OA
ENDBRANCH  24  25
ENDBRANCH  23  24
ENDBRANCH  21  23
ENDBRANCH   3  21
TORSDOF 5
