REMARK  Name = ZINC50769727
REMARK  3 active torsions:
REMARK  status: ('A' for Active; 'I' for Inactive)
REMARK    1  A    between atoms: C_1  and  N_2
REMARK    2  A    between atoms: N_2  and  C_3
REMARK    3  A    between atoms: C_6  and  C_9
REMARK                            x       y       z     vdW  Elec       q    Type
REMARK                         _______ _______ _______ _____ _____    ______ ____
ROOT
ATOM      1  C   UNL     1       2.440  -2.766  -4.264  0.00  0.00    +0.250 C 
ATOM      2  O   UNL     1       2.953  -2.146  -5.175  0.00  0.00    -0.270 OA
ATOM      3  N   UNL     1       2.453  -4.114  -4.274  0.00  0.00    -0.261 N 
ATOM      4  C   UNL     1       3.054  -4.795  -5.326  0.00  0.00    +0.166 A 
ATOM      5  N   UNL     1       3.658  -4.296  -6.383  0.00  0.00    -0.232 NA
ATOM      6  C   UNL     1       4.184  -5.085  -7.303  0.00  0.00    +0.136 A 
ATOM      7  C   UNL     1       4.072  -6.422  -7.106  0.00  0.00    +0.076 A 
ATOM      8  S   UNL     1       3.192  -6.456  -5.552  0.00  0.00    -0.045 S 
ATOM      9 BR   UNL     1       4.685  -7.855  -8.177  0.00  0.00    -0.041 Br
ATOM     10  H   UNL     1       2.044  -4.608  -3.547  0.00  0.00    +0.157 HD
ENDROOT
BRANCH   1  14
ATOM     11  C   UNL     1       0.604  -0.685  -1.050  0.00  0.00    +0.027 A 
ATOM     12  C   UNL     1       1.192   0.026  -2.093  0.00  0.00    +0.023 A 
ATOM     13  C   UNL     1       1.788  -0.645  -3.136  0.00  0.00    +0.015 A 
ATOM     14  C   UNL     1       1.802  -2.043  -3.148  0.00  0.00    +0.037 A 
ATOM     15  C   UNL     1       1.211  -2.755  -2.099  0.00  0.00    +0.015 A 
ATOM     16  C   UNL     1       0.622  -2.078  -1.056  0.00  0.00    +0.023 A 
BRANCH  11  18
ATOM     17  C   UNL     1      -0.018   1.461   0.010  0.00  0.00    +0.125 C 
ATOM     18  N   UNL     1       0.002  -0.004   0.002  0.00  0.00    -0.347 N 
ATOM     19  H   UNL     1      -0.404  -0.499   0.731  0.00  0.00    +0.146 HD
ENDBRANCH  11  18
ENDBRANCH   1  14
TORSDOF 2
