REMARK  Name = ZINC13345867
REMARK  6 active torsions:
REMARK  status: ('A' for Active; 'I' for Inactive)
REMARK    1  A    between atoms: C_2  and  C_3
REMARK    2  A    between atoms: C_3  and  N_4
REMARK    3  A    between atoms: C_13  and  S_14
REMARK    4  A    between atoms: S_14  and  C_15
REMARK    5  A    between atoms: C_15  and  C_16
REMARK    6  A    between atoms: C_24  and  C_28
REMARK                            x       y       z     vdW  Elec       q    Type
REMARK                         _______ _______ _______ _____ _____    ______ ____
ROOT
ATOM      1  S   UNL     1      -0.169  -3.456   0.587  0.00  0.00    -0.080 S 
ENDROOT
BRANCH   1  11
ATOM      2  N   UNL     1      -1.318  -1.700  -1.126  0.00  0.00    -0.283 N 
ATOM      3  C   UNL     1      -1.822  -1.286  -2.304  0.00  0.00    +0.263 A 
ATOM      4  O   UNL     1      -2.255  -0.153  -2.428  0.00  0.00    -0.267 OA
ATOM      5  C   UNL     1      -1.841  -2.195  -3.407  0.00  0.00    +0.076 A 
ATOM      6  C   UNL     1      -2.341  -1.955  -4.771  0.00  0.00    -0.023 A 
ATOM      7  C   UNL     1      -2.251  -2.975  -5.639  0.00  0.00    -0.004 A 
ATOM      8  S   UNL     1      -1.504  -4.300  -4.718  0.00  0.00    -0.073 S 
ATOM      9  C   UNL     1      -1.319  -3.473  -3.160  0.00  0.00    +0.117 A 
ATOM     10  N   UNL     1      -0.836  -3.821  -1.972  0.00  0.00    -0.216 NA
ATOM     11  C   UNL     1      -0.824  -2.963  -0.973  0.00  0.00    +0.173 A 
ATOM     12  C   UNL     1      -2.796  -2.617  -6.996  0.00  0.00    +0.043 C 
ATOM     13  C   UNL     1      -3.646  -1.351  -6.750  0.00  0.00    +0.010 C 
ATOM     14  C   UNL     1      -2.974  -0.762  -5.493  0.00  0.00    +0.037 C 
BRANCH   2  15
ATOM     15  C   UNL     1      -1.293  -0.775   0.010  0.00  0.00    +0.154 C 
BRANCH  15  17
ATOM     16  C   UNL     1      -0.016   1.306   0.009  0.00  0.00    +0.005 C 
ATOM     17  C   UNL     1       0.002  -0.004   0.002  0.00  0.00    -0.013 C 
ENDBRANCH  15  17
ENDBRANCH   2  15
ENDBRANCH   1  11
BRANCH   1  18
ATOM     18  C   UNL     1       0.355  -5.172   0.321  0.00  0.00    +0.151 C 
BRANCH  18  19
ATOM     19  C   UNL     1       0.942  -5.721   1.595  0.00  0.00    +0.121 A 
ATOM     20  N   UNL     1       1.400  -7.000   1.595  0.00  0.00    -0.310 N 
ATOM     21  H   UNL     1       1.342  -7.531   0.785  0.00  0.00    +0.170 HD
ATOM     22  C   UNL     1       1.937  -7.540   2.713  0.00  0.00    +0.259 A 
ATOM     23  O   UNL     1       2.351  -8.685   2.727  0.00  0.00    -0.267 OA
ATOM     24  C   UNL     1       2.001  -6.689   3.914  0.00  0.00    +0.065 A 
ATOM     25  C   UNL     1       2.535  -7.153   5.115  0.00  0.00    +0.016 A 
ATOM     26  C   UNL     1       2.575  -6.330   6.204  0.00  0.00    +0.016 A 
ATOM     27  C   UNL     1       2.083  -5.020   6.127  0.00  0.00    +0.065 A 
ATOM     28  C   UNL     1       1.545  -4.539   4.938  0.00  0.00    +0.043 A 
ATOM     29  C   UNL     1       1.500  -5.373   3.818  0.00  0.00    +0.079 A 
ATOM     30  N   UNL     1       0.990  -4.946   2.636  0.00  0.00    -0.233 NA
BRANCH  27  31
ATOM     31  C   UNL     1       2.135  -4.145   7.316  0.00  0.00    +0.387 C 
ATOM     32  O   UNL     1       2.607  -4.564   8.363  0.00  0.00    -0.241 OA
ATOM     33  O   UNL     1       1.706  -3.002   7.253  0.00  0.00    -0.241 OA
ENDBRANCH  27  31
ENDBRANCH  18  19
ENDBRANCH   1  18
TORSDOF 6
