REMARK  Name = ZINC14287127
REMARK  4 active torsions:
REMARK  status: ('A' for Active; 'I' for Inactive)
REMARK    1  A    between atoms: C_1  and  C_2
REMARK    2  A    between atoms: C_4  and  C_14
REMARK    3  A    between atoms: N_16  and  N_17
REMARK    4  A    between atoms: C_18  and  C_20
REMARK                            x       y       z     vdW  Elec       q    Type
REMARK                         _______ _______ _______ _____ _____    ______ ____
ROOT
ATOM      1  C   UNL     1       4.087  -2.348   0.328  0.00  0.00    +0.274 C 
ATOM      2  O   UNL     1       3.041  -2.954   0.434  0.00  0.00    -0.270 OA
ATOM      3  N   UNL     1       4.127  -1.024   0.575  0.00  0.00    -0.231 N 
ATOM      4  H   UNL     1       4.974  -0.553   0.557  0.00  0.00    +0.173 HD
ENDROOT
BRANCH   1   7
ATOM      5  C   UNL     1       5.993  -1.151  -1.547  0.00  0.00    +0.056 C 
ATOM      6  C   UNL     1       5.742  -2.660  -1.502  0.00  0.00    +0.220 C 
ATOM      7  C   UNL     1       5.341  -3.077  -0.081  0.00  0.00    +0.300 C 
ATOM      8  O   UNL     1       5.103  -4.489  -0.077  0.00  0.00    -0.472 OA
ATOM      9  C   UNL     1       4.341  -4.981  -1.093  0.00  0.00    +0.163 A 
ATOM     10  C   UNL     1       3.775  -6.242  -0.969  0.00  0.00    +0.049 A 
ATOM     11  C   UNL     1       3.002  -6.757  -1.992  0.00  0.00    +0.004 A 
ATOM     12  C   UNL     1       2.791  -6.019  -3.141  0.00  0.00    +0.004 A 
ATOM     13  C   UNL     1       3.351  -4.762  -3.271  0.00  0.00    +0.049 A 
ATOM     14  C   UNL     1       4.127  -4.238  -2.247  0.00  0.00    +0.163 A 
ATOM     15  O   UNL     1       4.669  -2.998  -2.388  0.00  0.00    -0.481 OA
ENDBRANCH   1   7
BRANCH   3  16
ATOM     16  N   UNL     1       2.945  -0.328   0.860  0.00  0.00    -0.230 N 
ATOM     17  C   UNL     1       2.985   0.996   1.107  0.00  0.00    +0.262 C 
ATOM     18  O   UNL     1       4.047   1.587   1.084  0.00  0.00    -0.269 OA
ATOM     19  H   UNL     1       2.097  -0.800   0.878  0.00  0.00    +0.173 HD
BRANCH  17  20
ATOM     20  C   UNL     1       1.737   1.730   1.407  0.00  0.00    +0.056 A 
ATOM     21  C   UNL     1       1.765   3.106   1.667  0.00  0.00    +0.016 A 
ATOM     22  C   UNL     1       0.570   3.745   1.942  0.00  0.00    +0.020 A 
ATOM     23  C   UNL     1      -0.604   3.013   1.953  0.00  0.00    +0.111 A 
ATOM     24  N   UNL     1      -0.601   1.718   1.699  0.00  0.00    -0.263 NA
ATOM     25  C   UNL     1       0.511   1.063   1.437  0.00  0.00    +0.123 A 
ENDBRANCH  17  20
ENDBRANCH   3  16
TORSDOF 3
