REMARK  Name = ZINC33888627
REMARK  6 active torsions:
REMARK  status: ('A' for Active; 'I' for Inactive)
REMARK    1  A    between atoms: C_1  and  N_2
REMARK    2  A    between atoms: N_11  and  C_24
REMARK    3  A    between atoms: N_14  and  N_15
REMARK    4  A    between atoms: C_16  and  C_17
REMARK    5  A    between atoms: C_24  and  C_25
REMARK    6  A    between atoms: C_25  and  C_26
REMARK                            x       y       z     vdW  Elec       q    Type
REMARK                         _______ _______ _______ _____ _____    ______ ____
ROOT
ATOM      1  C   UNL     1       0.013   1.048   0.812  0.00  0.00    +0.155 C 
ATOM      2  N   UNL     1       0.000  -0.255   0.141  0.00  0.00    -0.280 N 
ATOM      3  C   UNL     1      -1.205  -0.833  -0.224  0.00  0.00    +0.170 A 
ATOM      4  C   UNL     1      -1.189  -2.070  -0.860  0.00  0.00    +0.153 A 
ATOM      5  C   UNL     1       0.045  -2.696  -1.113  0.00  0.00    +0.280 A 
ATOM      6  O   UNL     1       0.083  -3.780  -1.669  0.00  0.00    -0.265 OA
ATOM      7  N   UNL     1       1.186  -2.084  -0.734  0.00  0.00    -0.273 N 
ATOM      8  H   UNL     1       2.038  -2.513  -0.907  0.00  0.00    +0.173 HD
ATOM      9  C   UNL     1       1.159  -0.886  -0.125  0.00  0.00    +0.331 A 
ATOM     10  O   UNL     1       2.208  -0.362   0.198  0.00  0.00    -0.246 OA
ATOM     11  N   UNL     1      -2.514  -2.401  -1.104  0.00  0.00    -0.305 N 
ATOM     12  C   UNL     1      -3.269  -1.379  -0.621  0.00  0.00    +0.218 A 
ATOM     13  N   UNL     1      -2.479  -0.459  -0.103  0.00  0.00    -0.195 NA
ATOM     14  N   UNL     1      -4.643  -1.314  -0.664  0.00  0.00    -0.206 N 
ATOM     15  H   UNL     1      -5.150  -2.038  -1.065  0.00  0.00    +0.177 HD
ENDROOT
BRANCH  14  16
ATOM     16  N   UNL     1      -5.310  -0.204  -0.130  0.00  0.00    -0.188 NA
ATOM     17  C   UNL     1      -6.606  -0.195  -0.064  0.00  0.00    +0.138 C 
BRANCH  17  18
ATOM     18  C   UNL     1      -7.353  -1.466  -0.068  0.00  0.00    -0.005 A 
ATOM     19  C   UNL     1      -8.735  -1.467  -0.277  0.00  0.00    +0.010 A 
ATOM     20  C   UNL     1      -9.427  -2.659  -0.279  0.00  0.00    +0.016 A 
ATOM     21  C   UNL     1      -8.757  -3.854  -0.075  0.00  0.00    +0.018 A 
ATOM     22  C   UNL     1      -7.388  -3.860   0.133  0.00  0.00    +0.016 A 
ATOM     23  C   UNL     1      -6.682  -2.675   0.131  0.00  0.00    +0.010 A 
ATOM     24 BR   UNL     1      -9.715  -5.484  -0.080  0.00  0.00    -0.050 Br
ENDBRANCH  17  18
ENDBRANCH  14  16
BRANCH  11  25
ATOM     25  C   UNL     1      -3.005  -3.618  -1.757  0.00  0.00    +0.130 C 
BRANCH  25  26
ATOM     26  C   UNL     1      -3.248  -4.700  -0.704  0.00  0.00    +0.057 C 
BRANCH  26  27
ATOM     27  C   UNL     1      -3.752  -5.951  -1.375  0.00  0.00    -0.046 A 
ATOM     28  C   UNL     1      -5.110  -6.139  -1.554  0.00  0.00    +0.004 A 
ATOM     29  C   UNL     1      -5.573  -7.287  -2.171  0.00  0.00    +0.000 A 
ATOM     30  C   UNL     1      -4.679  -8.246  -2.608  0.00  0.00    +0.000 A 
ATOM     31  C   UNL     1      -3.321  -8.057  -2.429  0.00  0.00    +0.000 A 
ATOM     32  C   UNL     1      -2.858  -6.907  -1.817  0.00  0.00    +0.004 A 
ENDBRANCH  26  27
ENDBRANCH  25  26
ENDBRANCH  11  25
TORSDOF 5
