REMARK  Name = ZINC06195655
REMARK  12 active torsions:
REMARK  status: ('A' for Active; 'I' for Inactive)
REMARK    1  A    between atoms: C_1  and  C_2
REMARK    2  A    between atoms: C_5  and  C_38
REMARK    3  A    between atoms: C_6  and  N_8
REMARK    4  A    between atoms: C_13  and  C_15
REMARK    5  A    between atoms: C_13  and  C_29
REMARK    6  A    between atoms: C_13  and  N_74
REMARK    7  A    between atoms: C_19  and  C_28
REMARK    8  A    between atoms: C_20  and  C_27
REMARK    9  A    between atoms: N_33  and  C_34
REMARK   10  A    between atoms: C_34  and  C_35
REMARK   11  A    between atoms: C_34  and  C_36
REMARK   12  A    between atoms: C_34  and  C_37
REMARK                            x       y       z     vdW  Elec       q    Type
REMARK                         _______ _______ _______ _____ _____    ______ ____
ROOT
ATOM      1  C   UNL     1      -5.122   3.836   0.048  0.00  0.00    +0.039 C 
ENDROOT
BRANCH   1   2
ATOM      2  C   UNL     1      -3.894   2.963   0.088  0.00  0.00    +0.011 A 
ATOM      3  C   UNL     1      -3.597   2.166  -0.968  0.00  0.00    +0.017 A 
ATOM      4  C   UNL     1      -2.397   1.330  -0.897  0.00  0.00    -0.001 A 
ATOM      5  C   UNL     1      -2.039   0.488  -1.955  0.00  0.00    +0.013 A 
ATOM      6  C   UNL     1      -0.913  -0.280  -1.858  0.00  0.00    -0.047 A 
ATOM      7  C   UNL     1      -0.122  -0.232  -0.719  0.00  0.00    -0.046 A 
ATOM      8  C   UNL     1      -0.456   0.590   0.336  0.00  0.00    +0.030 A 
ATOM      9  C   UNL     1      -1.600   1.377   0.262  0.00  0.00    +0.049 A 
ATOM     10  N   UNL     1      -1.954   2.214   1.299  0.00  0.00    -0.322 N 
ATOM     11  H   UNL     1      -1.401   2.249   2.095  0.00  0.00    +0.169 HD
ATOM     12  C   UNL     1      -3.058   2.978   1.225  0.00  0.00    +0.251 A 
ATOM     13  O   UNL     1      -3.343   3.701   2.163  0.00  0.00    -0.268 OA
ATOM     14  C   UNL     1       1.115  -1.089  -0.633  0.00  0.00    +0.044 C 
ATOM     15  C   UNL     1      -0.528  -1.187  -2.998  0.00  0.00    +0.044 C 
ENDBRANCH   1   2
BRANCH   1  21
ATOM     16  N   UNL     1      -8.435   2.492   2.299  0.00  0.00    -0.333 N 
ATOM     17  C   UNL     1      -8.114   3.926   2.334  0.00  0.00    +0.086 C 
ATOM     18  C   UNL     1      -7.244   4.281   1.126  0.00  0.00    -0.058 C 
ATOM     19  C   UNL     1      -6.340   2.036   1.117  0.00  0.00    -0.058 C 
ATOM     20  C   UNL     1      -7.210   1.681   2.325  0.00  0.00    +0.086 C 
ATOM     21  N   UNL     1      -6.006   3.475   1.176  0.00  0.00    +0.391 N 
ATOM     22  H   UNL     1      -5.518   3.668   2.058  0.00  0.00    -0.080 HD
BRANCH  16  28
ATOM     23  C   UNL     1      -9.305   2.213   7.128  0.00  0.00    +0.044 C 
ATOM     24  C   UNL     1      -9.736   1.998   5.700  0.00  0.00    -0.049 A 
ATOM     25  C   UNL     1     -10.979   1.456   5.428  0.00  0.00    +0.004 A 
ATOM     26  C   UNL     1     -11.379   1.258   4.119  0.00  0.00    +0.005 A 
ATOM     27  C   UNL     1     -10.539   1.605   3.079  0.00  0.00    -0.029 A 
ATOM     28  C   UNL     1      -9.288   2.144   3.349  0.00  0.00    +0.033 A 
ATOM     29  C   UNL     1      -8.890   2.343   4.665  0.00  0.00    +0.026 A 
ATOM     30  C   UNL     1     -10.978   1.393   1.653  0.00  0.00    +0.045 C 
ENDBRANCH  16  28
ENDBRANCH   1  21
BRANCH   1  31
ATOM     31  C   UNL     1      -5.835   3.640  -1.265  0.00  0.00    +0.143 A 
ATOM     32  N   UNL     1      -6.518   2.584  -1.635  0.00  0.00    -0.115 NA
ATOM     33  N   UNL     1      -6.973   2.800  -2.821  0.00  0.00    -0.023 NA
ATOM     34  N   UNL     1      -6.598   3.966  -3.217  0.00  0.00    -0.043 NA
ATOM     35  N   UNL     1      -5.899   4.518  -2.284  0.00  0.00    -0.225 N 
BRANCH  35  36
ATOM     36  C   UNL     1      -5.287   5.848  -2.326  0.00  0.00    +0.059 C 
ATOM     37  C   UNL     1      -3.781   5.724  -2.082  0.00  0.00    +0.036 C 
ATOM     38  C   UNL     1      -5.532   6.479  -3.698  0.00  0.00    +0.036 C 
ATOM     39  C   UNL     1      -5.909   6.730  -1.241  0.00  0.00    +0.036 C 
ENDBRANCH  35  36
ENDBRANCH   1  31
TORSDOF 5
