REMARK  Name = ZINC16646558
REMARK  7 active torsions:
REMARK  status: ('A' for Active; 'I' for Inactive)
REMARK    1  A    between atoms: C_1  and  C_2
REMARK    2  A    between atoms: C_3  and  N_9
REMARK    3  A    between atoms: C_15  and  C_17
REMARK    4  A    between atoms: C_17  and  N_18
REMARK    5  A    between atoms: N_18  and  C_19
REMARK    6  A    between atoms: C_19  and  C_20
REMARK    7  A    between atoms: C_25  and  C_27
REMARK                            x       y       z     vdW  Elec       q    Type
REMARK                         _______ _______ _______ _____ _____    ______ ____
ROOT
ATOM      1  C   UNL     1       8.424   4.736   0.519  0.00  0.00    +0.204 C 
ENDROOT
BRANCH   1   8
ATOM      2  N   UNL     1       4.508   3.420  -1.933  0.00  0.00    -0.253 N 
ATOM      3  C   UNL     1       4.812   3.822  -0.561  0.00  0.00    +0.224 C 
ATOM      4  N   UNL     1       6.252   4.098  -0.476  0.00  0.00    -0.275 N 
ATOM      5  C   UNL     1       6.789   3.852  -1.822  0.00  0.00    +0.205 C 
ATOM      6  C   UNL     1       5.625   3.422  -2.678  0.00  0.00    +0.238 C 
ATOM      7  O   UNL     1       5.687   3.128  -3.853  0.00  0.00    -0.273 OA
ATOM      8  C   UNL     1       6.939   4.497   0.612  0.00  0.00    +0.235 C 
ATOM      9  O   UNL     1       6.363   4.663   1.666  0.00  0.00    -0.274 OA
BRANCH   2  12
ATOM     10  C   UNL     1       3.709   0.693  -1.774  0.00  0.00    +0.047 C 
ATOM     11  C   UNL     1       2.805   1.756  -2.343  0.00  0.00    -0.011 A 
ATOM     12  C   UNL     1       3.235   3.075  -2.401  0.00  0.00    +0.042 A 
ATOM     13  C   UNL     1       2.399   4.052  -2.926  0.00  0.00    +0.024 A 
ATOM     14  C   UNL     1       1.143   3.710  -3.388  0.00  0.00    +0.003 A 
ATOM     15  C   UNL     1       0.717   2.396  -3.329  0.00  0.00    +0.020 A 
ATOM     16  C   UNL     1       1.548   1.419  -2.807  0.00  0.00    +0.046 A 
ATOM     17 CL   UNL     1       1.009  -0.230  -2.734  0.00  0.00    -0.083 Cl
ENDBRANCH   2  12
ENDBRANCH   1   8
BRANCH   1  18
ATOM     18  N   UNL     1       8.933   5.159   1.826  0.00  0.00    -0.281 N 
ATOM     19  C   UNL     1       9.508   4.259   2.649  0.00  0.00    +0.247 C 
ATOM     20  O   UNL     1       9.825   4.582   3.777  0.00  0.00    -0.270 OA
BRANCH  19  21
ATOM     21  C   UNL     1       9.751   2.879   2.179  0.00  0.00    +0.037 A 
ATOM     22  C   UNL     1       8.923   2.312   1.209  0.00  0.00    +0.014 A 
ATOM     23  C   UNL     1       9.159   1.026   0.771  0.00  0.00    +0.021 A 
ATOM     24  C   UNL     1      10.209   0.293   1.299  0.00  0.00    +0.041 A 
ATOM     25  C   UNL     1      11.030   0.848   2.266  0.00  0.00    +0.021 A 
ATOM     26  C   UNL     1      10.808   2.135   2.708  0.00  0.00    +0.014 A 
ATOM     27 CL   UNL     1      10.496  -1.328   0.747  0.00  0.00    -0.084 Cl
ENDBRANCH  19  21
BRANCH  18  28
ATOM     28  C   UNL     1       8.818   6.560   2.239  0.00  0.00    +0.182 C 
BRANCH  28  29
ATOM     29  C   UNL     1       7.591   6.731   3.097  0.00  0.00    +0.122 A 
ATOM     30  C   UNL     1       7.552   6.652   4.439  0.00  0.00    +0.046 A 
ATOM     31  C   UNL     1       6.210   6.875   4.824  0.00  0.00    +0.041 A 
ATOM     32  C   UNL     1       5.509   7.078   3.694  0.00  0.00    +0.195 A 
ATOM     33  O   UNL     1       6.352   6.995   2.651  0.00  0.00    -0.466 OA
ENDBRANCH  28  29
ENDBRANCH  18  28
ENDBRANCH   1  18
TORSDOF 6
