REMARK  Name = ZINC44974028
REMARK  3 active torsions:
REMARK  status: ('A' for Active; 'I' for Inactive)
REMARK    1  A    between atoms: C_4  and  O_27
REMARK    2  A    between atoms: C_5  and  C_7
REMARK    3  A    between atoms: O_27  and  C_28
REMARK                            x       y       z     vdW  Elec       q    Type
REMARK                         _______ _______ _______ _____ _____    ______ ____
ROOT
ATOM      1  C   UNL     1       1.227  -2.187  -0.022  0.00  0.00    +0.096 C 
ATOM      2  C   UNL     1       0.530  -2.680  -1.256  0.00  0.00    +0.067 A 
ATOM      3  C   UNL     1      -0.739  -3.170  -1.195  0.00  0.00    +0.113 A 
ATOM      4  N   UNL     1      -1.353  -3.608  -2.343  0.00  0.00    -0.295 N 
ATOM      5  H   UNL     1      -2.258  -3.956  -2.304  0.00  0.00    +0.172 HD
ATOM      6  C   UNL     1      -0.706  -3.557  -3.522  0.00  0.00    +0.328 A 
ATOM      7  O   UNL     1      -1.265  -3.946  -4.529  0.00  0.00    -0.247 OA
ATOM      8  N   UNL     1       0.549  -3.080  -3.602  0.00  0.00    -0.275 N 
ATOM      9  H   UNL     1       1.000  -3.053  -4.461  0.00  0.00    +0.173 HD
ATOM     10  C   UNL     1       1.187  -2.640  -2.500  0.00  0.00    +0.260 A 
ATOM     11  O   UNL     1       2.325  -2.211  -2.579  0.00  0.00    -0.267 OA
ATOM     12  N   UNL     1      -1.397  -3.229   0.008  0.00  0.00    -0.303 N 
ATOM     13  C   UNL     1      -0.703  -3.186   1.187  0.00  0.00    +0.017 C 
ATOM     14  C   UNL     1       0.552  -2.696   1.226  0.00  0.00    +0.024 C 
ATOM     15  C   UNL     1       1.270  -2.644   2.434  0.00  0.00    +0.162 C 
ATOM     16  O   UNL     1       2.406  -2.212   2.435  0.00  0.00    -0.292 OA
ATOM     17  C   UNL     1       0.659  -3.114   3.726  0.00  0.00    +0.080 C 
ATOM     18  C   UNL     1      -0.861  -2.937   3.651  0.00  0.00    +0.014 C 
ATOM     19  C   UNL     1      -1.377  -3.702   2.435  0.00  0.00    +0.051 C 
ATOM     20  H   UNL     1      -2.365  -3.303   0.022  0.00  0.00    +0.153 HD
ENDROOT
BRANCH   1  25
ATOM     21  C   UNL     1      -0.017   1.378   0.010  0.00  0.00    +0.001 A 
ATOM     22  C   UNL     1       1.170   2.088   0.002  0.00  0.00    +0.004 A 
ATOM     23  C   UNL     1       2.377   1.417  -0.013  0.00  0.00    +0.046 A 
ATOM     24  C   UNL     1       2.399   0.030  -0.021  0.00  0.00    +0.131 A 
ATOM     25  C   UNL     1       1.207  -0.680  -0.013  0.00  0.00    +0.007 A 
ATOM     26  C   UNL     1       0.002  -0.004   0.002  0.00  0.00    +0.008 A 
BRANCH  24  27
ATOM     27  O   UNL     1       3.586  -0.632  -0.037  0.00  0.00    -0.434 OA
BRANCH  27  28
ATOM     28  C   UNL     1       4.772   0.164  -0.045  0.00  0.00    +0.541 C 
ATOM     29  F   UNL     1       4.781   0.977  -1.183  0.00  0.00    -0.166 F 
ATOM     30  F   UNL     1       4.804   0.965   1.101  0.00  0.00    -0.166 F 
ENDBRANCH  27  28
ENDBRANCH  24  27
ENDBRANCH   1  25
TORSDOF 3
