REMARK  Name = ZINC48666170
REMARK  6 active torsions:
REMARK  status: ('A' for Active; 'I' for Inactive)
REMARK    1  A    between atoms: C_1  and  C_2
REMARK    2  A    between atoms: C_3  and  C_18
REMARK    3  A    between atoms: C_4  and  C_10
REMARK    4  A    between atoms: C_12  and  N_15
REMARK    5  A    between atoms: C_18  and  O_20
REMARK    6  A    between atoms: O_20  and  C_21
REMARK                            x       y       z     vdW  Elec       q    Type
REMARK                         _______ _______ _______ _____ _____    ______ ____
ROOT
ATOM      1  C   UNL     1      -0.018   1.503   0.010  0.00  0.00    +0.061 C 
ATOM      2  C   UNL     1       0.002  -0.004   0.002  0.00  0.00    +0.019 C 
ATOM      3  C   UNL     1      -1.165  -0.684   0.004  0.00  0.00    +0.078 C 
ATOM      4  C   UNL     1      -1.099  -2.198  -0.005  0.00  0.00    +0.142 C 
ATOM      5  N   UNL     1       0.242  -2.807  -0.014  0.00  0.00    -0.315 N 
ATOM      6  C   UNL     1       1.316  -1.993  -0.015  0.00  0.00    +0.135 C 
ATOM      7  S   UNL     1       2.881  -2.687  -0.026  0.00  0.00    -0.019 S 
ATOM      8  N   UNL     1       1.199  -0.659  -0.013  0.00  0.00    -0.300 N 
ATOM      9  H   UNL     1       0.350  -3.771  -0.020  0.00  0.00    +0.149 HD
ATOM     10  H   UNL     1       2.011  -0.128  -0.018  0.00  0.00    +0.154 HD
ENDROOT
BRANCH   4  11
ATOM     11  C   UNL     1      -1.840  -2.689  -1.222  0.00  0.00    -0.013 A 
ATOM     12  C   UNL     1      -3.137  -3.155  -1.113  0.00  0.00    +0.046 A 
ATOM     13  C   UNL     1      -3.775  -3.589  -2.227  0.00  0.00    +0.164 A 
ATOM     14  S   UNL     1      -2.531  -3.344  -3.484  0.00  0.00    -0.073 S 
ATOM     15  C   UNL     1      -1.247  -2.675  -2.440  0.00  0.00    +0.053 A 
BRANCH  13  16
ATOM     16  N   UNL     1      -5.147  -4.127  -2.365  0.00  0.00    +0.063 N 
ATOM     17  O   UNL     1      -5.860  -4.223  -1.393  0.00  0.00    -0.126 OA
ATOM     18  O   UNL     1      -5.556  -4.469  -3.450  0.00  0.00    -0.126 OA
ENDBRANCH  13  16
ENDBRANCH   4  11
BRANCH   3  19
ATOM     19  C   UNL     1      -2.406  -0.007   0.014  0.00  0.00    +0.338 C 
ATOM     20  O   UNL     1      -2.436   1.210   0.021  0.00  0.00    -0.245 OA
BRANCH  19  21
ATOM     21  O   UNL     1      -3.558  -0.710   0.016  0.00  0.00    -0.465 OA
ATOM     22  C   UNL     1      -4.775   0.040   0.026  0.00  0.00    +0.280 C 
ENDBRANCH  19  21
ENDBRANCH   3  19
TORSDOF 4
