REMARK  Name = ZINC59385695
REMARK  6 active torsions:
REMARK  status: ('A' for Active; 'I' for Inactive)
REMARK    1  A    between atoms: C_1  and  C_2
REMARK    2  A    between atoms: C_3  and  C_17
REMARK    3  A    between atoms: C_4  and  C_10
REMARK    4  A    between atoms: N_19  and  N_20
REMARK    5  A    between atoms: C_21  and  C_22
REMARK    6  A    between atoms: C_27  and  O_28
REMARK                            x       y       z     vdW  Elec       q    Type
REMARK                         _______ _______ _______ _____ _____    ______ ____
ROOT
ATOM      1  C   UNL     1      -0.132   1.530  -0.041  0.00  0.00    +0.061 C 
ATOM      2  C   UNL     1      -0.065   0.025  -0.022  0.00  0.00    +0.019 C 
ATOM      3  C   UNL     1      -1.210  -0.691  -0.025  0.00  0.00    +0.057 C 
ATOM      4  C   UNL     1      -1.097  -2.202  -0.005  0.00  0.00    +0.143 C 
ATOM      5  N   UNL     1       0.262  -2.770   0.015  0.00  0.00    -0.288 N 
ATOM      6  C   UNL     1       1.311  -1.924   0.016  0.00  0.00    +0.304 C 
ATOM      7  O   UNL     1       2.436  -2.383   0.032  0.00  0.00    -0.252 OA
ATOM      8  N   UNL     1       1.153  -0.594  -0.008  0.00  0.00    -0.273 N 
ATOM      9  H   UNL     1       0.398  -3.730   0.029  0.00  0.00    +0.151 HD
ATOM     10  H   UNL     1       1.949  -0.039  -0.011  0.00  0.00    +0.156 HD
ENDROOT
BRANCH   4  11
ATOM     11  C   UNL     1      -1.829  -2.706   1.212  0.00  0.00    -0.004 A 
ATOM     12  C   UNL     1      -1.148  -2.893   2.400  0.00  0.00    +0.007 A 
ATOM     13  C   UNL     1      -1.820  -3.356   3.516  0.00  0.00    +0.000 A 
ATOM     14  C   UNL     1      -3.172  -3.632   3.444  0.00  0.00    +0.001 A 
ATOM     15  C   UNL     1      -3.854  -3.446   2.257  0.00  0.00    +0.020 A 
ATOM     16  C   UNL     1      -3.184  -2.977   1.141  0.00  0.00    +0.046 A 
ATOM     17 CL   UNL     1      -4.041  -2.737  -0.350  0.00  0.00    -0.083 Cl
ENDBRANCH   4  11
BRANCH   3  18
ATOM     18  C   UNL     1      -2.473  -0.051  -0.045  0.00  0.00    +0.263 C 
ATOM     19  O   UNL     1      -3.089   0.048  -1.091  0.00  0.00    -0.269 OA
ATOM     20  N   UNL     1      -2.994   0.448   1.093  0.00  0.00    -0.203 N 
ATOM     21  H   UNL     1      -2.473   0.435   1.912  0.00  0.00    +0.178 HD
BRANCH  20  22
ATOM     22  N   UNL     1      -4.287   0.987   1.095  0.00  0.00    -0.187 NA
ATOM     23  C   UNL     1      -4.826   1.378   2.209  0.00  0.00    +0.142 C 
BRANCH  23  24
ATOM     24  C   UNL     1      -6.225   1.841   2.229  0.00  0.00    +0.036 A 
ATOM     25  C   UNL     1      -6.807   2.269   3.424  0.00  0.00    +0.013 A 
ATOM     26  C   UNL     1      -8.116   2.701   3.436  0.00  0.00    +0.001 A 
ATOM     27  C   UNL     1      -8.858   2.712   2.267  0.00  0.00    +0.004 A 
ATOM     28  C   UNL     1      -8.293   2.292   1.077  0.00  0.00    +0.046 A 
ATOM     29  C   UNL     1      -6.978   1.861   1.046  0.00  0.00    +0.125 A 
BRANCH  29  30
ATOM     30  O   UNL     1      -6.420   1.453  -0.123  0.00  0.00    -0.506 OA
ATOM     31  H   UNL     1      -6.530   0.509  -0.303  0.00  0.00    +0.292 HD
ENDBRANCH  29  30
ENDBRANCH  23  24
ENDBRANCH  20  22
ENDBRANCH   3  18
TORSDOF 5
