REMARK  Name = ZINC40426483
REMARK  12 active torsions:
REMARK  status: ('A' for Active; 'I' for Inactive)
REMARK    1  A    between atoms: C_1  and  C_2
REMARK    2  A    between atoms: C_2  and  C_3
REMARK    3  A    between atoms: C_2  and  C_4
REMARK    4  A    between atoms: C_4  and  C_5
REMARK    5  A    between atoms: C_5  and  C_7
REMARK    6  A    between atoms: C_5  and  N_18
REMARK    7  A    between atoms: N_9  and  C_10
REMARK    8  A    between atoms: N_9  and  C_11
REMARK    9  A    between atoms: N_14  and  C_17
REMARK   10  A    between atoms: C_24  and  C_31
REMARK   11  A    between atoms: N_29  and  C_30
REMARK   12  A    between atoms: C_36  and  C_37
REMARK                            x       y       z     vdW  Elec       q    Type
REMARK                         _______ _______ _______ _____ _____    ______ ____
ROOT
ATOM      1  N   UNL     1      -2.587   0.565  -0.920  0.00  0.00    -0.281 N 
ATOM      2  C   UNL     1      -1.786   1.119  -2.022  0.00  0.00    +0.160 C 
ATOM      3  C   UNL     1      -2.069   2.604  -2.000  0.00  0.00    +0.042 C 
ATOM      4  C   UNL     1      -2.934   2.811  -0.987  0.00  0.00    +0.058 C 
ATOM      5  C   UNL     1      -3.243   1.592  -0.349  0.00  0.00    +0.247 C 
ATOM      6  O   UNL     1      -4.003   1.482   0.596  0.00  0.00    -0.270 OA
ATOM      7  C   UNL     1      -3.396   4.232  -0.733  0.00  0.00    +0.142 C 
ATOM      8  N   UNL     1      -2.857   5.276  -1.620  0.00  0.00    -0.288 N 
ATOM      9  C   UNL     1      -1.998   4.912  -2.593  0.00  0.00    +0.307 C 
ATOM     10  O   UNL     1      -1.548   5.767  -3.330  0.00  0.00    -0.252 OA
ATOM     11  N   UNL     1      -1.623   3.639  -2.772  0.00  0.00    -0.260 N 
ATOM     12  C   UNL     1      -0.684   3.340  -3.856  0.00  0.00    +0.139 C 
ATOM     13  H   UNL     1      -3.115   6.205  -1.508  0.00  0.00    +0.151 HD
ENDROOT
BRANCH   7  14
ATOM     14  C   UNL     1      -3.030   4.593   0.684  0.00  0.00    -0.011 A 
ATOM     15  C   UNL     1      -1.705   4.790   1.027  0.00  0.00    +0.006 A 
ATOM     16  C   UNL     1      -1.370   5.121   2.326  0.00  0.00    +0.000 A 
ATOM     17  C   UNL     1      -2.359   5.256   3.283  0.00  0.00    +0.001 A 
ATOM     18  C   UNL     1      -3.683   5.060   2.939  0.00  0.00    +0.013 A 
ATOM     19  C   UNL     1      -4.019   4.733   1.639  0.00  0.00    +0.060 A 
BRANCH  19  20
ATOM     20  C   UNL     1      -5.464   4.524   1.264  0.00  0.00    +0.418 C 
ATOM     21  F   UNL     1      -6.266   4.660   2.402  0.00  0.00    -0.166 F 
ATOM     22  F   UNL     1      -5.841   5.477   0.311  0.00  0.00    -0.166 F 
ATOM     23  F   UNL     1      -5.626   3.241   0.729  0.00  0.00    -0.166 F 
ENDBRANCH  19  20
ENDBRANCH   7  14
BRANCH   1  24
ATOM     24  C   UNL     1      -2.661  -0.843  -0.521  0.00  0.00    +0.163 C 
BRANCH  24  25
ATOM     25  C   UNL     1      -4.059  -1.357  -0.751  0.00  0.00    +0.236 C 
ATOM     26  O   UNL     1      -4.909  -0.619  -1.202  0.00  0.00    -0.274 OA
ATOM     27  N   UNL     1      -4.364  -2.635  -0.454  0.00  0.00    -0.300 N 
ATOM     28  C   UNL     1      -3.336  -3.526   0.092  0.00  0.00    +0.132 C 
BRANCH  27  29
ATOM     29  C   UNL     1      -5.723  -3.135  -0.677  0.00  0.00    +0.072 C 
ATOM     30  C   UNL     1      -6.313  -3.623   0.650  0.00  0.00    +0.004 C 
ATOM     31  C   UNL     1      -7.701  -4.216   0.397  0.00  0.00    -0.077 C 
ATOM     32  N   UNL     1      -7.592  -5.344  -0.536  0.00  0.00    +0.378 N 
ATOM     33  C   UNL     1      -7.094  -4.871  -1.834  0.00  0.00    -0.077 C 
ATOM     34  C   UNL     1      -5.683  -4.303  -1.666  0.00  0.00    +0.004 C 
ATOM     35  C   UNL     1      -8.914  -5.958  -0.716  0.00  0.00    -0.096 C 
ATOM     36  H   UNL     1      -6.953  -6.029  -0.161  0.00  0.00    -0.082 HD
ENDBRANCH  27  29
ENDBRANCH  24  25
BRANCH  24  37
ATOM     37  C   UNL     1      -2.307  -0.972   0.962  0.00  0.00    +0.035 C 
BRANCH  37  39
ATOM     38  C   UNL     1      -0.563  -0.491   2.685  0.00  0.00    +0.007 C 
ATOM     39  C   UNL     1      -0.869  -0.498   1.186  0.00  0.00    -0.015 C 
ATOM     40  C   UNL     1       0.098  -1.445   0.472  0.00  0.00    +0.007 C 
ENDBRANCH  37  39
ENDBRANCH  24  37
ENDBRANCH   1  24
TORSDOF 7
