REMARK  Name = ZINC49116688
REMARK  6 active torsions:
REMARK  status: ('A' for Active; 'I' for Inactive)
REMARK    1  A    between atoms: C_1  and  C_2
REMARK    2  A    between atoms: C_2  and  C_3
REMARK    3  A    between atoms: C_9  and  N_11
REMARK    4  A    between atoms: C_12  and  C_14
REMARK    5  A    between atoms: C_17  and  N_21
REMARK    6  A    between atoms: C_19  and  N_20
REMARK                            x       y       z     vdW  Elec       q    Type
REMARK                         _______ _______ _______ _____ _____    ______ ____
ROOT
ATOM      1  N   UNL     1      -0.714  -2.658   1.018  0.00  0.00    -0.308 N 
ATOM      2  C   UNL     1      -0.108  -3.854   0.877  0.00  0.00    +0.246 C 
ATOM      3  O   UNL     1      -0.186  -4.455  -0.178  0.00  0.00    -0.270 OA
ATOM      4  H   UNL     1      -0.652  -2.179   1.859  0.00  0.00    +0.149 HD
ENDROOT
BRANCH   1  10
ATOM      5  C   UNL     1      -1.513  -0.560   0.049  0.00  0.00    +0.009 C 
ATOM      6  C   UNL     1      -2.200  -0.197   1.368  0.00  0.00    +0.005 C 
ATOM      7  C   UNL     1      -3.625  -0.755   1.370  0.00  0.00    +0.000 C 
ATOM      8  C   UNL     1      -3.578  -2.277   1.222  0.00  0.00    +0.002 C 
ATOM      9  C   UNL     1      -2.891  -2.639  -0.096  0.00  0.00    +0.022 C 
ATOM     10  C   UNL     1      -1.466  -2.082  -0.099  0.00  0.00    +0.076 C 
BRANCH   5  12
ATOM     11  C   UNL     1      -0.139   1.526   0.070  0.00  0.00    +0.004 C 
ATOM     12  C   UNL     1      -0.088  -0.003   0.047  0.00  0.00    +0.002 C 
ENDBRANCH   5  12
ENDBRANCH   1  10
BRANCH   2  13
ATOM     13  C   UNL     1       0.647  -4.433   1.999  0.00  0.00    +0.057 A 
ATOM     14  C   UNL     1       0.844  -3.692   3.170  0.00  0.00    +0.016 A 
ATOM     15  C   UNL     1       1.544  -4.230   4.211  0.00  0.00    +0.023 A 
ATOM     16  C   UNL     1       2.069  -5.518   4.117  0.00  0.00    +0.026 A 
ATOM     17  C   UNL     1       1.884  -6.267   2.963  0.00  0.00    +0.046 A 
ATOM     18  C   UNL     1       1.169  -5.734   1.902  0.00  0.00    +0.039 A 
BRANCH  18  19
ATOM     19  N   UNL     1       0.976  -6.480   0.746  0.00  0.00    -0.357 N 
ATOM     20  H   UNL     1       0.548  -6.076  -0.026  0.00  0.00    +0.142 HD
ATOM     21  H   UNL     1       1.267  -7.405   0.710  0.00  0.00    +0.142 HD
ENDBRANCH  18  19
BRANCH  16  22
ATOM     22  N   UNL     1       2.782  -6.054   5.185  0.00  0.00    -0.358 N 
ATOM     23  H   UNL     1       2.912  -5.532   5.992  0.00  0.00    +0.142 HD
ATOM     24  H   UNL     1       3.148  -6.950   5.122  0.00  0.00    +0.142 HD
ENDBRANCH  16  22
ENDBRANCH   2  13
TORSDOF 5
