REMARK  Name = ZINC13364193
REMARK  10 active torsions:
REMARK  status: ('A' for Active; 'I' for Inactive)
REMARK    1  A    between atoms: C_1  and  C_2
REMARK    2  A    between atoms: C_2  and  O_3
REMARK    3  A    between atoms: O_3  and  C_4
REMARK    4  A    between atoms: C_9  and  N_10
REMARK    5  A    between atoms: C_11  and  C_13
REMARK    6  A    between atoms: C_13  and  S_14
REMARK    7  A    between atoms: S_14  and  C_15
REMARK    8  A    between atoms: C_19  and  C_29
REMARK    9  A    between atoms: N_25  and  C_26
REMARK   10  A    between atoms: C_26  and  C_27
REMARK                            x       y       z     vdW  Elec       q    Type
REMARK                         _______ _______ _______ _____ _____    ______ ____
ROOT
ATOM      1  C   UNL     1      -2.083   2.033  -2.302  0.00  0.00    +0.173 A 
ATOM      2  N   UNL     1      -2.783   1.689  -3.354  0.00  0.00    -0.223 NA
ATOM      3  C   UNL     1      -3.665   0.662  -3.314  0.00  0.00    +0.080 A 
ATOM      4  C   UNL     1      -4.415   0.300  -4.437  0.00  0.00    +0.043 A 
ATOM      5  C   UNL     1      -5.307  -0.760  -4.348  0.00  0.00    +0.065 A 
ATOM      6  C   UNL     1      -5.457  -1.465  -3.147  0.00  0.00    +0.016 A 
ATOM      7  C   UNL     1      -4.730  -1.120  -2.044  0.00  0.00    +0.016 A 
ATOM      8  C   UNL     1      -3.829  -0.058  -2.110  0.00  0.00    +0.065 A 
ATOM      9  C   UNL     1      -3.025   0.347  -0.945  0.00  0.00    +0.263 A 
ATOM     10  O   UNL     1      -3.121  -0.234   0.120  0.00  0.00    -0.267 OA
ATOM     11  N   UNL     1      -2.175   1.388  -1.102  0.00  0.00    -0.283 N 
ENDROOT
BRANCH   5  12
ATOM     12  C   UNL     1      -6.104  -1.150  -5.532  0.00  0.00    +0.387 C 
ATOM     13  O   UNL     1      -5.978  -0.543  -6.576  0.00  0.00    -0.241 OA
ATOM     14  O   UNL     1      -6.971  -2.178  -5.452  0.00  0.00    -0.241 OA
ENDBRANCH   5  12
BRANCH   1  15
ATOM     15  S   UNL     1      -0.964   3.387  -2.443  0.00  0.00    -0.078 S 
BRANCH  15  16
ATOM     16  C   UNL     1      -1.240   3.844  -4.173  0.00  0.00    +0.173 C 
BRANCH  16  18
ATOM     17  N   UNL     1      -0.400   5.532  -5.774  0.00  0.00    -0.282 N 
ATOM     18  C   UNL     1      -0.363   5.016  -4.529  0.00  0.00    +0.228 C 
ATOM     19  O   UNL     1       0.377   5.495  -3.696  0.00  0.00    -0.275 OA
ATOM     20  H   UNL     1      -0.930   5.100  -6.462  0.00  0.00    +0.155 HD
BRANCH  17  26
ATOM     21  C   UNL     1       0.721   6.949  -7.385  0.00  0.00    +0.142 A 
ATOM     22  C   UNL     1       1.440   8.098  -7.676  0.00  0.00    +0.047 A 
ATOM     23  C   UNL     1       1.765   8.984  -6.666  0.00  0.00    +0.004 A 
ATOM     24  C   UNL     1       1.374   8.729  -5.364  0.00  0.00    +0.002 A 
ATOM     25  C   UNL     1       0.653   7.588  -5.067  0.00  0.00    +0.027 A 
ATOM     26  C   UNL     1       0.328   6.691  -6.074  0.00  0.00    +0.076 A 
BRANCH  21  27
ATOM     27  O   UNL     1       0.400   6.077  -8.377  0.00  0.00    -0.490 OA
BRANCH  27  29
ATOM     28  C   UNL     1       0.385   5.316 -10.671  0.00  0.00    +0.048 C 
ATOM     29  C   UNL     1       0.836   6.407  -9.697  0.00  0.00    +0.226 C 
ENDBRANCH  27  29
ENDBRANCH  21  27
ENDBRANCH  17  26
ENDBRANCH  16  18
ENDBRANCH  15  16
ENDBRANCH   1  15
BRANCH  11  30
ATOM     30  C   UNL     1      -1.353   1.831   0.026  0.00  0.00    +0.154 C 
BRANCH  30  31
ATOM     31  C   UNL     1      -0.043   1.085   0.017  0.00  0.00    -0.013 C 
ATOM     32  C   UNL     1       1.087   1.746   0.007  0.00  0.00    +0.005 C 
ENDBRANCH  30  31
ENDBRANCH  11  30
TORSDOF 9
