REMARK  Name = ZINC35342127
REMARK  4 active torsions:
REMARK  status: ('A' for Active; 'I' for Inactive)
REMARK    1  A    between atoms: C_4  and  N_17
REMARK    2  A    between atoms: C_7  and  N_11
REMARK    3  A    between atoms: N_11  and  C_12
REMARK    4  A    between atoms: C_12  and  C_13
REMARK                            x       y       z     vdW  Elec       q    Type
REMARK                         _______ _______ _______ _____ _____    ______ ____
ROOT
ATOM      1  C   UNL     1      -0.017   1.388   0.010  0.00  0.00    +0.018 A 
ATOM      2  C   UNL     1       1.159   2.086   0.002  0.00  0.00    +0.013 A 
ATOM      3  C   UNL     1       2.362   1.359  -0.013  0.00  0.00    +0.021 A 
ATOM      4  C   UNL     1       3.611   2.013  -0.021  0.00  0.00    +0.034 A 
ATOM      5  C   UNL     1       4.770   1.267  -0.036  0.00  0.00    +0.025 A 
ATOM      6  C   UNL     1       4.721  -0.124  -0.043  0.00  0.00    +0.027 A 
ATOM      7  C   UNL     1       3.515  -0.789  -0.036  0.00  0.00    +0.051 A 
ATOM      8  C   UNL     1       2.309  -0.056  -0.020  0.00  0.00    +0.069 A 
ATOM      9  N   UNL     1       1.127  -0.678  -0.012  0.00  0.00    -0.359 N 
ATOM     10  C   UNL     1       0.002  -0.004   0.002  0.00  0.00    +0.083 A 
ATOM     11  H   UNL     1       1.100  -1.648  -0.017  0.00  0.00    +0.165 HD
ENDROOT
BRANCH   4  12
ATOM     12  N   UNL     1       3.674   3.408  -0.014  0.00  0.00    -0.357 N 
ATOM     13  H   UNL     1       2.857   3.930  -0.004  0.00  0.00    +0.142 HD
ATOM     14  H   UNL     1       4.535   3.855  -0.020  0.00  0.00    +0.142 HD
ENDBRANCH   4  12
BRANCH   7  15
ATOM     15  N   UNL     1       3.486  -2.188  -0.044  0.00  0.00    -0.342 N 
ATOM     16  H   UNL     1       2.636  -2.655  -0.039  0.00  0.00    +0.146 HD
BRANCH  15  17
ATOM     17  C   UNL     1       4.739  -2.947  -0.061  0.00  0.00    +0.105 C 
BRANCH  17  18
ATOM     18  C   UNL     1       4.428  -4.445  -0.067  0.00  0.00    +0.006 C 
ATOM     19  C   UNL     1       4.256  -5.044   1.339  0.00  0.00    +0.005 C 
ATOM     20  C   UNL     1       5.027  -6.271   0.824  0.00  0.00    +0.001 C 
ATOM     21  C   UNL     1       5.676  -5.333  -0.207  0.00  0.00    +0.005 C 
ENDBRANCH  17  18
ENDBRANCH  15  17
ENDBRANCH   7  15
TORSDOF 4
