REMARK  Name = ZINC67382890
REMARK  6 active torsions:
REMARK  status: ('A' for Active; 'I' for Inactive)
REMARK    1  A    between atoms: C_1  and  C_2
REMARK    2  A    between atoms: N_4  and  C_5
REMARK    3  A    between atoms: C_5  and  C_6
REMARK    4  A    between atoms: N_11  and  C_13
REMARK    5  A    between atoms: C_13  and  N_14
REMARK    6  A    between atoms: C_16  and  C_19
REMARK                            x       y       z     vdW  Elec       q    Type
REMARK                         _______ _______ _______ _____ _____    ______ ____
ROOT
ATOM      1  C   UNL     1       0.013  -2.639  -2.622  0.00  0.00    -0.010 C 
ATOM      2  C   UNL     1      -1.308  -2.250  -3.292  0.00  0.00    +0.001 C 
ATOM      3  C   UNL     1      -1.337  -2.824  -4.712  0.00  0.00    -0.018 C 
ATOM      4  C   UNL     1      -1.144  -4.341  -4.646  0.00  0.00    -0.076 C 
ATOM      5  N   UNL     1       0.147  -4.647  -4.020  0.00  0.00    +0.394 N 
ATOM      6  C   UNL     1       0.157  -4.162  -2.634  0.00  0.00    -0.071 C 
ATOM      7  H   UNL     1       0.887  -4.196  -4.538  0.00  0.00    -0.079 HD
ENDROOT
BRANCH   1   8
ATOM      8  C   UNL     1       0.020  -2.136  -1.177  0.00  0.00    +0.105 C 
BRANCH   8  12
ATOM      9  C   UNL     1      -0.018   1.503   0.010  0.00  0.00    +0.109 C 
ATOM     10  C   UNL     1       0.002  -0.004   0.002  0.00  0.00    +0.210 C 
ATOM     11  O   UNL     1       0.020  -0.616   1.049  0.00  0.00    -0.276 OA
ATOM     12  N   UNL     1       0.000  -0.672  -1.169  0.00  0.00    -0.315 N 
ATOM     13  H   UNL     1      -0.015  -0.182  -2.006  0.00  0.00    +0.149 HD
ENDBRANCH   8  12
ENDBRANCH   1   8
BRANCH   5  14
ATOM     14  C   UNL     1       0.363  -6.100  -4.030  0.00  0.00    +0.094 C 
BRANCH  14  15
ATOM     15  N   UNL     1       0.482  -6.566  -5.414  0.00  0.00    -0.180 N 
ATOM     16  N   UNL     1      -0.496  -6.952  -6.157  0.00  0.00    -0.132 NA
ATOM     17  C   UNL     1      -0.001  -7.296  -7.330  0.00  0.00    +0.204 A 
ATOM     18  N   UNL     1       1.323  -7.099  -7.260  0.00  0.00    -0.108 NA
ATOM     19  N   UNL     1       1.581  -6.649  -6.079  0.00  0.00    -0.048 NA
BRANCH  17  20
ATOM     20  C   UNL     1      -0.762  -7.802  -8.499  0.00  0.00    +0.023 A 
ATOM     21  C   UNL     1      -2.145  -7.950  -8.423  0.00  0.00    +0.013 A 
ATOM     22  C   UNL     1      -2.848  -8.421  -9.513  0.00  0.00    +0.021 A 
ATOM     23  C   UNL     1      -2.181  -8.747 -10.681  0.00  0.00    +0.041 A 
ATOM     24  C   UNL     1      -0.807  -8.601 -10.762  0.00  0.00    +0.021 A 
ATOM     25  C   UNL     1      -0.096  -8.126  -9.679  0.00  0.00    +0.013 A 
ATOM     26 CL   UNL     1      -3.071  -9.340 -12.049  0.00  0.00    -0.084 Cl
ENDBRANCH  17  20
ENDBRANCH  14  15
ENDBRANCH   5  14
TORSDOF 5
