REMARK  Name = ZINC13205606
REMARK  11 active torsions:
REMARK  status: ('A' for Active; 'I' for Inactive)
REMARK    1  A    between atoms: C_1  and  C_2
REMARK    2  A    between atoms: C_6  and  C_8
REMARK    3  A    between atoms: C_11  and  S_16
REMARK    4  A    between atoms: N_12  and  C_13
REMARK    5  A    between atoms: C_13  and  C_14
REMARK    6  A    between atoms: S_16  and  C_17
REMARK    7  A    between atoms: C_17  and  C_19
REMARK    8  A    between atoms: C_17  and  C_20
REMARK    9  A    between atoms: N_22  and  C_23
REMARK   10  A    between atoms: C_26  and  O_30
REMARK   11  A    between atoms: O_30  and  C_31
REMARK                            x       y       z     vdW  Elec       q    Type
REMARK                         _______ _______ _______ _____ _____    ______ ____
ROOT
ATOM      1  S   UNL     1       1.718   2.075   0.356  0.00  0.00    -0.073 S 
ENDROOT
BRANCH   1   5
ATOM      2  C   UNL     1       3.295   0.268  -2.729  0.00  0.00    +0.165 A 
ATOM      3  N   UNL     1       2.093  -0.257  -2.671  0.00  0.00    -0.128 NA
ATOM      4  N   UNL     1       1.442   0.245  -1.682  0.00  0.00    -0.122 NA
ATOM      5  C   UNL     1       2.186   1.128  -1.054  0.00  0.00    +0.193 A 
ATOM      6  N   UNL     1       3.391   1.171  -1.695  0.00  0.00    -0.291 N 
BRANCH   2  12
ATOM      7  C   UNL     1       4.628  -1.592  -7.163  0.00  0.00    +0.044 C 
ATOM      8  C   UNL     1       4.992  -0.945  -5.851  0.00  0.00    -0.050 A 
ATOM      9  C   UNL     1       6.315  -0.650  -5.571  0.00  0.00    +0.003 A 
ATOM     10  C   UNL     1       6.658  -0.057  -4.369  0.00  0.00    +0.001 A 
ATOM     11  C   UNL     1       5.681   0.244  -3.441  0.00  0.00    +0.011 A 
ATOM     12  C   UNL     1       4.346  -0.051  -3.718  0.00  0.00    +0.020 A 
ATOM     13  C   UNL     1       4.007  -0.654  -4.931  0.00  0.00    +0.015 A 
ENDBRANCH   2  12
BRANCH   6  14
ATOM     14  C   UNL     1       4.546   2.005  -1.354  0.00  0.00    +0.250 C 
BRANCH  14  15
ATOM     15  C   UNL     1       5.374   1.311  -0.303  0.00  0.00    +0.375 C 
ATOM     16  O   UNL     1       5.034   0.231   0.117  0.00  0.00    -0.244 OA
ATOM     17  O   UNL     1       6.489   1.893   0.165  0.00  0.00    -0.244 OA
ENDBRANCH  14  15
ENDBRANCH   6  14
ENDBRANCH   1   5
BRANCH   1  18
ATOM     18  C   UNL     1       0.030   1.469   0.596  0.00  0.00    +0.137 C 
ATOM     19  C   UNL     1      -0.832   1.874  -0.602  0.00  0.00    +0.029 C 
BRANCH  18  20
ATOM     20  C   UNL     1      -0.545   2.067   1.854  0.00  0.00    +0.230 C 
ATOM     21  O   UNL     1      -0.119   3.122   2.273  0.00  0.00    -0.274 OA
ATOM     22  N   UNL     1      -1.532   1.429   2.513  0.00  0.00    -0.285 N 
ATOM     23  H   UNL     1      -1.829   0.555   2.215  0.00  0.00    +0.155 HD
BRANCH  22  24
ATOM     24  C   UNL     1      -2.130   2.028   3.630  0.00  0.00    +0.035 A 
ATOM     25  C   UNL     1      -1.367   2.801   4.495  0.00  0.00    +0.027 A 
ATOM     26  C   UNL     1      -1.957   3.395   5.593  0.00  0.00    +0.049 A 
ATOM     27  C   UNL     1      -3.310   3.212   5.838  0.00  0.00    +0.145 A 
ATOM     28  C   UNL     1      -4.073   2.435   4.977  0.00  0.00    +0.084 A 
ATOM     29  C   UNL     1      -3.484   1.844   3.875  0.00  0.00    +0.047 A 
ATOM     30 CL   UNL     1      -5.766   2.205   5.284  0.00  0.00    -0.080 Cl
BRANCH  27  31
ATOM     31  O   UNL     1      -3.889   3.793   6.922  0.00  0.00    -0.433 OA
BRANCH  31  32
ATOM     32  C   UNL     1      -3.045   4.580   7.765  0.00  0.00    +0.541 C 
ATOM     33  F   UNL     1      -2.017   3.779   8.273  0.00  0.00    -0.166 F 
ATOM     34  F   UNL     1      -2.495   5.631   7.024  0.00  0.00    -0.166 F 
ENDBRANCH  31  32
ENDBRANCH  27  31
ENDBRANCH  22  24
ENDBRANCH  18  20
ENDBRANCH   1  18
TORSDOF 9
