REMARK  Name = ZINC16672864
REMARK  4 active torsions:
REMARK  status: ('A' for Active; 'I' for Inactive)
REMARK    1  A    between atoms: C_4  and  N_19
REMARK    2  A    between atoms: C_5  and  C_7
REMARK    3  A    between atoms: N_9  and  C_10
REMARK    4  A    between atoms: C_10  and  C_11
REMARK                            x       y       z     vdW  Elec       q    Type
REMARK                         _______ _______ _______ _____ _____    ______ ____
ROOT
ATOM      1  C   UNL     1      -0.577   0.749  -2.512  0.00  0.00    +0.247 C 
ATOM      2  O   UNL     1       0.527   0.247  -2.593  0.00  0.00    -0.270 OA
ATOM      3  N   UNL     1      -1.294   0.620  -1.378  0.00  0.00    -0.306 N 
ATOM      4  H   UNL     1      -2.174   1.021  -1.313  0.00  0.00    +0.149 HD
ENDROOT
BRANCH   1   9
ATOM      5  C   UNL     1      -2.847   2.900  -4.591  0.00  0.00    +0.001 A 
ATOM      6  C   UNL     1      -2.174   2.910  -5.801  0.00  0.00    +0.002 A 
ATOM      7  C   UNL     1      -0.985   2.219  -5.944  0.00  0.00    +0.033 A 
ATOM      8  C   UNL     1      -0.460   1.515  -4.880  0.00  0.00    +0.138 A 
ATOM      9  C   UNL     1      -1.133   1.501  -3.657  0.00  0.00    +0.067 A 
ATOM     10  C   UNL     1      -2.336   2.196  -3.521  0.00  0.00    +0.015 A 
BRANCH   8  11
ATOM     11  N   UNL     1       0.813   0.776  -5.034  0.00  0.00    +0.057 N 
ATOM     12  O   UNL     1       1.791   1.337  -5.493  0.00  0.00    -0.126 OA
ATOM     13  O   UNL     1       0.882  -0.394  -4.703  0.00  0.00    -0.126 OA
ENDBRANCH   8  11
ENDBRANCH   1   9
BRANCH   3  14
ATOM     14  C   UNL     1      -0.742  -0.125  -0.243  0.00  0.00    +0.161 C 
BRANCH  14  15
ATOM     15  C   UNL     1      -1.735  -0.120   0.891  0.00  0.00    +0.078 A 
ATOM     16  C   UNL     1      -2.639  -1.079   1.147  0.00  0.00    +0.118 A 
ATOM     17  N   UNL     1      -3.355  -0.695   2.278  0.00  0.00    -0.300 N 
ATOM     18  C   UNL     1      -4.381  -1.180   3.060  0.00  0.00    +0.100 A 
ATOM     19  C   UNL     1      -4.822  -0.490   4.111  0.00  0.00    +0.067 A 
ATOM     20  S   UNL     1      -3.774   0.955   4.070  0.00  0.00    -0.058 S 
ATOM     21  C   UNL     1      -2.822   0.515   2.635  0.00  0.00    +0.178 A 
ATOM     22  N   UNL     1      -1.869   0.846   1.812  0.00  0.00    -0.225 NA
ENDBRANCH  14  15
ENDBRANCH   3  14
TORSDOF 4
