REMARK  Name = ZINC37105509
REMARK  4 active torsions:
REMARK  status: ('A' for Active; 'I' for Inactive)
REMARK    1  A    between atoms: C_1  and  C_2
REMARK    2  A    between atoms: C_3  and  C_8
REMARK    3  A    between atoms: C_8  and  N_9
REMARK    4  A    between atoms: N_9  and  C_10
REMARK                            x       y       z     vdW  Elec       q    Type
REMARK                         _______ _______ _______ _____ _____    ______ ____
ROOT
ATOM      1  N   UNL     1       1.347   0.058  -2.960  0.00  0.00    -0.338 N 
ATOM      2  H   UNL     1       2.077  -0.009  -2.325  0.00  0.00    +0.146 HD
ENDROOT
BRANCH   1   3
ATOM      3  C   UNL     1       1.585   0.537  -4.252  0.00  0.00    +0.046 A 
ATOM      4  C   UNL     1       0.539   0.638  -5.160  0.00  0.00    +0.025 A 
ATOM      5  C   UNL     1       0.777   1.112  -6.435  0.00  0.00    +0.016 A 
ATOM      6  C   UNL     1       2.056   1.486  -6.809  0.00  0.00    +0.015 A 
ATOM      7  C   UNL     1       3.100   1.385  -5.907  0.00  0.00    +0.036 A 
ATOM      8  C   UNL     1       2.867   0.918  -4.628  0.00  0.00    +0.063 A 
ATOM      9 CL   UNL     1       4.177   0.799  -3.494  0.00  0.00    -0.082 Cl
ATOM     10  I   UNL     1       2.412   2.203  -8.745  0.00  0.00    -0.044 I 
ENDBRANCH   1   3
BRANCH   1  11
ATOM     11  C   UNL     1      -0.006  -0.343  -2.566  0.00  0.00    +0.140 C 
BRANCH  11  14
ATOM     12  C   UNL     1      -0.018   1.503   0.010  0.00  0.00    +0.068 C 
ATOM     13  C   UNL     1       0.002  -0.004   0.002  0.00  0.00    +0.064 A 
ATOM     14  C   UNL     1       0.008  -0.818  -1.135  0.00  0.00    +0.010 A 
ATOM     15  C   UNL     1       0.028  -2.107  -0.725  0.00  0.00    +0.110 A 
ATOM     16  N   UNL     1       0.034  -2.109   0.625  0.00  0.00    -0.284 N 
ATOM     17  H   UNL     1       0.048  -2.894   1.194  0.00  0.00    +0.188 HD
ATOM     18  N   UNL     1       0.023  -0.777   1.058  0.00  0.00    -0.179 NA
ENDBRANCH  11  14
ENDBRANCH   1  11
TORSDOF 3
