REMARK  Name = ZINC14189789
REMARK  5 active torsions:
REMARK  status: ('A' for Active; 'I' for Inactive)
REMARK    1  A    between atoms: C_1  and  C_2
REMARK    2  A    between atoms: C_14  and  C_15
REMARK    3  A    between atoms: N_17  and  C_18
REMARK    4  A    between atoms: C_23  and  C_24
REMARK    5  A    between atoms: C_23  and  N_50
REMARK                            x       y       z     vdW  Elec       q    Type
REMARK                         _______ _______ _______ _____ _____    ______ ____
ROOT
ATOM      1  C   UNL     1       1.027   8.769  -0.246  0.00  0.00    +0.280 C 
ATOM      2  O   UNL     1       0.435   9.807  -0.473  0.00  0.00    -0.267 OA
ATOM      3  N   UNL     1       2.361   8.782  -0.052  0.00  0.00    -0.306 N 
ATOM      4  H   UNL     1       2.833   7.954   0.129  0.00  0.00    +0.149 HD
ENDROOT
BRANCH   1  18
ATOM      5  C   UNL     1      -2.038   8.463  -0.655  0.00  0.00    +0.048 C 
ATOM      6  C   UNL     1      -1.052   7.362  -0.361  0.00  0.00    +0.008 A 
ATOM      7  C   UNL     1      -1.345   5.982  -0.218  0.00  0.00    +0.024 A 
ATOM      8  C   UNL     1      -2.539   5.236  -0.292  0.00  0.00    +0.012 A 
ATOM      9  C   UNL     1      -2.530   3.895  -0.110  0.00  0.00    +0.009 A 
ATOM     10  C   UNL     1      -1.320   3.220   0.158  0.00  0.00    -0.014 A 
ATOM     11  C   UNL     1      -1.298   1.829   0.342  0.00  0.00    +0.008 A 
ATOM     12  C   UNL     1      -0.118   1.200   0.605  0.00  0.00    +0.001 A 
ATOM     13  C   UNL     1       1.073   1.917   0.684  0.00  0.00    +0.001 A 
ATOM     14  C   UNL     1       1.089   3.268   0.505  0.00  0.00    +0.012 A 
ATOM     15  C   UNL     1      -0.109   3.948   0.238  0.00  0.00    +0.025 A 
ATOM     16  C   UNL     1      -0.127   5.347   0.047  0.00  0.00    +0.144 A 
ATOM     17  O   UNL     1       0.833   6.290   0.060  0.00  0.00    -0.449 OA
ATOM     18  C   UNL     1       0.288   7.501  -0.183  0.00  0.00    +0.193 A 
ENDBRANCH   1  18
BRANCH   3  19
ATOM     19  C   UNL     1       3.098  10.046  -0.114  0.00  0.00    +0.070 C 
ATOM     20  C   UNL     1       3.462  10.355  -1.569  0.00  0.00    +0.004 C 
ATOM     21  C   UNL     1       4.284  11.645  -1.621  0.00  0.00    -0.076 C 
ATOM     22  C   UNL     1       5.177  11.233   0.594  0.00  0.00    -0.076 C 
ATOM     23  C   UNL     1       4.382   9.931   0.712  0.00  0.00    +0.004 C 
ATOM     24  N   UNL     1       5.517  11.461  -0.827  0.00  0.00    +0.385 N 
ATOM     25  H   UNL     1       6.023  10.641  -1.183  0.00  0.00    -0.081 HD
BRANCH  24  26
ATOM     26  C   UNL     1       6.382  12.652  -0.955  0.00  0.00    +0.018 C 
BRANCH  26  27
ATOM     27  C   UNL     1       7.722  12.347  -0.335  0.00  0.00    +0.194 C 
ATOM     28  O   UNL     1       7.962  11.229   0.070  0.00  0.00    -0.278 OA
ATOM     29  N   UNL     1       8.652  13.316  -0.231  0.00  0.00    -0.331 N 
ATOM     30  H   UNL     1       8.460  14.210  -0.554  0.00  0.00    +0.145 HD
ATOM     31  H   UNL     1       9.514  13.120   0.168  0.00  0.00    +0.145 HD
ENDBRANCH  26  27
ENDBRANCH  24  26
ENDBRANCH   3  19
TORSDOF 4
