REMARK  Name = ZINC63139413
REMARK  7 active torsions:
REMARK  status: ('A' for Active; 'I' for Inactive)
REMARK    1  A    between atoms: C_1  and  C_2
REMARK    2  A    between atoms: C_5  and  C_8
REMARK    3  A    between atoms: C_8  and  N_9
REMARK    4  A    between atoms: C_29  and  C_31
REMARK    5  A    between atoms: C_34  and  C_37
REMARK    6  A    between atoms: C_37  and  O_39
REMARK    7  A    between atoms: O_39  and  C_40
REMARK                            x       y       z     vdW  Elec       q    Type
REMARK                         _______ _______ _______ _____ _____    ______ ____
ROOT
ATOM      1  N   UNL     1       1.438  -4.770  -0.032  0.00  0.00    -0.287 N 
ATOM      2  C   UNL     1       2.084  -4.977  -1.317  0.00  0.00    +0.204 C 
ATOM      3  C   UNL     1       3.489  -5.459  -1.172  0.00  0.00    +0.234 C 
ATOM      4  O   UNL     1       4.121  -5.666  -2.186  0.00  0.00    -0.274 OA
ATOM      5  N   UNL     1       4.101  -5.679  -0.003  0.00  0.00    -0.279 N 
ATOM      6  C   UNL     1       3.451  -5.449   1.283  0.00  0.00    +0.167 C 
ATOM      7  C   UNL     1       2.043  -4.973   1.138  0.00  0.00    +0.237 C 
ATOM      8  O   UNL     1       1.408  -4.761   2.149  0.00  0.00    -0.274 OA
ATOM      9  C   UNL     1       4.257  -4.426   2.104  0.00  0.00    +0.065 C 
ATOM     10  C   UNL     1       5.704  -4.842   2.007  0.00  0.00    -0.034 C 
ATOM     11  C   UNL     1       6.626  -5.044   2.940  0.00  0.00    -0.001 A 
ATOM     12  C   UNL     1       6.610  -4.830   4.396  0.00  0.00    +0.010 A 
ATOM     13  C   UNL     1       7.743  -5.171   5.065  0.00  0.00    +0.001 A 
ATOM     14  C   UNL     1       8.877  -5.697   4.438  0.00  0.00    +0.002 A 
ATOM     15  C   UNL     1       8.983  -5.917   3.103  0.00  0.00    +0.026 A 
ATOM     16  C   UNL     1       7.857  -5.590   2.293  0.00  0.00    +0.043 A 
ATOM     17  N   UNL     1       7.695  -5.675   1.006  0.00  0.00    -0.375 N 
ATOM     18  C   UNL     1       6.374  -5.141   0.671  0.00  0.00    +0.131 C 
ATOM     19  C   UNL     1       5.495  -6.177  -0.035  0.00  0.00    +0.133 C 
ATOM     20  H   UNL     1       8.339  -6.031   0.374  0.00  0.00    +0.160 HD
ENDROOT
BRANCH  19  21
ATOM     21  C   UNL     1       5.946  -6.341  -1.464  0.00  0.00    -0.025 A 
ATOM     22  C   UNL     1       6.473  -5.260  -2.148  0.00  0.00    +0.006 A 
ATOM     23  C   UNL     1       6.888  -5.402  -3.456  0.00  0.00    +0.015 A 
ATOM     24  C   UNL     1       6.775  -6.642  -4.089  0.00  0.00    +0.059 A 
ATOM     25  C   UNL     1       6.242  -7.729  -3.393  0.00  0.00    +0.015 A 
ATOM     26  C   UNL     1       5.836  -7.573  -2.083  0.00  0.00    +0.006 A 
BRANCH  24  27
ATOM     27  C   UNL     1       7.216  -6.802  -5.490  0.00  0.00    +0.339 C 
ATOM     28  O   UNL     1       7.679  -5.855  -6.093  0.00  0.00    -0.245 OA
BRANCH  27  29
ATOM     29  O   UNL     1       7.106  -7.999  -6.098  0.00  0.00    -0.464 OA
ATOM     30  C   UNL     1       7.552  -8.082  -7.453  0.00  0.00    +0.280 C 
ENDBRANCH  27  29
ENDBRANCH  24  27
ENDBRANCH  19  21
BRANCH   1  31
ATOM     31  C   UNL     1       0.048  -4.308  -0.021  0.00  0.00    +0.143 C 
BRANCH  31  36
ATOM     32  C   UNL     1      -0.064   1.470  -0.000  0.00  0.00    +0.044 C 
ATOM     33  C   UNL     1      -0.035  -0.037  -0.006  0.00  0.00    -0.050 A 
ATOM     34  C   UNL     1      -0.028  -0.724  -1.206  0.00  0.00    +0.003 A 
ATOM     35  C   UNL     1      -0.001  -2.106  -1.210  0.00  0.00    +0.005 A 
ATOM     36  C   UNL     1       0.020  -2.801  -0.016  0.00  0.00    -0.030 A 
ATOM     37  C   UNL     1       0.014  -2.114   1.184  0.00  0.00    +0.005 A 
ATOM     38  C   UNL     1      -0.009  -0.732   1.189  0.00  0.00    +0.003 A 
ENDBRANCH  31  36
ENDBRANCH   1  31
TORSDOF 5
