REMARK  Name = ZINC32569809
REMARK  9 active torsions:
REMARK  status: ('A' for Active; 'I' for Inactive)
REMARK    1  A    between atoms: C_1  and  C_2
REMARK    2  A    between atoms: C_2  and  C_3
REMARK    3  A    between atoms: C_2  and  C_4
REMARK    4  A    between atoms: C_4  and  N_5
REMARK    5  A    between atoms: C_6  and  C_31
REMARK    6  A    between atoms: C_9  and  S_10
REMARK    7  A    between atoms: S_10  and  C_11
REMARK    8  A    between atoms: C_11  and  C_12
REMARK    9  A    between atoms: C_18  and  C_20
REMARK                            x       y       z     vdW  Elec       q    Type
REMARK                         _______ _______ _______ _____ _____    ______ ____
ROOT
ATOM      1  C   UNL     1      -0.018   1.503   0.010  0.00  0.00    +0.226 C 
ATOM      2  O   UNL     1       1.024   2.123   0.004  0.00  0.00    -0.275 OA
ATOM      3  N   UNL     1      -1.195   2.161   0.019  0.00  0.00    -0.294 N 
ATOM      4  C   UNL     1      -2.529   1.535   0.016  0.00  0.00    +0.108 C 
ATOM      5  C   UNL     1      -3.471   2.607  -0.581  0.00  0.00    +0.021 C 
ATOM      6  C   UNL     1      -2.875   3.912   0.009  0.00  0.00    +0.029 C 
ATOM      7  C   UNL     1      -1.359   3.622   0.028  0.00  0.00    +0.106 C 
ENDROOT
BRANCH   7   8
ATOM      8  C   UNL     1      -0.743   4.199   1.276  0.00  0.00    -0.023 A 
ATOM      9  C   UNL     1      -0.867   3.530   2.479  0.00  0.00    +0.009 A 
ATOM     10  C   UNL     1      -0.299   4.052   3.628  0.00  0.00    +0.050 A 
ATOM     11  C   UNL     1       0.386   5.254   3.570  0.00  0.00    +0.162 A 
ATOM     12  C   UNL     1       0.506   5.928   2.363  0.00  0.00    +0.162 A 
ATOM     13  C   UNL     1      -0.059   5.401   1.215  0.00  0.00    +0.055 A 
ATOM     14  O   UNL     1       1.182   7.113   2.317  0.00  0.00    -0.488 OA
ATOM     15  C   UNL     1       2.592   7.036   2.534  0.00  0.00    +0.232 C 
ATOM     16  C   UNL     1       2.911   7.040   4.021  0.00  0.00    +0.082 C 
ATOM     17  C   UNL     1       2.375   5.807   4.731  0.00  0.00    +0.232 C 
ATOM     18  O   UNL     1       0.947   5.782   4.696  0.00  0.00    -0.488 OA
ENDBRANCH   7   8
BRANCH   1  19
ATOM     19  C   UNL     1       0.002  -0.004   0.002  0.00  0.00    +0.173 C 
BRANCH  19  20
ATOM     20  S   UNL     1       1.716  -0.584  -0.018  0.00  0.00    -0.077 S 
BRANCH  20  25
ATOM     21  N   UNL     1       2.416  -3.293  -0.044  0.00  0.00    -0.299 N 
ATOM     22  C   UNL     1       1.739  -4.493  -0.038  0.00  0.00    +0.200 A 
ATOM     23  N   UNL     1       0.455  -4.210  -0.025  0.00  0.00    -0.125 NA
ATOM     24  N   UNL     1       0.286  -2.936  -0.017  0.00  0.00    -0.122 NA
ATOM     25  C   UNL     1       1.450  -2.326  -0.024  0.00  0.00    +0.192 A 
BRANCH  22  26
ATOM     26  C   UNL     1       2.339  -5.836  -0.051  0.00  0.00    +0.172 A 
ATOM     27  C   UNL     1       1.690  -7.000  -0.336  0.00  0.00    +0.053 A 
ATOM     28  C   UNL     1       2.642  -8.032  -0.231  0.00  0.00    +0.042 A 
ATOM     29  C   UNL     1       3.813  -7.456   0.109  0.00  0.00    +0.196 A 
ATOM     30  O   UNL     1       3.627  -6.130   0.212  0.00  0.00    -0.460 OA
ENDBRANCH  22  26
BRANCH  21  31
ATOM     31  C   UNL     1       3.867  -3.095  -0.064  0.00  0.00    +0.129 C 
BRANCH  31  33
ATOM     32  C   UNL     1       4.179  -4.391   2.050  0.00  0.00    +0.009 C 
ATOM     33  C   UNL     1       4.393  -3.036   1.371  0.00  0.00    +0.003 C 
ATOM     34  C   UNL     1       5.887  -2.705   1.354  0.00  0.00    +0.009 C 
ENDBRANCH  31  33
ENDBRANCH  21  31
ENDBRANCH  20  25
ENDBRANCH  19  20
ENDBRANCH   1  19
TORSDOF 7
