REMARK  Name = ZINC61795242
REMARK  7 active torsions:
REMARK  status: ('A' for Active; 'I' for Inactive)
REMARK    1  A    between atoms: C_1  and  C_2
REMARK    2  A    between atoms: C_4  and  C_7
REMARK    3  A    between atoms: N_15  and  C_16
REMARK    4  A    between atoms: C_16  and  C_17
REMARK    5  A    between atoms: C_17  and  N_22
REMARK    6  A    between atoms: N_22  and  C_23
REMARK    7  A    between atoms: N_22  and  C_24
REMARK                            x       y       z     vdW  Elec       q    Type
REMARK                         _______ _______ _______ _____ _____    ______ ____
ROOT
ATOM      1  C   UNL     1       0.077  -3.150  -1.736  0.00  0.00    +0.095 C 
ATOM      2  C   UNL     1      -1.165  -4.007  -1.483  0.00  0.00    +0.016 C 
ATOM      3  C   UNL     1      -1.183  -5.184  -2.461  0.00  0.00    +0.020 C 
ATOM      4  C   UNL     1       0.058  -6.052  -2.232  0.00  0.00    +0.109 C 
ATOM      5  N   UNL     1       1.254  -5.204  -2.330  0.00  0.00    -0.285 N 
ATOM      6  C   UNL     1       1.333  -3.995  -1.498  0.00  0.00    +0.122 C 
ATOM      7  C   UNL     1       2.259  -5.528  -3.167  0.00  0.00    +0.302 C 
ATOM      8  O   UNL     1       3.197  -4.768  -3.314  0.00  0.00    -0.253 OA
ATOM      9  N   UNL     1       2.225  -6.694  -3.841  0.00  0.00    -0.301 N 
ATOM     10  H   UNL     1       1.445  -7.267  -3.779  0.00  0.00    +0.150 HD
ENDROOT
BRANCH   1  14
ATOM     11  C   UNL     1       0.065   1.568  -0.051  0.00  0.00    +0.091 C 
ATOM     12  C   UNL     1       0.072   0.061  -0.052  0.00  0.00    +0.169 A 
ATOM     13  N   UNL     1       0.070  -0.717  -1.141  0.00  0.00    -0.196 NA
ATOM     14  C   UNL     1       0.077  -1.974  -0.794  0.00  0.00    +0.232 A 
ATOM     15  O   UNL     1       0.084  -2.039   0.543  0.00  0.00    -0.338 OA
ATOM     16  N   UNL     1       0.086  -0.697   1.007  0.00  0.00    -0.062 NA
ENDBRANCH   1  14
BRANCH   9  17
ATOM     17  C   UNL     1       3.367  -7.097  -4.666  0.00  0.00    +0.094 C 
BRANCH  17  18
ATOM     18  C   UNL     1       3.024  -8.386  -5.416  0.00  0.00    -0.050 C 
ATOM     19  C   UNL     1       2.891  -9.557  -4.421  0.00  0.00    -0.010 C 
ATOM     20  C   UNL     1       3.493 -10.768  -5.176  0.00  0.00    -0.001 C 
ATOM     21  C   UNL     1       4.688 -10.137  -5.935  0.00  0.00    -0.001 C 
ATOM     22  C   UNL     1       4.167  -8.755  -6.379  0.00  0.00    -0.010 C 
BRANCH  18  23
ATOM     23  N   UNL     1       1.772  -8.215  -6.164  0.00  0.00    +0.381 N 
ATOM     24  C   UNL     1       1.956  -7.189  -7.200  0.00  0.00    -0.096 C 
ATOM     25  C   UNL     1       1.401  -9.488  -6.796  0.00  0.00    -0.096 C 
ATOM     26  H   UNL     1       1.039  -7.927  -5.532  0.00  0.00    -0.082 HD
ENDBRANCH  18  23
ENDBRANCH  17  18
ENDBRANCH   9  17
TORSDOF 4
