REMARK  Name = ZINC39462390
REMARK  9 active torsions:
REMARK  status: ('A' for Active; 'I' for Inactive)
REMARK    1  A    between atoms: C_1  and  O_2
REMARK    2  A    between atoms: O_2  and  C_3
REMARK    3  A    between atoms: C_6  and  C_9
REMARK    4  A    between atoms: C_9  and  C_10
REMARK    5  A    between atoms: C_10  and  N_11
REMARK    6  A    between atoms: N_11  and  C_12
REMARK    7  A    between atoms: C_22  and  S_24
REMARK    8  A    between atoms: S_24  and  C_25
REMARK    9  A    between atoms: C_28  and  C_30
REMARK                            x       y       z     vdW  Elec       q    Type
REMARK                         _______ _______ _______ _____ _____    ______ ____
ROOT
ATOM      1  C   UNL     1      -7.064  -3.722  -2.745  0.00  0.00    +0.020 C 
ATOM      2  C   UNL     1      -6.200  -3.351  -3.733  0.00  0.00    +0.013 A 
ATOM      3  C   UNL     1      -4.903  -2.756  -3.412  0.00  0.00    +0.011 A 
ATOM      4  C   UNL     1      -4.075  -2.401  -4.428  0.00  0.00    +0.001 A 
ATOM      5  C   UNL     1      -4.439  -2.592  -5.761  0.00  0.00    +0.002 A 
ATOM      6  C   UNL     1      -5.628  -3.138  -6.126  0.00  0.00    +0.024 A 
ATOM      7  C   UNL     1      -6.558  -3.541  -5.149  0.00  0.00    +0.042 A 
ATOM      8  N   UNL     1      -7.722  -4.076  -5.519  0.00  0.00    -0.284 N 
ATOM      9  C   UNL     1      -8.640  -4.474  -4.654  0.00  0.00    +0.236 C 
ATOM     10  O   UNL     1      -9.684  -4.956  -5.051  0.00  0.00    -0.274 OA
ATOM     11  C   UNL     1      -8.383  -4.336  -3.170  0.00  0.00    +0.185 C 
ATOM     12  H   UNL     1      -7.904  -4.177  -6.466  0.00  0.00    +0.155 HD
ENDROOT
BRANCH   1  13
ATOM     13  N   UNL     1      -6.742  -3.550  -1.396  0.00  0.00    -0.406 NA
ATOM     14  H   UNL     1      -7.580  -3.333  -0.876  0.00  0.00    +0.123 HD
ATOM     15  H   UNL     1      -6.082  -2.793  -1.301  0.00  0.00    +0.123 HD
BRANCH  13  16
ATOM     16  C   UNL     1      -6.148  -4.787  -0.872  0.00  0.00    +0.087 C 
BRANCH  16  17
ATOM     17  C   UNL     1      -5.773  -4.590   0.598  0.00  0.00    +0.052 C 
BRANCH  17  21
ATOM     18  C   UNL     1      -4.042  -8.188   2.122  0.00  0.00    +0.120 A 
ATOM     19  C   UNL     1      -3.235  -7.218   1.546  0.00  0.00    +0.046 A 
ATOM     20  C   UNL     1      -3.797  -6.056   1.053  0.00  0.00    +0.007 A 
ATOM     21  C   UNL     1      -5.163  -5.858   1.136  0.00  0.00    -0.046 A 
ATOM     22  C   UNL     1      -5.970  -6.823   1.710  0.00  0.00    +0.007 A 
ATOM     23  C   UNL     1      -5.413  -7.989   2.199  0.00  0.00    +0.046 A 
BRANCH  18  25
ATOM     24  C   UNL     1      -2.074  -9.468   2.495  0.00  0.00    +0.277 C 
ATOM     25  O   UNL     1      -3.492  -9.332   2.607  0.00  0.00    -0.495 OA
ENDBRANCH  18  25
ENDBRANCH  17  21
ENDBRANCH  16  17
ENDBRANCH  13  16
ENDBRANCH   1  13
BRANCH  11  26
ATOM     26  S   UNL     1      -9.718  -3.325  -2.473  0.00  0.00    -0.047 S 
BRANCH  26  27
ATOM     27  C   UNL     1     -11.185  -4.203  -2.899  0.00  0.00    +0.279 A 
ATOM     28  N   UNL     1     -11.248  -5.332  -3.565  0.00  0.00    -0.101 NA
ATOM     29  N   UNL     1     -12.479  -5.685  -3.695  0.00  0.00    -0.103 NA
ATOM     30  C   UNL     1     -13.251  -4.795  -3.117  0.00  0.00    +0.284 A 
ATOM     31  O   UNL     1     -12.447  -3.840  -2.596  0.00  0.00    -0.408 OA
BRANCH  30  32
ATOM     32  C   UNL     1     -14.719  -4.831  -3.044  0.00  0.00    +0.191 A 
ATOM     33  C   UNL     1     -15.522  -5.803  -3.562  0.00  0.00    +0.055 A 
ATOM     34  C   UNL     1     -16.848  -5.436  -3.261  0.00  0.00    +0.042 A 
ATOM     35  C   UNL     1     -16.792  -4.272  -2.583  0.00  0.00    +0.196 A 
ATOM     36  O   UNL     1     -15.505  -3.913  -2.448  0.00  0.00    -0.458 OA
ENDBRANCH  30  32
ENDBRANCH  26  27
ENDBRANCH  11  26
TORSDOF 8
