REMARK  Name = ZINC10536042
REMARK  5 active torsions:
REMARK  status: ('A' for Active; 'I' for Inactive)
REMARK    1  A    between atoms: C_2  and  C_25
REMARK    2  A    between atoms: C_3  and  N_24
REMARK    3  A    between atoms: C_5  and  S_7
REMARK    4  A    between atoms: S_7  and  C_8
REMARK    5  A    between atoms: C_8  and  C_9
REMARK                            x       y       z     vdW  Elec       q    Type
REMARK                         _______ _______ _______ _____ _____    ______ ____
ROOT
ATOM      1  C   UNL     1       1.113   2.306   4.949  0.00  0.00    +0.143 A 
ATOM      2  N   UNL     1       1.886   1.892   3.961  0.00  0.00    -0.216 NA
ATOM      3  C   UNL     1       1.396   1.533   2.785  0.00  0.00    +0.128 A 
ATOM      4  C   UNL     1      -0.010   1.594   2.575  0.00  0.00    +0.051 A 
ATOM      5  C   UNL     1      -0.771   1.244   1.367  0.00  0.00    -0.025 A 
ATOM      6  C   UNL     1      -2.105   1.407   1.426  0.00  0.00    -0.004 A 
ATOM      7  S   UNL     1      -2.433   1.997   3.067  0.00  0.00    -0.073 S 
ATOM      8  C   UNL     1      -0.768   2.045   3.672  0.00  0.00    +0.114 A 
ATOM      9  N   UNL     1      -0.197   2.383   4.812  0.00  0.00    -0.224 NA
ATOM     10  C   UNL     1      -3.107   1.150   0.343  0.00  0.00    +0.043 C 
ATOM     11  C   UNL     1      -2.857  -0.237  -0.263  0.00  0.00    +0.005 C 
ATOM     12  C   UNL     1      -1.872  -0.085  -1.417  0.00  0.00    +0.001 C 
ATOM     13  C   UNL     1      -0.888   1.045  -1.120  0.00  0.00    +0.005 C 
ATOM     14  C   UNL     1      -0.064   0.721   0.120  0.00  0.00    +0.037 C 
ATOM     15  N   UNL     1       2.239   1.105   1.775  0.00  0.00    -0.343 N 
ATOM     16  H   UNL     1       1.911   0.493   1.098  0.00  0.00    +0.144 HD
ATOM     17  H   UNL     1       3.157   1.416   1.745  0.00  0.00    +0.144 HD
ENDROOT
BRANCH   1  18
ATOM     18  C   UNL     1       1.741   2.699   6.261  0.00  0.00    +0.153 C 
BRANCH  18  19
ATOM     19  S   UNL     1       1.840   1.249   7.341  0.00  0.00    -0.078 S 
BRANCH  19  24
ATOM     20  C   UNL     1       3.451   3.856   9.780  0.00  0.00    +0.136 A 
ATOM     21  C   UNL     1       3.736   3.095  10.918  0.00  0.00    +0.109 A 
ATOM     22  C   UNL     1       3.406   1.722  10.903  0.00  0.00    +0.138 A 
ATOM     23  N   UNL     1       2.841   1.213   9.815  0.00  0.00    -0.206 NA
ATOM     24  C   UNL     1       2.590   1.975   8.760  0.00  0.00    +0.190 A 
ATOM     25  N   UNL     1       2.892   3.268   8.738  0.00  0.00    -0.229 NA
BRANCH  22  26
ATOM     26  N   UNL     1       3.665   0.925  11.999  0.00  0.00    -0.342 N 
ATOM     27  H   UNL     1       3.434  -0.017  11.979  0.00  0.00    +0.144 HD
ATOM     28  H   UNL     1       4.077   1.306  12.789  0.00  0.00    +0.144 HD
ENDBRANCH  22  26
BRANCH  21  29
ATOM     29  C   UNL     1       4.346   3.692  12.068  0.00  0.00    +0.104 C 
ATOM     30  N   UNL     1       4.830   4.165  12.981  0.00  0.00    -0.191 NA
ENDBRANCH  21  29
ENDBRANCH  19  24
ENDBRANCH  18  19
ENDBRANCH   1  18
TORSDOF 5
