REMARK  Name = ZINC63137603
REMARK  10 active torsions:
REMARK  status: ('A' for Active; 'I' for Inactive)
REMARK    1  A    between atoms: C_1  and  O_2
REMARK    2  A    between atoms: O_2  and  C_3
REMARK    3  A    between atoms: C_6  and  C_9
REMARK    4  A    between atoms: C_9  and  C_10
REMARK    5  A    between atoms: C_10  and  N_11
REMARK    6  A    between atoms: C_31  and  C_33
REMARK    7  A    between atoms: C_36  and  O_41
REMARK    8  A    between atoms: C_37  and  O_39
REMARK    9  A    between atoms: O_39  and  C_40
REMARK   10  A    between atoms: O_41  and  C_42
REMARK                            x       y       z     vdW  Elec       q    Type
REMARK                         _______ _______ _______ _____ _____    ______ ____
ROOT
ATOM      1  N   UNL     1       2.522  -3.160   6.598  0.00  0.00    -0.291 N 
ATOM      2  C   UNL     1       2.440  -4.610   6.543  0.00  0.00    +0.203 C 
ATOM      3  C   UNL     1       3.058  -5.256   7.738  0.00  0.00    +0.234 C 
ATOM      4  O   UNL     1       3.043  -6.468   7.795  0.00  0.00    -0.274 OA
ATOM      5  N   UNL     1       3.628  -4.594   8.752  0.00  0.00    -0.279 N 
ATOM      6  C   UNL     1       3.723  -3.138   8.788  0.00  0.00    +0.167 C 
ATOM      7  C   UNL     1       3.099  -2.492   7.595  0.00  0.00    +0.237 C 
ATOM      8  O   UNL     1       3.115  -1.281   7.532  0.00  0.00    -0.274 OA
ATOM      9  C   UNL     1       5.198  -2.711   8.891  0.00  0.00    +0.065 C 
ATOM     10  C   UNL     1       5.823  -3.575   9.958  0.00  0.00    -0.034 C 
ATOM     11  C   UNL     1       6.542  -3.268  11.030  0.00  0.00    -0.001 A 
ATOM     12  C   UNL     1       7.087  -1.989  11.511  0.00  0.00    +0.010 A 
ATOM     13  C   UNL     1       7.772  -2.032  12.684  0.00  0.00    +0.001 A 
ATOM     14  C   UNL     1       7.968  -3.207  13.418  0.00  0.00    +0.002 A 
ATOM     15  C   UNL     1       7.511  -4.429  13.045  0.00  0.00    +0.026 A 
ATOM     16  C   UNL     1       6.781  -4.512  11.824  0.00  0.00    +0.043 A 
ATOM     17  N   UNL     1       6.257  -5.541  11.226  0.00  0.00    -0.375 N 
ATOM     18  C   UNL     1       5.678  -5.093   9.959  0.00  0.00    +0.131 C 
ATOM     19  C   UNL     1       4.178  -5.388   9.874  0.00  0.00    +0.134 C 
ATOM     20  H   UNL     1       6.252  -6.451  11.562  0.00  0.00    +0.160 HD
ENDROOT
BRANCH  19  21
ATOM     21  C   UNL     1       3.504  -4.988  11.161  0.00  0.00    -0.021 A 
ATOM     22  C   UNL     1       3.570  -3.677  11.596  0.00  0.00    +0.009 A 
ATOM     23  C   UNL     1       2.953  -3.306  12.776  0.00  0.00    +0.050 A 
ATOM     24  C   UNL     1       2.268  -4.248  13.527  0.00  0.00    +0.162 A 
ATOM     25  C   UNL     1       2.202  -5.567  13.089  0.00  0.00    +0.162 A 
ATOM     26  C   UNL     1       2.818  -5.932  11.902  0.00  0.00    +0.055 A 
BRANCH  25  27
ATOM     27  O   UNL     1       1.531  -6.496  13.822  0.00  0.00    -0.491 OA
ATOM     28  C   UNL     1       1.505  -7.830  13.311  0.00  0.00    +0.277 C 
ENDBRANCH  25  27
BRANCH  24  29
ATOM     29  O   UNL     1       1.662  -3.884  14.688  0.00  0.00    -0.491 OA
ATOM     30  C   UNL     1       1.772  -2.513  15.076  0.00  0.00    +0.277 C 
ENDBRANCH  24  29
ENDBRANCH  19  21
BRANCH   1  31
ATOM     31  C   UNL     1       1.943  -2.392   5.493  0.00  0.00    +0.113 C 
BRANCH  31  32
ATOM     32  C   UNL     1       3.003  -2.175   4.412  0.00  0.00    +0.054 C 
BRANCH  32  36
ATOM     33  C   UNL     1       1.315   0.067   1.189  0.00  0.00    +0.120 A 
ATOM     34  C   UNL     1       1.925   0.724   2.248  0.00  0.00    +0.046 A 
ATOM     35  C   UNL     1       2.470  -0.003   3.288  0.00  0.00    +0.007 A 
ATOM     36  C   UNL     1       2.408  -1.384   3.276  0.00  0.00    -0.046 A 
ATOM     37  C   UNL     1       1.800  -2.041   2.221  0.00  0.00    +0.007 A 
ATOM     38  C   UNL     1       1.248  -1.319   1.181  0.00  0.00    +0.046 A 
BRANCH  33  40
ATOM     39  C   UNL     1       0.882   2.203   0.239  0.00  0.00    +0.277 C 
ATOM     40  O   UNL     1       0.777   0.780   0.164  0.00  0.00    -0.495 OA
ENDBRANCH  33  40
ENDBRANCH  32  36
ENDBRANCH  31  32
ENDBRANCH   1  31
TORSDOF 7
