REMARK  Name = ZINC62824307
REMARK  3 active torsions:
REMARK  status: ('A' for Active; 'I' for Inactive)
REMARK    1  A    between atoms: C_3  and  N_19
REMARK    2  A    between atoms: C_4  and  C_8
REMARK    3  A    between atoms: C_10  and  C_13
REMARK                            x       y       z     vdW  Elec       q    Type
REMARK                         _______ _______ _______ _____ _____    ______ ____
ROOT
ATOM      1  C   UNL     1       3.666  -0.666   0.454  0.00  0.00    +0.261 A 
ATOM      2  N   UNL     1       4.066  -1.758  -0.158  0.00  0.00    -0.184 NA
ATOM      3  C   UNL     1       5.272  -2.124   0.304  0.00  0.00    +0.241 A 
ATOM      4  N   UNL     1       5.655  -1.266   1.218  0.00  0.00    -0.052 NA
ATOM      5  O   UNL     1       4.620  -0.300   1.328  0.00  0.00    -0.332 OA
ENDROOT
BRANCH   1   9
ATOM      6  C   UNL     1      -0.004   1.367  -0.226  0.00  0.00    +0.016 A 
ATOM      7  C   UNL     1       1.173   2.086  -0.169  0.00  0.00    +0.024 A 
ATOM      8  C   UNL     1       2.377   1.433   0.053  0.00  0.00    +0.037 A 
ATOM      9  C   UNL     1       2.392   0.040   0.218  0.00  0.00    +0.061 A 
ATOM     10  C   UNL     1       1.194  -0.675   0.158  0.00  0.00    +0.029 A 
ATOM     11  C   UNL     1       0.006  -0.009  -0.063  0.00  0.00    +0.014 A 
ATOM     12  I   UNL     1      -1.790  -1.083  -0.153  0.00  0.00    -0.044 I 
BRANCH   8  13
ATOM     13  N   UNL     1       3.564   2.156   0.110  0.00  0.00    -0.357 N 
ATOM     14  H   UNL     1       3.543   3.126   0.088  0.00  0.00    +0.142 HD
ATOM     15  H   UNL     1       4.413   1.691   0.173  0.00  0.00    +0.142 HD
ENDBRANCH   8  13
ENDBRANCH   1   9
BRANCH   3  16
ATOM     16  C   UNL     1       6.046  -3.308  -0.147  0.00  0.00    +0.222 A 
ATOM     17  N   UNL     1       7.250  -3.675   0.312  0.00  0.00    -0.212 NA
ATOM     18  H   UNL     1       6.707  -5.889  -1.769  0.00  0.00    +0.190 HD
ATOM     19  C   UNL     1       7.644  -4.761  -0.298  0.00  0.00    +0.216 A 
ATOM     20  N   UNL     1       6.690  -5.122  -1.176  0.00  0.00    -0.265 N 
ATOM     21  N   UNL     1       5.661  -4.173  -1.060  0.00  0.00    -0.149 NA
ENDBRANCH   3  16
TORSDOF 3
