REMARK  Name = ZINC65827011
REMARK  7 active torsions:
REMARK  status: ('A' for Active; 'I' for Inactive)
REMARK    1  A    between atoms: C_1  and  C_2
REMARK    2  A    between atoms: C_2  and  C_3
REMARK    3  A    between atoms: C_2  and  N_9
REMARK    4  A    between atoms: C_12  and  N_14
REMARK    5  A    between atoms: C_15  and  C_17
REMARK    6  A    between atoms: C_20  and  S_22
REMARK    7  A    between atoms: S_22  and  N_25
REMARK                            x       y       z     vdW  Elec       q    Type
REMARK                         _______ _______ _______ _____ _____    ______ ____
ROOT
ATOM      1  N   UNL     1       2.836  -3.181  -0.914  0.00  0.00    -0.308 N 
ATOM      2  C   UNL     1       3.799  -4.008  -1.367  0.00  0.00    +0.280 C 
ATOM      3  O   UNL     1       4.025  -4.083  -2.560  0.00  0.00    -0.267 OA
ATOM      4  H   UNL     1       2.656  -3.121   0.037  0.00  0.00    +0.149 HD
ENDROOT
BRANCH   1   8
ATOM      5  N   UNL     1       0.690  -0.478  -1.207  0.00  0.00    +0.385 N 
ATOM      6  C   UNL     1       2.111  -0.045  -1.190  0.00  0.00    -0.076 C 
ATOM      7  C   UNL     1       2.796  -1.044  -2.156  0.00  0.00    +0.002 C 
ATOM      8  C   UNL     1       2.062  -2.372  -1.859  0.00  0.00    +0.055 C 
ATOM      9  C   UNL     1       0.719  -1.956  -1.230  0.00  0.00    -0.056 C 
ATOM     10  H   UNL     1       0.227  -0.126  -2.031  0.00  0.00    -0.081 HD
BRANCH   5  12
ATOM     11  C   UNL     1      -0.019   1.526   0.010  0.00  0.00    -0.008 C 
ATOM     12  C   UNL     1       0.002  -0.004   0.002  0.00  0.00    -0.041 C 
BRANCH  12  13
ATOM     13  C   UNL     1      -1.412  -0.526   0.013  0.00  0.00    -0.061 A 
ATOM     14  C   UNL     1      -2.141  -0.569  -1.161  0.00  0.00    +0.002 A 
ATOM     15  C   UNL     1      -3.438  -1.047  -1.151  0.00  0.00    +0.000 A 
ATOM     16  C   UNL     1      -4.005  -1.483   0.032  0.00  0.00    +0.000 A 
ATOM     17  C   UNL     1      -3.275  -1.441   1.205  0.00  0.00    +0.000 A 
ATOM     18  C   UNL     1      -1.977  -0.966   1.195  0.00  0.00    +0.002 A 
ENDBRANCH  12  13
ENDBRANCH   5  12
ENDBRANCH   1   8
BRANCH   2  19
ATOM     19  C   UNL     1       4.574  -4.818  -0.421  0.00  0.00    +0.192 A 
ATOM     20  C   UNL     1       5.576  -5.688  -0.743  0.00  0.00    +0.057 A 
ATOM     21  C   UNL     1       6.034  -6.240   0.463  0.00  0.00    +0.072 A 
ATOM     22  C   UNL     1       5.301  -5.690   1.456  0.00  0.00    +0.258 A 
ATOM     23  O   UNL     1       4.426  -4.830   0.920  0.00  0.00    -0.432 OA
BRANCH  22  24
ATOM     24  S   UNL     1       5.473  -6.042   3.174  0.00  0.00    +0.089 S 
ATOM     25  O   UNL     1       4.226  -5.728   3.780  0.00  0.00    -0.150 OA
ATOM     26  O   UNL     1       6.062  -7.332   3.268  0.00  0.00    -0.150 OA
BRANCH  24  27
ATOM     27  N   UNL     1       6.579  -4.971   3.785  0.00  0.00    -0.201 NA
ATOM     28  H   UNL     1       6.991  -4.314   3.202  0.00  0.00    +0.144 HD
ATOM     29  H   UNL     1       6.815  -5.001   4.725  0.00  0.00    +0.144 HD
ENDBRANCH  24  27
ENDBRANCH  22  24
ENDBRANCH   2  19
TORSDOF 6
