REMARK  Name = ZINC36684462
REMARK  7 active torsions:
REMARK  status: ('A' for Active; 'I' for Inactive)
REMARK    1  A    between atoms: C_1  and  C_2
REMARK    2  A    between atoms: N_11  and  C_15
REMARK    3  A    between atoms: C_15  and  C_16
REMARK    4  A    between atoms: N_18  and  C_19
REMARK    5  A    between atoms: C_19  and  C_20
REMARK    6  A    between atoms: C_20  and  C_22
REMARK    7  A    between atoms: C_20  and  N_27
REMARK                            x       y       z     vdW  Elec       q    Type
REMARK                         _______ _______ _______ _____ _____    ______ ____
ROOT
ATOM      1  C   UNL     1       2.895   3.381   2.984  0.00  0.00    +0.231 C 
ATOM      2  O   UNL     1       1.901   3.939   2.568  0.00  0.00    -0.274 OA
ATOM      3  N   UNL     1       4.091   3.999   2.920  0.00  0.00    -0.315 N 
ATOM      4  H   UNL     1       4.886   3.553   3.252  0.00  0.00    +0.149 HD
ENDROOT
BRANCH   1   5
ATOM      5  C   UNL     1       2.792   1.998   3.572  0.00  0.00    +0.213 C 
BRANCH   5  15
ATOM      6  C   UNL     1      -1.246   2.811   1.870  0.00  0.00    +0.010 C 
ATOM      7  C   UNL     1      -1.534   1.309   1.904  0.00  0.00    +0.018 C 
ATOM      8  C   UNL     1      -2.982   1.077   2.344  0.00  0.00    +0.006 C 
ATOM      9  C   UNL     1      -3.263  -0.426   2.397  0.00  0.00    +0.000 C 
ATOM     10  C   UNL     1      -2.321  -1.088   3.404  0.00  0.00    +0.003 C 
ATOM     11  C   UNL     1      -0.871  -0.864   2.968  0.00  0.00    +0.035 C 
ATOM     12  C   UNL     1      -0.588   0.632   2.889  0.00  0.00    +0.115 C 
ATOM     13  C   UNL     1       0.850   0.877   2.494  0.00  0.00    +0.247 C 
ATOM     14  O   UNL     1       1.396   0.540   1.466  0.00  0.00    -0.273 OA
ATOM     15  N   UNL     1       1.397   1.551   3.527  0.00  0.00    -0.215 N 
ATOM     16  C   UNL     1       0.509   1.759   4.506  0.00  0.00    +0.310 C 
ATOM     17  O   UNL     1       0.767   2.345   5.540  0.00  0.00    -0.252 OA
ATOM     18  N   UNL     1      -0.703   1.248   4.218  0.00  0.00    -0.285 N 
ATOM     19  H   UNL     1      -1.495   1.280   4.777  0.00  0.00    +0.151 HD
ENDBRANCH   5  15
ENDBRANCH   1   5
BRANCH   3  20
ATOM     20  C   UNL     1       4.191   5.344   2.348  0.00  0.00    +0.096 C 
BRANCH  20  21
ATOM     21  C   UNL     1       5.621   5.863   2.513  0.00  0.00    +0.016 C 
BRANCH  21  22
ATOM     22  N   UNL     1       5.990   5.838   3.935  0.00  0.00    +0.387 N 
ATOM     23  C   UNL     1       5.003   6.600   4.709  0.00  0.00    -0.078 C 
ATOM     24  C   UNL     1       5.337   6.509   6.199  0.00  0.00    -0.019 C 
ATOM     25  C   UNL     1       6.734   7.088   6.440  0.00  0.00    -0.004 C 
ATOM     26  C   UNL     1       7.745   6.334   5.571  0.00  0.00    -0.019 C 
ATOM     27  C   UNL     1       7.322   6.431   4.104  0.00  0.00    -0.078 C 
ATOM     28  H   UNL     1       6.005   4.883   4.260  0.00  0.00    -0.081 HD
ENDBRANCH  21  22
BRANCH  21  29
ATOM     29  C   UNL     1       5.705   7.277   1.998  0.00  0.00    +0.093 A 
ATOM     30  C   UNL     1       6.322   7.667   0.868  0.00  0.00    +0.043 A 
ATOM     31  C   UNL     1       6.155   9.068   0.773  0.00  0.00    +0.041 A 
ATOM     32  C   UNL     1       5.446   9.450   1.850  0.00  0.00    +0.195 A 
ATOM     33  O   UNL     1       5.170   8.360   2.585  0.00  0.00    -0.469 OA
ENDBRANCH  21  29
ENDBRANCH  20  21
ENDBRANCH   3  20
TORSDOF 6
