REMARK  Name = ZINC64074246
REMARK  4 active torsions:
REMARK  status: ('A' for Active; 'I' for Inactive)
REMARK    1  A    between atoms: C_1  and  O_2
REMARK    2  A    between atoms: O_2  and  C_3
REMARK    3  A    between atoms: C_6  and  C_10
REMARK    4  A    between atoms: C_25  and  C_27
REMARK                            x       y       z     vdW  Elec       q    Type
REMARK                         _______ _______ _______ _____ _____    ______ ____
ROOT
ATOM      1  C   UNL     1       1.573  -2.583   4.543  0.00  0.00    +0.136 C 
ATOM      2  C   UNL     1       2.366  -3.814   4.996  0.00  0.00    +0.131 C 
ATOM      3  C   UNL     1       1.908  -4.129   6.414  0.00  0.00    -0.035 C 
ATOM      4  C   UNL     1       1.487  -5.388   6.402  0.00  0.00    -0.001 A 
ATOM      5  C   UNL     1       0.997  -6.267   7.476  0.00  0.00    +0.010 A 
ATOM      6  C   UNL     1       0.631  -7.522   7.103  0.00  0.00    +0.001 A 
ATOM      7  C   UNL     1       0.701  -7.984   5.785  0.00  0.00    +0.002 A 
ATOM      8  C   UNL     1       1.143  -7.245   4.735  0.00  0.00    +0.026 A 
ATOM      9  C   UNL     1       1.561  -5.909   5.003  0.00  0.00    +0.043 A 
ATOM     10  N   UNL     1       2.050  -4.993   4.187  0.00  0.00    -0.375 N 
ATOM     11  C   UNL     1       1.907  -3.095   7.513  0.00  0.00    +0.052 C 
ATOM     12  C   UNL     1       1.176  -1.859   6.958  0.00  0.00    +0.113 C 
ATOM     13  N   UNL     1       1.665  -1.570   5.606  0.00  0.00    -0.288 N 
ATOM     14  C   UNL     1       2.206  -0.366   5.334  0.00  0.00    +0.248 C 
ATOM     15  O   UNL     1       2.522  -0.083   4.193  0.00  0.00    -0.270 OA
ATOM     16  H   UNL     1       2.176  -5.073   3.228  0.00  0.00    +0.160 HD
ENDROOT
BRANCH  14  17
ATOM     17  C   UNL     1       2.406   0.571   6.376  0.00  0.00    +0.073 C 
ATOM     18  C   UNL     1       1.885   1.814   6.452  0.00  0.00    +0.100 C 
ATOM     19  N   UNL     1       2.293   2.459   7.585  0.00  0.00    -0.269 N 
ATOM     20  N   UNL     1       3.305   1.732   8.198  0.00  0.00    -0.232 N 
ATOM     21  C   UNL     1       3.237   0.371   7.620  0.00  0.00    +0.245 C 
ATOM     22  N   UNL     1       4.610  -0.022   7.292  0.00  0.00    -0.263 NA
ATOM     23  C   UNL     1       5.610   0.489   7.944  0.00  0.00    +0.109 C 
ATOM     24  C   UNL     1       5.457   1.456   8.961  0.00  0.00    +0.036 C 
ATOM     25  C   UNL     1       4.269   2.103   9.098  0.00  0.00    +0.095 C 
ATOM     26  H   UNL     1       1.932   3.298   7.911  0.00  0.00    +0.170 HD
ENDBRANCH  14  17
BRANCH   1  30
ATOM     27  C   UNL     1       3.242  -1.040   0.922  0.00  0.00    +0.123 A 
ATOM     28  C   UNL     1       4.023  -1.802   1.780  0.00  0.00    +0.046 A 
ATOM     29  C   UNL     1       3.482  -2.300   2.949  0.00  0.00    +0.012 A 
ATOM     30  C   UNL     1       2.162  -2.039   3.267  0.00  0.00    +0.011 A 
ATOM     31  C   UNL     1       1.379  -1.279   2.414  0.00  0.00    +0.132 A 
ATOM     32  C   UNL     1       1.920  -0.774   1.244  0.00  0.00    +0.084 A 
ATOM     33  F   UNL     1       0.089  -1.026   2.726  0.00  0.00    -0.205 F 
BRANCH  27  35
ATOM     34  C   UNL     1       5.142  -0.864  -0.496  0.00  0.00    +0.277 C 
ATOM     35  O   UNL     1       3.774  -0.550  -0.228  0.00  0.00    -0.495 OA
ENDBRANCH  27  35
ENDBRANCH   1  30
TORSDOF 3
