REMARK  Name = ZINC38648595
REMARK  9 active torsions:
REMARK  status: ('A' for Active; 'I' for Inactive)
REMARK    1  A    between atoms: C_1  and  C_2
REMARK    2  A    between atoms: C_2  and  C_3
REMARK    3  A    between atoms: C_3  and  C_4
REMARK    4  A    between atoms: C_4  and  C_5
REMARK    5  A    between atoms: C_5  and  O_6
REMARK    6  A    between atoms: O_6  and  C_7
REMARK    7  A    between atoms: C_11  and  C_13
REMARK    8  A    between atoms: C_20  and  C_37
REMARK    9  A    between atoms: N_28  and  C_29
REMARK                            x       y       z     vdW  Elec       q    Type
REMARK                         _______ _______ _______ _____ _____    ______ ____
ROOT
ATOM      1  C   UNL     1      -5.370  -8.189   0.021  0.00  0.00    +0.145 C 
ATOM      2  C   UNL     1      -5.703  -8.690  -1.346  0.00  0.00    +0.072 A 
ATOM      3  C   UNL     1      -5.004  -8.539  -2.627  0.00  0.00    +0.199 A 
ATOM      4  O   UNL     1      -3.880  -8.080  -2.724  0.00  0.00    -0.287 OA
ATOM      5  C   UNL     1      -5.797  -8.999  -3.795  0.00  0.00    +0.065 A 
ATOM      6  C   UNL     1      -5.358  -8.742  -5.093  0.00  0.00    +0.018 A 
ATOM      7  C   UNL     1      -6.103  -9.168  -6.157  0.00  0.00    -0.050 A 
ATOM      8  C   UNL     1      -7.291  -9.853  -5.949  0.00  0.00    +0.007 A 
ATOM      9  C   UNL     1      -7.739 -10.117  -4.674  0.00  0.00    +0.047 A 
ATOM     10  C   UNL     1      -6.996  -9.696  -3.571  0.00  0.00    +0.139 A 
ATOM     11  O   UNL     1      -7.449  -9.975  -2.328  0.00  0.00    -0.450 OA
ATOM     12  C   UNL     1      -6.875  -9.385  -1.261  0.00  0.00    +0.199 A 
ATOM     13  C   UNL     1      -7.333  -9.350   0.139  0.00  0.00    +0.283 C 
ATOM     14  O   UNL     1      -8.350  -9.872   0.552  0.00  0.00    -0.267 OA
ATOM     15  N   UNL     1      -6.458  -8.654   0.896  0.00  0.00    -0.279 N 
ATOM     16  C   UNL     1      -5.632  -8.892  -7.562  0.00  0.00    +0.044 C 
ENDROOT
BRANCH  15  17
ATOM     17  C   UNL     1      -6.572  -8.405   2.336  0.00  0.00    +0.100 C 
ATOM     18  C   UNL     1      -7.878  -7.645   2.621  0.00  0.00    +0.047 C 
ATOM     19  C   UNL     1      -8.127  -7.671   4.156  0.00  0.00    +0.168 C 
ATOM     20  S   UNL     1      -7.636  -9.403   4.549  0.00  0.00    -0.029 S 
ATOM     21  O   UNL     1      -8.787 -10.234   4.491  0.00  0.00    -0.174 OA
ATOM     22  O   UNL     1      -6.833  -9.401   5.721  0.00  0.00    -0.174 OA
ATOM     23  C   UNL     1      -6.571  -9.755   3.092  0.00  0.00    +0.188 C 
ENDBRANCH  15  17
BRANCH   1  28
ATOM     24  C   UNL     1      -4.031  -4.655   0.015  0.00  0.00    +0.121 A 
ATOM     25  C   UNL     1      -5.205  -3.917   0.025  0.00  0.00    +0.045 A 
ATOM     26  C   UNL     1      -6.426  -4.563   0.033  0.00  0.00    +0.004 A 
ATOM     27  C   UNL     1      -6.479  -5.945   0.031  0.00  0.00    +0.006 A 
ATOM     28  C   UNL     1      -5.310  -6.683   0.022  0.00  0.00    -0.019 A 
ATOM     29  C   UNL     1      -4.086  -6.041   0.009  0.00  0.00    +0.051 A 
BRANCH  24  30
ATOM     30  O   UNL     1      -2.829  -4.022   0.007  0.00  0.00    -0.492 OA
BRANCH  30  31
ATOM     31  C   UNL     1      -2.848  -2.593   0.015  0.00  0.00    +0.229 C 
BRANCH  31  32
ATOM     32  C   UNL     1      -1.413  -2.063   0.004  0.00  0.00    +0.041 C 
BRANCH  32  33
ATOM     33  C   UNL     1      -1.433  -0.534   0.013  0.00  0.00    +0.003 C 
BRANCH  33  35
ATOM     34  C   UNL     1      -0.019   1.526   0.010  0.00  0.00    +0.004 C 
ATOM     35  C   UNL     1       0.002  -0.004   0.002  0.00  0.00    -0.003 C 
ENDBRANCH  33  35
ENDBRANCH  32  33
ENDBRANCH  31  32
ENDBRANCH  30  31
ENDBRANCH  24  30
ENDBRANCH   1  28
TORSDOF 7
