REMARK  Name = ZINC43420518
REMARK  7 active torsions:
REMARK  status: ('A' for Active; 'I' for Inactive)
REMARK    1  A    between atoms: C_1  and  N_2
REMARK    2  A    between atoms: N_2  and  C_3
REMARK    3  A    between atoms: N_2  and  C_4
REMARK    4  A    between atoms: C_4  and  C_6
REMARK    5  A    between atoms: C_4  and  C_19
REMARK    6  A    between atoms: C_6  and  N_7
REMARK    7  A    between atoms: N_10  and  C_11
REMARK                            x       y       z     vdW  Elec       q    Type
REMARK                         _______ _______ _______ _____ _____    ______ ____
ROOT
ATOM      1  N   UNL     1      -1.731   1.313  -1.385  0.00  0.00    -0.300 N 
ATOM      2  C   UNL     1      -2.109   1.933  -2.521  0.00  0.00    +0.304 C 
ATOM      3  O   UNL     1      -2.714   1.317  -3.377  0.00  0.00    -0.253 OA
ATOM      4  N   UNL     1      -1.817   3.235  -2.708  0.00  0.00    -0.268 N 
ATOM      5  H   UNL     1      -1.248   1.805  -0.703  0.00  0.00    +0.150 HD
ATOM      6  H   UNL     1      -1.275   3.709  -2.058  0.00  0.00    +0.156 HD
ENDROOT
BRANCH   4   7
ATOM      7  C   UNL     1      -2.297   3.905  -3.840  0.00  0.00    +0.053 A 
ATOM      8  C   UNL     1      -3.528   3.560  -4.383  0.00  0.00    +0.026 A 
ATOM      9  C   UNL     1      -3.999   4.223  -5.499  0.00  0.00    +0.017 A 
ATOM     10  C   UNL     1      -3.246   5.229  -6.078  0.00  0.00    +0.019 A 
ATOM     11  C   UNL     1      -2.019   5.576  -5.540  0.00  0.00    +0.037 A 
ATOM     12  C   UNL     1      -1.546   4.920  -4.419  0.00  0.00    +0.063 A 
ATOM     13 CL   UNL     1      -0.009   5.359  -3.740  0.00  0.00    -0.082 Cl
ATOM     14 BR   UNL     1      -3.895   6.133  -7.606  0.00  0.00    -0.050 Br
ENDBRANCH   4   7
BRANCH   1  15
ATOM     15  C   UNL     1      -2.048  -0.102  -1.183  0.00  0.00    +0.098 C 
BRANCH  15  16
ATOM     16  C   UNL     1      -1.405  -0.588   0.118  0.00  0.00    +0.016 C 
BRANCH  16  17
ATOM     17  C   UNL     1       0.095  -0.532  -0.012  0.00  0.00    +0.093 A 
ATOM     18  C   UNL     1       0.900  -1.574  -0.286  0.00  0.00    +0.043 A 
ATOM     19  C   UNL     1       2.222  -1.074  -0.314  0.00  0.00    +0.041 A 
ATOM     20  C   UNL     1       2.146   0.244  -0.056  0.00  0.00    +0.195 A 
ATOM     21  O   UNL     1       0.854   0.568   0.121  0.00  0.00    -0.469 OA
ENDBRANCH  16  17
BRANCH  16  23
ATOM     22  C   UNL     1      -3.284   0.142   1.420  0.00  0.00    -0.096 C 
ATOM     23  N   UNL     1      -1.833   0.275   1.228  0.00  0.00    +0.384 N 
ATOM     24  C   UNL     1      -1.138  -0.128   2.457  0.00  0.00    -0.096 C 
ATOM     25  H   UNL     1      -1.609   1.235   1.013  0.00  0.00    -0.082 HD
ENDBRANCH  16  23
ENDBRANCH  15  16
ENDBRANCH   1  15
TORSDOF 5
