REMARK  Name = ZINC35894636
REMARK  7 active torsions:
REMARK  status: ('A' for Active; 'I' for Inactive)
REMARK    1  A    between atoms: C_1  and  C_2
REMARK    2  A    between atoms: C_2  and  C_3
REMARK    3  A    between atoms: C_2  and  C_4
REMARK    4  A    between atoms: C_4  and  N_5
REMARK    5  A    between atoms: C_6  and  C_8
REMARK    6  A    between atoms: C_13  and  N_31
REMARK    7  A    between atoms: N_21  and  C_24
REMARK                            x       y       z     vdW  Elec       q    Type
REMARK                         _______ _______ _______ _____ _____    ______ ____
ROOT
ATOM      1  C   UNL     1       4.390   0.027  -2.172  0.00  0.00    +0.101 C 
ATOM      2  C   UNL     1       5.042  -0.579  -0.929  0.00  0.00    +0.051 C 
ATOM      3  C   UNL     1       6.509  -0.236  -0.937  0.00  0.00    -0.023 A 
ATOM      4  C   UNL     1       7.187  -0.112   0.262  0.00  0.00    +0.038 A 
ATOM      5  C   UNL     1       8.531   0.213   0.266  0.00  0.00    +0.127 A 
ATOM      6  C   UNL     1       9.199   0.415  -0.928  0.00  0.00    +0.034 A 
ATOM      7  C   UNL     1       8.527   0.288  -2.127  0.00  0.00    +0.025 A 
ATOM      8  C   UNL     1       7.175  -0.044  -2.134  0.00  0.00    +0.033 A 
ATOM      9  N   UNL     1       6.525  -0.192  -3.372  0.00  0.00    -0.323 N 
ATOM     10  C   UNL     1       5.102  -0.477  -3.432  0.00  0.00    +0.103 C 
ATOM     11  C   UNL     1       4.417   0.130  -4.644  0.00  0.00    +0.128 C 
ATOM     12  N   UNL     1       5.277   0.194  -5.809  0.00  0.00    -0.327 N 
ATOM     13  C   UNL     1       6.678   0.572  -5.727  0.00  0.00    +0.124 C 
ATOM     14  C   UNL     1       7.367  -0.102  -4.564  0.00  0.00    +0.124 C 
ENDROOT
BRANCH  12  15
ATOM     15  C   UNL     1       4.738  -0.121  -7.060  0.00  0.00    +0.030 A 
ATOM     16  C   UNL     1       3.436  -0.594  -7.157  0.00  0.00    +0.024 A 
ATOM     17  C   UNL     1       2.906  -0.904  -8.394  0.00  0.00    +0.022 A 
ATOM     18  C   UNL     1       3.671  -0.743  -9.536  0.00  0.00    +0.041 A 
ATOM     19  C   UNL     1       4.969  -0.272  -9.442  0.00  0.00    +0.022 A 
ATOM     20  C   UNL     1       5.502   0.045  -8.208  0.00  0.00    +0.024 A 
ATOM     21 CL   UNL     1       3.002  -1.135 -11.089  0.00  0.00    -0.084 Cl
ENDBRANCH  12  15
BRANCH   1  23
ATOM     22  N   UNL     1       2.110  -0.036  -1.217  0.00  0.00    -0.315 N 
ATOM     23  C   UNL     1       2.939  -0.376  -2.223  0.00  0.00    +0.218 C 
ATOM     24  O   UNL     1       2.518  -1.006  -3.170  0.00  0.00    -0.275 OA
ATOM     25  H   UNL     1       2.447   0.469  -0.460  0.00  0.00    +0.149 HD
BRANCH  22  26
ATOM     26  C   UNL     1       0.699  -0.427  -1.266  0.00  0.00    +0.107 C 
BRANCH  26  28
ATOM     27  C   UNL     1      -0.020   1.610  -0.010  0.00  0.00    +0.009 C 
ATOM     28  C   UNL     1      -0.015   0.080  -0.012  0.00  0.00    -0.000 C 
ATOM     29  C   UNL     1      -1.456  -0.434  -0.002  0.00  0.00    +0.009 C 
ENDBRANCH  26  28
ENDBRANCH  22  26
ENDBRANCH   1  23
BRANCH   5  30
ATOM     30  N   UNL     1       9.256   0.344   1.549  0.00  0.00    +0.056 N 
ATOM     31  O   UNL     1       8.672   0.168   2.594  0.00  0.00    -0.126 OA
ATOM     32  O   UNL     1      10.431   0.627   1.554  0.00  0.00    -0.126 OA
ENDBRANCH   5  30
TORSDOF 5
