REMARK  Name = ZINC22241760
REMARK  2 active torsions:
REMARK  status: ('A' for Active; 'I' for Inactive)
REMARK    1  A    between atoms: C_9  and  C_12
REMARK    2  A    between atoms: N_14  and  C_15
REMARK                            x       y       z     vdW  Elec       q    Type
REMARK                         _______ _______ _______ _____ _____    ______ ____
ROOT
ATOM      1  C   UNL     1       2.323  -4.169  -0.152  0.00  0.00    +0.260 C 
ATOM      2  O   UNL     1       1.389  -4.597   0.492  0.00  0.00    -0.271 OA
ATOM      3  N   UNL     1       3.289  -5.007  -0.578  0.00  0.00    -0.282 N 
ATOM      4  H   UNL     1       4.095  -4.633  -1.226  0.00  0.00    +0.155 HD
ENDROOT
BRANCH   1  13
ATOM      5  C   UNL     1       1.159   2.091  -0.019  0.00  0.00    +0.002 A 
ATOM      6  C   UNL     1      -0.024   1.375  -0.002  0.00  0.00    +0.004 A 
ATOM      7  C   UNL     1      -0.003  -0.007  -0.004  0.00  0.00    +0.047 A 
ATOM      8  C   UNL     1       1.207  -0.683  -0.023  0.00  0.00    +0.142 A 
ATOM      9  C   UNL     1       2.397   0.040  -0.043  0.00  0.00    +0.070 A 
ATOM     10  C   UNL     1       2.371   1.425  -0.039  0.00  0.00    +0.026 A 
ATOM     11  N   UNL     1       3.625  -0.640  -0.068  0.00  0.00    -0.337 N 
ATOM     12  C   UNL     1       3.616  -2.081   0.238  0.00  0.00    +0.155 C 
ATOM     13  C   UNL     1       2.404  -2.699  -0.475  0.00  0.00    +0.276 C 
ATOM     14  O   UNL     1       1.219  -2.042  -0.021  0.00  0.00    -0.476 OA
ATOM     15  H   UNL     1       4.572  -0.135  -0.305  0.00  0.00    +0.146 HD
ENDBRANCH   1  13
BRANCH   3  16
ATOM     16  C   UNL     1       3.265  -6.353  -0.197  0.00  0.00    +0.034 A 
ATOM     17  C   UNL     1       2.053  -7.015  -0.051  0.00  0.00    +0.023 A 
ATOM     18  C   UNL     1       2.036  -8.342   0.326  0.00  0.00    +0.006 A 
ATOM     19  C   UNL     1       3.222  -9.018   0.559  0.00  0.00    -0.044 A 
ATOM     20  C   UNL     1       4.431  -8.362   0.414  0.00  0.00    -0.042 A 
ATOM     21  C   UNL     1       4.453  -7.032   0.031  0.00  0.00    +0.027 A 
ATOM     22  C   UNL     1       5.569  -9.312   0.723  0.00  0.00    +0.036 C 
ATOM     23  C   UNL     1       4.950 -10.723   0.643  0.00  0.00    +0.009 C 
ATOM     24  C   UNL     1       3.466 -10.454   0.974  0.00  0.00    +0.036 C 
ENDBRANCH   3  16
TORSDOF 2
