REMARK  Name = ZINC44424745
REMARK  5 active torsions:
REMARK  status: ('A' for Active; 'I' for Inactive)
REMARK    1  A    between atoms: C_1  and  C_2
REMARK    2  A    between atoms: C_4  and  N_9
REMARK    3  A    between atoms: C_11  and  C_16
REMARK    4  A    between atoms: C_18  and  C_21
REMARK    5  A    between atoms: C_23  and  C_27
REMARK                            x       y       z     vdW  Elec       q    Type
REMARK                         _______ _______ _______ _____ _____    ______ ____
ROOT
ATOM      1  C   UNL     1      -0.117  -5.745  -4.529  0.00  0.00    +0.177 A 
ATOM      2  N   UNL     1       0.526  -6.822  -4.985  0.00  0.00    -0.190 NA
ATOM      3  C   UNL     1      -0.342  -7.738  -5.359  0.00  0.00    +0.276 A 
ATOM      4  O   UNL     1      -1.577  -7.252  -5.143  0.00  0.00    -0.331 OA
ATOM      5  N   UNL     1      -1.401  -5.953  -4.597  0.00  0.00    -0.060 NA
ENDROOT
BRANCH   1   8
ATOM      6  N   UNL     1       0.028  -2.771  -2.420  0.00  0.00    -0.271 N 
ATOM      7  C   UNL     1       0.147  -4.229  -2.540  0.00  0.00    +0.125 C 
ATOM      8  C   UNL     1       0.539  -4.491  -4.011  0.00  0.00    +0.087 C 
ATOM      9  C   UNL     1      -0.028  -3.237  -4.717  0.00  0.00    +0.109 C 
ATOM     10  C   UNL     1      -0.084  -2.189  -3.627  0.00  0.00    +0.221 C 
ATOM     11  O   UNL     1      -0.207  -0.998  -3.815  0.00  0.00    -0.275 OA
BRANCH   6  15
ATOM     12  C   UNL     1       0.014   1.503   0.010  0.00  0.00    +0.045 C 
ATOM     13  C   UNL     1       0.018  -0.004   0.002  0.00  0.00    -0.030 A 
ATOM     14  C   UNL     1       0.021  -0.687  -1.198  0.00  0.00    +0.028 A 
ATOM     15  C   UNL     1       0.025  -2.076  -1.205  0.00  0.00    +0.037 A 
ATOM     16  C   UNL     1       0.024  -2.774  -0.005  0.00  0.00    +0.025 A 
ATOM     17  C   UNL     1       0.020  -2.086   1.193  0.00  0.00    +0.022 A 
ATOM     18  C   UNL     1       0.023  -0.702   1.197  0.00  0.00    +0.044 A 
ATOM     19 CL   UNL     1       0.026   0.160   2.704  0.00  0.00    -0.083 Cl
ENDBRANCH   6  15
ENDBRANCH   1   8
BRANCH   3  20
ATOM     20  C   UNL     1      -0.017  -9.062  -5.915  0.00  0.00    +0.124 A 
ATOM     21  C   UNL     1      -0.914 -10.015  -6.309  0.00  0.00    +0.065 A 
ATOM     22  C   UNL     1      -0.186 -11.122  -6.777  0.00  0.00    +0.128 A 
ATOM     23  N   UNL     1       1.100 -10.849  -6.670  0.00  0.00    -0.170 NA
ATOM     24  N   UNL     1       1.236  -9.561  -6.136  0.00  0.00    -0.272 N 
ATOM     25  H   UNL     1       2.072  -9.104  -5.954  0.00  0.00    +0.189 HD
BRANCH  22  26
ATOM     26  C   UNL     1      -0.763 -12.379  -7.301  0.00  0.00    +0.155 A 
ATOM     27  C   UNL     1      -0.060 -13.453  -7.749  0.00  0.00    +0.051 A 
ATOM     28  C   UNL     1      -1.006 -14.418  -8.150  0.00  0.00    +0.042 A 
ATOM     29  C   UNL     1      -2.226 -13.891  -7.929  0.00  0.00    +0.196 A 
ATOM     30  O   UNL     1      -2.075 -12.661  -7.411  0.00  0.00    -0.461 OA
ENDBRANCH  22  26
ENDBRANCH   3  20
TORSDOF 4
