REMARK  Name = ZINC45819967
REMARK  6 active torsions:
REMARK  status: ('A' for Active; 'I' for Inactive)
REMARK    1  A    between atoms: C_1  and  C_2
REMARK    2  A    between atoms: N_4  and  C_5
REMARK    3  A    between atoms: C_6  and  N_22
REMARK    4  A    between atoms: N_7  and  C_14
REMARK    5  A    between atoms: N_10  and  C_13
REMARK    6  A    between atoms: C_14  and  C_15
REMARK                            x       y       z     vdW  Elec       q    Type
REMARK                         _______ _______ _______ _____ _____    ______ ____
ROOT
ATOM      1  C   UNL     1       0.083  -2.079  -1.092  0.00  0.00    +0.137 A 
ATOM      2  C   UNL     1       0.172  -2.841  -2.239  0.00  0.00    +0.127 A 
ATOM      3  N   UNL     1       0.252  -4.210  -2.131  0.00  0.00    -0.280 N 
ATOM      4  C   UNL     1       0.242  -4.799  -0.921  0.00  0.00    +0.333 A 
ATOM      5  O   UNL     1       0.313  -6.011  -0.847  0.00  0.00    -0.246 OA
ATOM      6  N   UNL     1       0.156  -4.072   0.207  0.00  0.00    -0.262 N 
ATOM      7  C   UNL     1       0.081  -2.728   0.157  0.00  0.00    +0.280 A 
ATOM      8  O   UNL     1       0.007  -2.078   1.186  0.00  0.00    -0.265 OA
ATOM      9  C   UNL     1       0.149  -4.750   1.506  0.00  0.00    +0.157 C 
ENDROOT
BRANCH   1  13
ATOM     10  C   UNL     1      -1.092   1.479  -0.617  0.00  0.00    +0.109 C 
ATOM     11  C   UNL     1      -1.057  -0.028  -0.634  0.00  0.00    +0.214 C 
ATOM     12  O   UNL     1      -1.980  -0.661  -0.166  0.00  0.00    -0.276 OA
ATOM     13  N   UNL     1       0.000  -0.672  -1.170  0.00  0.00    -0.279 N 
ATOM     14  H   UNL     1       0.703  -0.169  -1.609  0.00  0.00    +0.155 HD
ENDBRANCH   1  13
BRANCH   2  15
ATOM     15  N   UNL     1       0.182  -2.240  -3.475  0.00  0.00    -0.343 N 
ATOM     16  H   UNL     1       0.125  -1.274  -3.545  0.00  0.00    +0.144 HD
ATOM     17  H   UNL     1       0.245  -2.781  -4.277  0.00  0.00    +0.144 HD
ENDBRANCH   2  15
BRANCH   3  18
ATOM     18  C   UNL     1       0.347  -5.032  -3.340  0.00  0.00    +0.132 C 
BRANCH  18  19
ATOM     19  C   UNL     1       1.819  -5.230  -3.707  0.00  0.00    +0.013 C 
ATOM     20  C   UNL     1       1.928  -6.183  -4.904  0.00  0.00    +0.009 C 
ATOM     21  C   UNL     1       3.407  -6.502  -5.136  0.00  0.00    +0.027 C 
ATOM     22  C   UNL     1       4.211  -5.236  -5.166  0.00  0.00    -0.031 C 
ATOM     23  C   UNL     1       3.790  -4.099  -4.712  0.00  0.00    -0.031 C 
ATOM     24  C   UNL     1       2.438  -3.885  -4.095  0.00  0.00    +0.032 C 
ENDBRANCH  18  19
ENDBRANCH   3  18
TORSDOF 4
