REMARK  Name = ZINC40065236
REMARK  9 active torsions:
REMARK  status: ('A' for Active; 'I' for Inactive)
REMARK    1  A    between atoms: C_1  and  C_2
REMARK    2  A    between atoms: C_12  and  C_13
REMARK    3  A    between atoms: C_17  and  C_19
REMARK    4  A    between atoms: C_23  and  O_25
REMARK    5  A    between atoms: C_28  and  C_37
REMARK    6  A    between atoms: C_29  and  C_31
REMARK    7  A    between atoms: C_31  and  O_33
REMARK    8  A    between atoms: O_33  and  C_34
REMARK    9  A    between atoms: C_34  and  C_35
REMARK                            x       y       z     vdW  Elec       q    Type
REMARK                         _______ _______ _______ _____ _____    ______ ____
ROOT
ATOM      1  C   UNL     1      -0.018   1.503   0.010  0.00  0.00    +0.044 C 
ATOM      2  C   UNL     1       0.002  -0.004   0.002  0.00  0.00    -0.044 A 
ATOM      3  C   UNL     1       0.005  -0.683  -1.209  0.00  0.00    +0.004 A 
ATOM      4  C   UNL     1       0.021  -2.050  -1.231  0.00  0.00    +0.015 A 
ATOM      5  C   UNL     1       0.033  -2.761  -0.032  0.00  0.00    +0.065 A 
ATOM      6  C   UNL     1       0.037  -4.246  -0.038  0.00  0.00    +0.199 A 
ATOM      7  O   UNL     1       0.202  -4.908  -1.047  0.00  0.00    -0.287 OA
ATOM      8  C   UNL     1      -0.175  -4.839   1.286  0.00  0.00    +0.072 A 
ATOM      9  C   UNL     1      -0.158  -4.068   2.414  0.00  0.00    +0.199 A 
ATOM     10  O   UNL     1       0.060  -2.739   2.383  0.00  0.00    -0.449 OA
ATOM     11  C   UNL     1       0.036  -2.085   1.199  0.00  0.00    +0.143 A 
ATOM     12  C   UNL     1       0.023  -0.690   1.195  0.00  0.00    -0.005 A 
ATOM     13  C   UNL     1       0.025   0.066   2.499  0.00  0.00    +0.048 C 
ATOM     14  C   UNL     1      -0.407  -4.941   3.574  0.00  0.00    +0.289 C 
ATOM     15  O   UNL     1      -0.459  -4.566   4.728  0.00  0.00    -0.266 OA
ATOM     16  N   UNL     1      -0.569  -6.217   3.168  0.00  0.00    -0.232 N 
ATOM     17  C   UNL     1      -0.435  -6.250   1.702  0.00  0.00    +0.152 C 
ATOM     18  C   UNL     1      -0.819  -7.303   3.985  0.00  0.00    +0.169 A 
ATOM     19  N   UNL     1      -0.953  -7.324   5.299  0.00  0.00    -0.229 NA
ATOM     20  C   UNL     1      -1.189  -8.437   5.945  0.00  0.00    +0.062 A 
ATOM     21  C   UNL     1      -1.290  -9.588   5.174  0.00  0.00    +0.120 A 
ATOM     22  S   UNL     1      -1.030  -8.913   3.541  0.00  0.00    -0.045 S 
ATOM     23  C   UNL     1      -1.343  -8.468   7.444  0.00  0.00    +0.067 C 
ENDROOT
BRANCH  17  24
ATOM     24  C   UNL     1       0.722  -7.130   1.306  0.00  0.00    -0.019 A 
ATOM     25  C   UNL     1       1.865  -7.161   2.085  0.00  0.00    +0.006 A 
ATOM     26  C   UNL     1       2.928  -7.968   1.724  0.00  0.00    +0.004 A 
ATOM     27  C   UNL     1       2.852  -8.744   0.584  0.00  0.00    +0.045 A 
ATOM     28  C   UNL     1       1.707  -8.714  -0.199  0.00  0.00    +0.117 A 
ATOM     29  C   UNL     1       0.639  -7.909   0.169  0.00  0.00    +0.051 A 
BRANCH  28  30
ATOM     30  O   UNL     1       1.629  -9.477  -1.321  0.00  0.00    -0.507 OA
ATOM     31  H   UNL     1       1.266 -10.361  -1.172  0.00  0.00    +0.292 HD
ENDBRANCH  28  30
ENDBRANCH  17  24
BRANCH  21  32
ATOM     32  C   UNL     1      -1.544 -10.967   5.584  0.00  0.00    +0.348 C 
ATOM     33  O   UNL     1      -1.702 -11.232   6.761  0.00  0.00    -0.244 OA
BRANCH  32  34
ATOM     34  O   UNL     1      -1.602 -11.947   4.658  0.00  0.00    -0.457 OA
BRANCH  34  35
ATOM     35  C   UNL     1      -1.854 -13.272   5.130  0.00  0.00    +0.259 C 
BRANCH  35  36
ATOM     36  C   UNL     1      -1.884 -14.224   3.963  0.00  0.00    +0.006 C 
ATOM     37  C   UNL     1      -1.252 -15.369   4.035  0.00  0.00    +0.007 C 
ENDBRANCH  35  36
ENDBRANCH  34  35
ENDBRANCH  32  34
ENDBRANCH  21  32
TORSDOF 6
