REMARK  Name = ZINC39948065
REMARK  5 active torsions:
REMARK  status: ('A' for Active; 'I' for Inactive)
REMARK    1  A    between atoms: C_4  and  O_7
REMARK    2  A    between atoms: O_7  and  C_8
REMARK    3  A    between atoms: C_8  and  C_9
REMARK    4  A    between atoms: N_11  and  N_12
REMARK    5  A    between atoms: C_13  and  C_14
REMARK                            x       y       z     vdW  Elec       q    Type
REMARK                         _______ _______ _______ _____ _____    ______ ____
ROOT
ATOM      1  N   UNL     1       6.430  -4.465  -0.086  0.00  0.00    -0.191 NA
ATOM      2  C   UNL     1       6.617  -5.732  -0.095  0.00  0.00    +0.120 C 
ENDROOT
BRANCH   2   3
ATOM      3  C   UNL     1       8.017  -6.287  -0.113  0.00  0.00    +0.141 C 
ATOM      4  C   UNL     1       8.228  -7.058   1.176  0.00  0.00    +0.001 C 
ATOM      5  C   UNL     1       8.569  -8.373   1.070  0.00  0.00    -0.007 A 
ATOM      6  C   UNL     1       8.791  -9.191   2.263  0.00  0.00    +0.009 A 
ATOM      7  C   UNL     1       9.128 -10.497   2.108  0.00  0.00    +0.001 A 
ATOM      8  C   UNL     1       9.265 -11.067   0.843  0.00  0.00    +0.002 A 
ATOM      9  C   UNL     1       9.073 -10.363  -0.303  0.00  0.00    +0.024 A 
ATOM     10  C   UNL     1       8.720  -9.002  -0.254  0.00  0.00    +0.040 A 
ATOM     11  N   UNL     1       8.534  -8.321  -1.385  0.00  0.00    -0.284 N 
ATOM     12  C   UNL     1       8.201  -7.042  -1.410  0.00  0.00    +0.229 C 
ATOM     13  O   UNL     1       8.044  -6.474  -2.474  0.00  0.00    -0.274 OA
ATOM     14  H   UNL     1       8.647  -8.786  -2.228  0.00  0.00    +0.155 HD
ENDBRANCH   2   3
BRANCH   1  17
ATOM     15  C   UNL     1       4.932  -2.615  -0.061  0.00  0.00    +0.270 C 
ATOM     16  O   UNL     1       5.883  -1.863  -0.067  0.00  0.00    -0.270 OA
ATOM     17  N   UNL     1       5.128  -3.949  -0.070  0.00  0.00    -0.204 N 
ATOM     18  H   UNL     1       4.368  -4.551  -0.066  0.00  0.00    +0.177 HD
BRANCH  15  19
ATOM     19  C   UNL     1       3.531  -2.060  -0.044  0.00  0.00    +0.326 C 
BRANCH  19  20
ATOM     20  O   UNL     1       3.586  -0.632  -0.037  0.00  0.00    -0.483 OA
BRANCH  20  24
ATOM     21  C   UNL     1      -0.017   1.378   0.010  0.00  0.00    +0.000 A 
ATOM     22  C   UNL     1       1.170   2.088   0.002  0.00  0.00    +0.004 A 
ATOM     23  C   UNL     1       2.377   1.417  -0.013  0.00  0.00    +0.045 A 
ATOM     24  C   UNL     1       2.399   0.030  -0.021  0.00  0.00    +0.121 A 
ATOM     25  C   UNL     1       1.207  -0.680  -0.013  0.00  0.00    +0.045 A 
ATOM     26  C   UNL     1       0.002  -0.004   0.002  0.00  0.00    +0.004 A 
ENDBRANCH  20  24
ENDBRANCH  19  20
ENDBRANCH  15  19
ENDBRANCH   1  17
TORSDOF 5
