REMARK  Name = ZINC62389399
REMARK  3 active torsions:
REMARK  status: ('A' for Active; 'I' for Inactive)
REMARK    1  A    between atoms: C_4  and  N_11
REMARK    2  A    between atoms: C_5  and  C_7
REMARK    3  A    between atoms: C_7  and  C_8
REMARK                            x       y       z     vdW  Elec       q    Type
REMARK                         _______ _______ _______ _____ _____    ______ ____
ROOT
ATOM      1  N   UNL     1       3.621  -0.651  -0.048  0.00  0.00    -0.269 N 
ATOM      2  C   UNL     1       4.776   0.037  -0.146  0.00  0.00    +0.307 C 
ATOM      3  O   UNL     1       4.763   1.252  -0.129  0.00  0.00    -0.252 OA
ATOM      4  N   UNL     1       5.945  -0.623  -0.263  0.00  0.00    -0.282 N 
ATOM      5  C   UNL     1       5.913  -2.053  -0.382  0.00  0.00    +0.113 C 
ATOM      6  C   UNL     1       7.003  -2.592  -1.258  0.00  0.00    +0.007 C 
ATOM      7  C   UNL     1       7.155  -1.818  -2.557  0.00  0.00    +0.008 C 
ATOM      8  C   UNL     1       8.083  -0.623  -2.465  0.00  0.00    -0.009 C 
ATOM      9  C   UNL     1       9.416  -1.010  -1.818  0.00  0.00    +0.007 C 
ATOM     10  C   UNL     1       9.101  -1.545  -0.419  0.00  0.00    -0.009 C 
ATOM     11  C   UNL     1       8.314  -2.848  -0.569  0.00  0.00    +0.008 C 
ATOM     12  C   UNL     1       8.338  -0.535   0.406  0.00  0.00    +0.026 C 
ATOM     13  C   UNL     1       7.176   0.148  -0.267  0.00  0.00    +0.078 C 
ATOM     14  C   UNL     1       7.490   0.553  -1.702  0.00  0.00    +0.026 C 
ATOM     15  H   UNL     1       3.634  -1.620  -0.019  0.00  0.00    +0.156 HD
ENDROOT
BRANCH   1  19
ATOM     16  C   UNL     1      -0.008   1.388   0.133  0.00  0.00    +0.000 A 
ATOM     17  C   UNL     1       1.157   2.016   0.533  0.00  0.00    +0.002 A 
ATOM     18  C   UNL     1       2.361   1.343   0.475  0.00  0.00    +0.023 A 
ATOM     19  C   UNL     1       2.402   0.034   0.013  0.00  0.00    +0.038 A 
ATOM     20  C   UNL     1       1.230  -0.594  -0.389  0.00  0.00    -0.017 A 
ATOM     21  C   UNL     1       0.029   0.085  -0.328  0.00  0.00    +0.006 A 
BRANCH  20  22
ATOM     22  C   UNL     1       1.270  -2.014  -0.891  0.00  0.00    +0.132 C 
BRANCH  22  23
ATOM     23  C   UNL     1       1.206  -2.963   0.279  0.00  0.00    +0.215 C 
ATOM     24  O   UNL     1       1.136  -2.528   1.409  0.00  0.00    -0.276 OA
ATOM     25  N   UNL     1       1.228  -4.294   0.069  0.00  0.00    -0.329 N 
ATOM     26  H   UNL     1       1.284  -4.642  -0.835  0.00  0.00    +0.145 HD
ATOM     27  H   UNL     1       1.187  -4.904   0.821  0.00  0.00    +0.145 HD
ENDBRANCH  22  23
ENDBRANCH  20  22
ENDBRANCH   1  19
TORSDOF 3
