REMARK  Name = ZINC35163706
REMARK  5 active torsions:
REMARK  status: ('A' for Active; 'I' for Inactive)
REMARK    1  A    between atoms: C_1  and  O_2
REMARK    2  A    between atoms: O_2  and  C_3
REMARK    3  A    between atoms: C_3  and  C_5
REMARK    4  A    between atoms: C_6  and  N_10
REMARK    5  A    between atoms: C_11  and  C_13
REMARK                            x       y       z     vdW  Elec       q    Type
REMARK                         _______ _______ _______ _____ _____    ______ ____
ROOT
ATOM      1  N   UNL     1       1.864  -2.295  -3.227  0.00  0.00    -0.279 N 
ATOM      2  C   UNL     1       2.487  -3.114  -4.097  0.00  0.00    +0.268 C 
ATOM      3  O   UNL     1       2.417  -4.320  -3.953  0.00  0.00    -0.268 OA
ATOM      4  H   UNL     1       1.856  -1.337  -3.383  0.00  0.00    +0.155 HD
ENDROOT
BRANCH   2   5
ATOM      5  C   UNL     1       3.253  -2.549  -5.224  0.00  0.00    +0.144 A 
ATOM      6  C   UNL     1       3.923  -3.264  -6.176  0.00  0.00    +0.125 A 
ATOM      7  N   UNL     1       4.492  -2.364  -7.026  0.00  0.00    -0.306 N 
ATOM      8  C   UNL     1       5.264  -2.514  -8.143  0.00  0.00    +0.093 A 
ATOM      9  C   UNL     1       5.710  -1.438  -8.820  0.00  0.00    +0.018 A 
ATOM     10  C   UNL     1       5.386  -0.141  -8.386  0.00  0.00    +0.005 A 
ATOM     11  C   UNL     1       4.618   0.026  -7.277  0.00  0.00    +0.047 A 
ATOM     12  C   UNL     1       4.158  -1.110  -6.577  0.00  0.00    +0.138 A 
ATOM     13  N   UNL     1       3.408  -1.240  -5.496  0.00  0.00    -0.223 NA
ENDBRANCH   2   5
BRANCH   1  15
ATOM     14  C   UNL     1       0.712  -2.015  -1.090  0.00  0.00    +0.117 A 
ATOM     15  C   UNL     1       1.230  -2.823  -2.103  0.00  0.00    +0.055 A 
ATOM     16  C   UNL     1       1.071  -4.182  -1.916  0.00  0.00    +0.032 A 
ATOM     17  C   UNL     1       0.446  -4.624  -0.800  0.00  0.00    +0.048 A 
ATOM     18  S   UNL     1       0.054  -3.224   0.042  0.00  0.00    -0.088 S 
BRANCH  14  19
ATOM     19  C   UNL     1       0.715  -0.604  -0.986  0.00  0.00    +0.347 C 
ATOM     20  O   UNL     1       1.216   0.070  -1.867  0.00  0.00    -0.244 OA
BRANCH  19  22
ATOM     21  C   UNL     1       0.199   1.422   0.129  0.00  0.00    +0.280 C 
ATOM     22  O   UNL     1       0.161  -0.006   0.090  0.00  0.00    -0.464 OA
ENDBRANCH  19  22
ENDBRANCH  14  19
ENDBRANCH   1  15
TORSDOF 4
