REMARK  Name = ZINC45681902
REMARK  11 active torsions:
REMARK  status: ('A' for Active; 'I' for Inactive)
REMARK    1  A    between atoms: C_1  and  C_2
REMARK    2  A    between atoms: C_2  and  O_3
REMARK    3  A    between atoms: O_3  and  C_4
REMARK    4  A    between atoms: C_4  and  C_6
REMARK    5  A    between atoms: C_7  and  C_21
REMARK    6  A    between atoms: C_12  and  C_14
REMARK    7  A    between atoms: C_21  and  N_22
REMARK    8  A    between atoms: N_25  and  C_28
REMARK    9  A    between atoms: C_28  and  C_30
REMARK   10  A    between atoms: C_28  and  C_31
REMARK   11  A    between atoms: N_33  and  C_34
REMARK                            x       y       z     vdW  Elec       q    Type
REMARK                         _______ _______ _______ _____ _____    ______ ____
ROOT
ATOM      1  C   UNL     1      -2.591  -1.983   3.631  0.00  0.00    +0.079 C 
ATOM      2  C   UNL     1      -2.410  -2.646   2.469  0.00  0.00    +0.038 C 
ATOM      3  N   UNL     1      -3.352  -2.608   1.482  0.00  0.00    -0.271 N 
ATOM      4  C   UNL     1      -4.502  -1.929   1.578  0.00  0.00    +0.304 C 
ATOM      5  O   UNL     1      -5.280  -1.955   0.645  0.00  0.00    -0.252 OA
ATOM      6  N   UNL     1      -4.825  -1.219   2.677  0.00  0.00    -0.288 N 
ATOM      7  C   UNL     1      -3.877  -1.200   3.804  0.00  0.00    +0.144 C 
ATOM      8  H   UNL     1      -3.178  -3.101   0.664  0.00  0.00    +0.156 HD
ATOM      9  H   UNL     1      -5.664  -0.734   2.725  0.00  0.00    +0.151 HD
ENDROOT
BRANCH   7  10
ATOM     10  C   UNL     1      -3.514   0.237   4.075  0.00  0.00    -0.022 A 
ATOM     11  C   UNL     1      -3.170   1.072   3.028  0.00  0.00    +0.007 A 
ATOM     12  C   UNL     1      -2.837   2.390   3.277  0.00  0.00    +0.020 A 
ATOM     13  C   UNL     1      -2.847   2.874   4.573  0.00  0.00    +0.041 A 
ATOM     14  C   UNL     1      -3.192   2.038   5.620  0.00  0.00    +0.020 A 
ATOM     15  C   UNL     1      -3.530   0.721   5.370  0.00  0.00    +0.007 A 
ATOM     16 CL   UNL     1      -2.428   4.529   4.886  0.00  0.00    -0.084 Cl
ENDBRANCH   7  10
BRANCH   1  17
ATOM     17  C   UNL     1      -1.616  -2.021   4.656  0.00  0.00    +0.339 C 
ATOM     18  O   UNL     1      -0.646  -2.748   4.545  0.00  0.00    -0.245 OA
BRANCH  17  19
ATOM     19  O   UNL     1      -1.762  -1.253   5.755  0.00  0.00    -0.462 OA
BRANCH  19  21
ATOM     20  C   UNL     1      -1.075  -0.407   7.912  0.00  0.00    +0.048 C 
ATOM     21  C   UNL     1      -0.739  -1.343   6.749  0.00  0.00    +0.229 C 
ENDBRANCH  19  21
ENDBRANCH  17  19
ENDBRANCH   1  17
BRANCH   2  22
ATOM     22  C   UNL     1      -1.147  -3.441   2.259  0.00  0.00    +0.135 C 
BRANCH  22  23
ATOM     23  N   UNL     1      -1.324  -4.795   2.802  0.00  0.00    -0.300 NA
ATOM     24  C   UNL     1      -2.234  -5.585   1.960  0.00  0.00    +0.066 C 
ATOM     25  C   UNL     1      -2.438  -6.964   2.590  0.00  0.00    -0.062 C 
ATOM     26  N   UNL     1      -1.142  -7.644   2.712  0.00  0.00    +0.389 N 
ATOM     27  C   UNL     1      -0.253  -6.856   3.575  0.00  0.00    -0.062 C 
ATOM     28  C   UNL     1      -0.030  -5.475   2.954  0.00  0.00    +0.066 C 
ATOM     29  H   UNL     1      -0.725  -7.740   1.798  0.00  0.00    -0.081 HD
BRANCH  26  30
ATOM     30  C   UNL     1      -1.341  -8.975   3.300  0.00  0.00    +0.016 C 
ATOM     31  C   UNL     1      -2.344  -9.762   2.454  0.00  0.00    -0.004 C 
BRANCH  30  32
ATOM     32  C   UNL     1      -0.026  -9.711   3.335  0.00  0.00    +0.199 C 
ATOM     33  O   UNL     1       0.839  -9.444   2.528  0.00  0.00    -0.278 OA
ATOM     34  N   UNL     1       0.188 -10.665   4.262  0.00  0.00    -0.314 N 
ATOM     35  H   UNL     1      -0.504 -10.879   4.908  0.00  0.00    +0.149 HD
BRANCH  34  36
ATOM     36  C   UNL     1       1.466 -11.380   4.296  0.00  0.00    +0.073 C 
ATOM     37  C   UNL     1       1.422 -12.896   4.496  0.00  0.00    +0.024 C 
ATOM     38  C   UNL     1       1.900 -11.989   5.631  0.00  0.00    +0.024 C 
ENDBRANCH  34  36
ENDBRANCH  30  32
ENDBRANCH  26  30
ENDBRANCH  22  23
ENDBRANCH   2  22
TORSDOF 9
