REMARK  Name = ZINC02916567
REMARK  8 active torsions:
REMARK  status: ('A' for Active; 'I' for Inactive)
REMARK    1  A    between atoms: C_1  and  O_2
REMARK    2  A    between atoms: O_2  and  C_3
REMARK    3  A    between atoms: C_5  and  C_13
REMARK    4  A    between atoms: C_6  and  O_11
REMARK    5  A    between atoms: C_8  and  O_9
REMARK    6  A    between atoms: O_9  and  C_10
REMARK    7  A    between atoms: O_11  and  C_12
REMARK    8  A    between atoms: C_16  and  C_24
REMARK                            x       y       z     vdW  Elec       q    Type
REMARK                         _______ _______ _______ _____ _____    ______ ____
ROOT
ATOM      1  C   UNL     1       2.401   0.384  -4.230  0.00  0.00    +0.146 C 
ATOM      2  C   UNL     1       1.323   1.269  -4.868  0.00  0.00    +0.059 C 
ATOM      3  C   UNL     1       1.981   2.311  -5.780  0.00  0.00    +0.106 C 
ATOM      4  N   UNL     1       2.846   3.178  -4.956  0.00  0.00    -0.307 N 
ATOM      5  C   UNL     1       3.634   2.538  -4.009  0.00  0.00    +0.215 A 
ATOM      6  N   UNL     1       3.444   1.240  -3.664  0.00  0.00    -0.226 N 
ATOM      7  N   UNL     1       4.409   0.936  -2.704  0.00  0.00    -0.156 NA
ATOM      8  C   UNL     1       5.114   2.024  -2.519  0.00  0.00    +0.247 A 
ATOM      9  N   UNL     1       4.637   2.998  -3.312  0.00  0.00    -0.202 NA
ATOM     10  H   UNL     1       2.862   4.141  -5.070  0.00  0.00    +0.149 HD
ENDROOT
BRANCH   3  11
ATOM     11  C   UNL     1       0.917   3.141  -6.450  0.00  0.00    -0.027 A 
ATOM     12  C   UNL     1       0.317   4.180  -5.764  0.00  0.00    +0.006 A 
ATOM     13  C   UNL     1      -0.659   4.942  -6.379  0.00  0.00    +0.015 A 
ATOM     14  C   UNL     1      -1.036   4.663  -7.680  0.00  0.00    +0.013 A 
ATOM     15  C   UNL     1      -0.436   3.623  -8.366  0.00  0.00    +0.015 A 
ATOM     16  C   UNL     1       0.544   2.866  -7.753  0.00  0.00    +0.006 A 
ATOM     17  I   UNL     1      -2.516   5.817  -8.611  0.00  0.00    -0.044 I 
ENDBRANCH   3  11
BRANCH   1  20
ATOM     18  C   UNL     1       0.607  -0.608  -1.057  0.00  0.00    +0.162 A 
ATOM     19  C   UNL     1       1.173   0.160  -2.062  0.00  0.00    +0.058 A 
ATOM     20  C   UNL     1       1.787  -0.453  -3.138  0.00  0.00    +0.022 A 
ATOM     21  C   UNL     1       1.838  -1.837  -3.214  0.00  0.00    +0.129 A 
ATOM     22  C   UNL     1       1.272  -2.609  -2.211  0.00  0.00    +0.095 A 
ATOM     23  C   UNL     1       0.661  -1.996  -1.129  0.00  0.00    +0.165 A 
BRANCH  18  25
ATOM     24  C   UNL     1      -0.017   1.425   0.010  0.00  0.00    +0.277 C 
ATOM     25  O   UNL     1       0.002  -0.004   0.002  0.00  0.00    -0.491 OA
ENDBRANCH  18  25
BRANCH  23  26
ATOM     26  O   UNL     1       0.112  -2.751  -0.140  0.00  0.00    -0.491 OA
ATOM     27  C   UNL     1       0.205  -4.170  -0.279  0.00  0.00    +0.277 C 
ENDBRANCH  23  26
BRANCH  21  28
ATOM     28  O   UNL     1       2.442  -2.437  -4.274  0.00  0.00    -0.495 OA
ATOM     29  C   UNL     1       2.458  -3.866  -4.288  0.00  0.00    +0.277 C 
ENDBRANCH  21  28
ENDBRANCH   1  20
TORSDOF 5
