REMARK  Name = ZINC49206393
REMARK  4 active torsions:
REMARK  status: ('A' for Active; 'I' for Inactive)
REMARK    1  A    between atoms: C_1  and  C_2
REMARK    2  A    between atoms: C_3  and  C_20
REMARK    3  A    between atoms: N_10  and  N_11
REMARK    4  A    between atoms: N_11  and  C_12
REMARK                            x       y       z     vdW  Elec       q    Type
REMARK                         _______ _______ _______ _____ _____    ______ ____
ROOT
ATOM      1  C   UNL     1      -0.018   1.503   0.010  0.00  0.00    +0.066 C 
ATOM      2  C   UNL     1       0.002  -0.004   0.002  0.00  0.00    +0.050 A 
ATOM      3  C   UNL     1       0.006  -0.706  -1.158  0.00  0.00    +0.011 A 
ATOM      4  S   UNL     1       0.032  -2.378  -0.535  0.00  0.00    -0.057 S 
ATOM      5  C   UNL     1       0.036  -2.015   1.109  0.00  0.00    +0.166 A 
ATOM      6  N   UNL     1       0.023  -0.700   1.124  0.00  0.00    -0.230 NA
ATOM      7  N   UNL     1       0.054  -2.892   2.187  0.00  0.00    -0.247 N 
ATOM      8  C   UNL     1       0.053  -2.411   3.446  0.00  0.00    +0.319 C 
ATOM      9  O   UNL     1       0.038  -1.210   3.639  0.00  0.00    -0.251 OA
ATOM     10  N   UNL     1       0.071  -3.261   4.492  0.00  0.00    -0.234 N 
ATOM     11  C   UNL     1      -0.009  -0.210  -2.581  0.00  0.00    +0.053 C 
ATOM     12  H   UNL     1       0.066  -3.849   2.034  0.00  0.00    +0.158 HD
ATOM     13  H   UNL     1       0.070  -2.915   5.398  0.00  0.00    +0.171 HD
ENDROOT
BRANCH  10  14
ATOM     14  N   UNL     1       0.088  -4.609   4.276  0.00  0.00    -0.235 NA
ATOM     15  H   UNL     1      -0.692  -4.894   3.703  0.00  0.00    +0.145 HD
BRANCH  14  16
ATOM     16  C   UNL     1       0.105  -5.346   5.547  0.00  0.00    +0.095 C 
ATOM     17  C   UNL     1       1.354  -4.948   6.351  0.00  0.00    +0.044 C 
ATOM     18  C   UNL     1       1.189  -5.489   7.800  0.00  0.00    +0.167 C 
ATOM     19  S   UNL     1      -0.593  -5.128   8.095  0.00  0.00    -0.029 S 
ATOM     20  O   UNL     1      -1.199  -6.258   8.707  0.00  0.00    -0.174 OA
ATOM     21  O   UNL     1      -0.711  -3.852   8.710  0.00  0.00    -0.174 OA
ATOM     22  C   UNL     1      -1.171  -5.008   6.354  0.00  0.00    +0.186 C 
ENDBRANCH  14  16
ENDBRANCH  10  14
TORSDOF 2
