REMARK  Name = ZINC62269352
REMARK  5 active torsions:
REMARK  status: ('A' for Active; 'I' for Inactive)
REMARK    1  A    between atoms: C_3  and  N_22
REMARK    2  A    between atoms: C_6  and  C_7
REMARK    3  A    between atoms: C_7  and  C_9
REMARK    4  A    between atoms: C_7  and  N_16
REMARK    5  A    between atoms: C_9  and  N_10
REMARK                            x       y       z     vdW  Elec       q    Type
REMARK                         _______ _______ _______ _____ _____    ______ ____
ROOT
ATOM      1  C   UNL     1      -1.293  -0.775   0.010  0.00  0.00    +0.101 C 
ENDROOT
BRANCH   1   7
ATOM      2  C   UNL     1       0.223   0.916  -1.042  0.00  0.00    +0.007 A 
ATOM      3  C   UNL     1       1.473   1.475  -1.232  0.00  0.00    +0.033 A 
ATOM      4  C   UNL     1       2.571   0.950  -0.576  0.00  0.00    +0.126 A 
ATOM      5  C   UNL     1       2.418  -0.132   0.271  0.00  0.00    +0.033 A 
ATOM      6  C   UNL     1       1.168  -0.690   0.461  0.00  0.00    +0.007 A 
ATOM      7  C   UNL     1       0.070  -0.166  -0.197  0.00  0.00    -0.029 A 
BRANCH   4   8
ATOM      8  N   UNL     1       3.910   1.548  -0.779  0.00  0.00    +0.056 N 
ATOM      9  O   UNL     1       4.043   2.494  -1.520  0.00  0.00    -0.126 OA
ATOM     10  O   UNL     1       4.870   1.089  -0.205  0.00  0.00    -0.126 OA
ENDBRANCH   4   8
ENDBRANCH   1   7
BRANCH   1  11
ATOM     11  N   UNL     1      -1.163  -2.010   0.796  0.00  0.00    -0.294 NA
ATOM     12  C   UNL     1      -0.528  -3.072   0.007  0.00  0.00    +0.085 C 
ATOM     13  C   UNL     1      -0.278  -4.291   0.898  0.00  0.00    +0.015 C 
ATOM     14  C   UNL     1      -1.611  -4.782   1.469  0.00  0.00    +0.002 C 
ATOM     15  C   UNL     1      -2.276  -3.642   2.246  0.00  0.00    +0.015 C 
ATOM     16  C   UNL     1      -2.467  -2.441   1.316  0.00  0.00    +0.085 C 
ENDBRANCH   1  11
BRANCH   1  17
ATOM     17  C   UNL     1      -1.918  -1.099  -1.348  0.00  0.00    +0.108 C 
BRANCH  17  18
ATOM     18  N   UNL     1      -3.232  -1.724  -1.146  0.00  0.00    -0.304 NA
ATOM     19  C   UNL     1      -4.181  -0.775  -0.547  0.00  0.00    +0.065 C 
ATOM     20  C   UNL     1      -5.515  -1.480  -0.299  0.00  0.00    -0.067 C 
ATOM     21  N   UNL     1      -6.044  -1.991  -1.571  0.00  0.00    +0.381 N 
ATOM     22  C   UNL     1      -5.097  -2.957  -2.144  0.00  0.00    -0.067 C 
ATOM     23  C   UNL     1      -3.758  -2.263  -2.408  0.00  0.00    +0.065 C 
ATOM     24  H   UNL     1      -6.930  -2.446  -1.408  0.00  0.00    -0.086 HD
ATOM     25  H   UNL     1      -6.172  -1.224  -2.213  0.00  0.00    -0.086 HD
ENDBRANCH  17  18
ENDBRANCH   1  17
TORSDOF 5
