REMARK  Name = ZINC38925596
REMARK  12 active torsions:
REMARK  status: ('A' for Active; 'I' for Inactive)
REMARK    1  A    between atoms: C_1  and  C_2
REMARK    2  A    between atoms: C_2  and  O_3
REMARK    3  A    between atoms: O_3  and  C_4
REMARK    4  A    between atoms: C_4  and  C_6
REMARK    5  A    between atoms: C_7  and  C_33
REMARK    6  A    between atoms: N_11  and  C_12
REMARK    7  A    between atoms: C_12  and  C_14
REMARK    8  A    between atoms: C_14  and  S_15
REMARK    9  A    between atoms: S_15  and  C_16
REMARK   10  A    between atoms: C_23  and  C_27
REMARK   11  A    between atoms: C_24  and  C_26
REMARK   12  A    between atoms: N_30  and  C_31
REMARK                            x       y       z     vdW  Elec       q    Type
REMARK                         _______ _______ _______ _____ _____    ______ ____
ROOT
ATOM      1  C   UNL     1       4.584  -1.781   7.739  0.00  0.00    +0.170 C 
ENDROOT
BRANCH   1   2
ATOM      2  C   UNL     1       3.820  -1.750   6.441  0.00  0.00    +0.248 C 
ATOM      3  O   UNL     1       3.504  -0.685   5.946  0.00  0.00    -0.273 OA
BRANCH   2   9
ATOM      4  C   UNL     1       1.497  -2.371   2.468  0.00  0.00    +0.118 A 
ATOM      5  C   UNL     1       1.718  -3.674   2.793  0.00  0.00    +0.036 A 
ATOM      6  N   UNL     1       2.392  -3.912   3.932  0.00  0.00    -0.339 N 
ATOM      7  H   UNL     1       2.577  -4.822   4.211  0.00  0.00    +0.167 HD
ATOM      8  C   UNL     1       2.814  -2.860   4.689  0.00  0.00    +0.164 A 
ATOM      9  N   UNL     1       3.490  -2.886   5.837  0.00  0.00    -0.156 NA
ATOM     10  S   UNL     1       2.283  -1.519   3.823  0.00  0.00    -0.046 S 
ATOM     11  C   UNL     1       1.227  -4.798   1.918  0.00  0.00    +0.065 C 
BRANCH   4  12
ATOM     12  C   UNL     1       0.801  -1.814   1.305  0.00  0.00    +0.348 C 
ATOM     13  O   UNL     1       0.321  -2.557   0.470  0.00  0.00    -0.244 OA
BRANCH  12  14
ATOM     14  O   UNL     1       0.693  -0.477   1.160  0.00  0.00    -0.461 OA
BRANCH  14  16
ATOM     15  C   UNL     1      -0.019   1.526   0.010  0.00  0.00    +0.048 C 
ATOM     16  C   UNL     1       0.002  -0.004   0.002  0.00  0.00    +0.229 C 
ENDBRANCH  14  16
ENDBRANCH  12  14
ENDBRANCH   4  12
ENDBRANCH   2   9
ENDBRANCH   1   2
BRANCH   1  17
ATOM     17  S   UNL     1       4.880  -0.083   8.307  0.00  0.00    -0.113 S 
BRANCH  17  18
ATOM     18  C   UNL     1       5.797  -0.293   9.858  0.00  0.00    +0.205 C 
ATOM     19  N   UNL     1       4.968  -1.023  10.799  0.00  0.00    -0.277 NA
ATOM     20  C   UNL     1       5.660  -1.538  11.969  0.00  0.00    +0.134 C 
ATOM     21  C   UNL     1       6.860  -2.420  11.582  0.00  0.00    +0.129 C 
ATOM     22  C   UNL     1       6.463  -3.852  11.441  0.00  0.00    -0.049 C 
ATOM     23  C   UNL     1       5.332  -4.268  11.981  0.00  0.00    -0.016 C 
ATOM     24  S   UNL     1       4.592  -2.818  12.761  0.00  0.00    -0.110 S 
ATOM     25  C   UNL     1       4.773  -5.667  11.954  0.00  0.00    +0.051 C 
ATOM     26  C   UNL     1       7.345  -4.815  10.688  0.00  0.00    +0.041 C 
ATOM     27  C   UNL     1       7.548  -1.915  10.357  0.00  0.00    +0.227 C 
ATOM     28  O   UNL     1       8.623  -2.393  10.061  0.00  0.00    -0.275 OA
ATOM     29  N   UNL     1       7.048  -0.976   9.575  0.00  0.00    -0.279 N 
ATOM     30  C   UNL     1       7.799  -0.595   8.376  0.00  0.00    +0.134 C 
ATOM     31  H   UNL     1       4.161  -0.479  11.067  0.00  0.00    +0.126 HD
ENDBRANCH  17  18
ENDBRANCH   1  17
TORSDOF 7
