REMARK  Name = ZINC39698869
REMARK  7 active torsions:
REMARK  status: ('A' for Active; 'I' for Inactive)
REMARK    1  A    between atoms: C_1  and  C_2
REMARK    2  A    between atoms: C_2  and  C_4
REMARK    3  A    between atoms: C_2  and  N_14
REMARK    4  A    between atoms: C_15  and  C_17
REMARK    5  A    between atoms: C_17  and  S_18
REMARK    6  A    between atoms: S_18  and  C_19
REMARK    7  A    between atoms: C_23  and  C_25
REMARK                            x       y       z     vdW  Elec       q    Type
REMARK                         _______ _______ _______ _____ _____    ______ ____
ROOT
ATOM      1  C   UNL     1       2.736  -1.073  -2.455  0.00  0.00    +0.170 C 
ENDROOT
BRANCH   1   3
ATOM      2  N   UNL     1       0.688  -0.476  -1.203  0.00  0.00    -0.308 N 
ATOM      3  C   UNL     1       2.031  -0.587  -1.215  0.00  0.00    +0.223 C 
ATOM      4  O   UNL     1       2.672  -0.295  -0.228  0.00  0.00    -0.275 OA
ATOM      5  H   UNL     1       0.175  -0.710  -1.993  0.00  0.00    +0.149 HD
BRANCH   2   7
ATOM      6  C   UNL     1      -0.019   1.526   0.010  0.00  0.00    +0.033 C 
ATOM      7  C   UNL     1       0.002  -0.004   0.002  0.00  0.00    +0.100 C 
BRANCH   7   8
ATOM      8  C   UNL     1      -1.412  -0.526   0.013  0.00  0.00    -0.024 A 
ATOM      9  C   UNL     1      -2.140  -0.568  -1.161  0.00  0.00    +0.009 A 
ATOM     10  C   UNL     1      -3.438  -1.045  -1.155  0.00  0.00    +0.050 A 
ATOM     11  C   UNL     1      -4.012  -1.482   0.029  0.00  0.00    +0.162 A 
ATOM     12  C   UNL     1      -3.279  -1.441   1.209  0.00  0.00    +0.162 A 
ATOM     13  C   UNL     1      -1.976  -0.966   1.195  0.00  0.00    +0.055 A 
ATOM     14  O   UNL     1      -3.820  -1.873   2.381  0.00  0.00    -0.485 OA
ATOM     15  C   UNL     1      -5.246  -1.998   2.423  0.00  0.00    +0.270 C 
ATOM     16  C   UNL     1      -5.703  -2.722   1.150  0.00  0.00    +0.270 C 
ATOM     17  O   UNL     1      -5.292  -1.945   0.020  0.00  0.00    -0.485 OA
ENDBRANCH   7   8
ENDBRANCH   2   7
ENDBRANCH   1   3
BRANCH   1  18
ATOM     18  S   UNL     1       4.525  -1.111  -2.157  0.00  0.00    -0.087 S 
BRANCH  18  19
ATOM     19  C   UNL     1       5.218  -1.710  -3.723  0.00  0.00    +0.339 C 
ATOM     20  N   UNL     1       4.659  -3.029  -4.062  0.00  0.00    -0.219 N 
ATOM     21  N   UNL     1       3.991  -2.852  -5.282  0.00  0.00    -0.145 NA
ATOM     22  C   UNL     1       4.098  -1.611  -5.678  0.00  0.00    +0.238 C 
ATOM     23  O   UNL     1       4.817  -0.858  -4.806  0.00  0.00    -0.443 OA
ATOM     24  H   UNL     1       4.736  -3.849  -3.549  0.00  0.00    +0.173 HD
BRANCH  22  25
ATOM     25  C   UNL     1       3.538  -1.115  -6.863  0.00  0.00    +0.043 C 
ATOM     26  C   UNL     1       2.786  -1.823  -7.802  0.00  0.00    +0.008 A 
ATOM     27  C   UNL     1       2.370  -3.170  -7.870  0.00  0.00    +0.010 A 
ATOM     28  C   UNL     1       1.629  -3.593  -8.926  0.00  0.00    +0.001 A 
ATOM     29  C   UNL     1       1.263  -2.726  -9.957  0.00  0.00    +0.002 A 
ATOM     30  C   UNL     1       1.628  -1.420  -9.957  0.00  0.00    +0.026 A 
ATOM     31  C   UNL     1       2.403  -0.905  -8.886  0.00  0.00    +0.043 A 
ATOM     32  N   UNL     1       2.877   0.304  -8.655  0.00  0.00    -0.380 N 
ATOM     33  C   UNL     1       3.616   0.301  -7.389  0.00  0.00    +0.154 C 
ATOM     34  H   UNL     1       2.753   1.075  -9.231  0.00  0.00    +0.160 HD
ENDBRANCH  22  25
ENDBRANCH  18  19
ENDBRANCH   1  18
TORSDOF 6
