REMARK  Name = ZINC38338242
REMARK  4 active torsions:
REMARK  status: ('A' for Active; 'I' for Inactive)
REMARK    1  A    between atoms: C_2  and  C_8
REMARK    2  A    between atoms: N_9  and  N_10
REMARK    3  A    between atoms: N_13  and  N_14
REMARK    4  A    between atoms: C_15  and  C_16
REMARK                            x       y       z     vdW  Elec       q    Type
REMARK                         _______ _______ _______ _____ _____    ______ ____
ROOT
ATOM      1  N   UNL     1       2.279   5.621   0.009  0.00  0.00    -0.247 N 
ATOM      2  C   UNL     1       3.466   6.319   0.002  0.00  0.00    +0.210 C 
ATOM      3  N   UNL     1       4.600   5.677  -0.012  0.00  0.00    -0.369 N 
ATOM      4  N   UNL     1       3.454   7.696   0.009  0.00  0.00    -0.247 N 
ATOM      5  H   UNL     1       1.435   6.098   0.020  0.00  0.00    +0.192 HD
ATOM      6  H   UNL     1       5.436   6.169  -0.017  0.00  0.00    +0.159 HD
ATOM      7  H   UNL     1       2.610   8.174   0.019  0.00  0.00    +0.192 HD
ATOM      8  H   UNL     1       4.609   4.707  -0.017  0.00  0.00    +0.159 HD
ENDROOT
BRANCH   1  10
ATOM      9  C   UNL     1       1.173   3.561   0.009  0.00  0.00    +0.140 C 
ATOM     10  N   UNL     1       2.291   4.220   0.002  0.00  0.00    -0.179 NA
BRANCH   9  12
ATOM     11  C   UNL     1      -0.017   1.375   0.010  0.00  0.00    +0.011 A 
ATOM     12  C   UNL     1       1.185   2.087   0.002  0.00  0.00    -0.005 A 
ATOM     13  C   UNL     1       2.399   1.396  -0.013  0.00  0.00    +0.011 A 
ATOM     14  C   UNL     1       2.404   0.017  -0.021  0.00  0.00    +0.020 A 
ATOM     15  C   UNL     1       1.209  -0.683  -0.014  0.00  0.00    +0.041 A 
ATOM     16  C   UNL     1       0.002  -0.004   0.002  0.00  0.00    +0.020 A 
ATOM     17 CL   UNL     1       1.224  -2.419  -0.024  0.00  0.00    -0.084 Cl
ENDBRANCH   9  12
ENDBRANCH   1  10
BRANCH   4  18
ATOM     18  N   UNL     1       4.661   8.407   0.001  0.00  0.00    -0.179 NA
ATOM     19  C   UNL     1       4.650   9.705   0.008  0.00  0.00    +0.140 C 
BRANCH  19  20
ATOM     20  C   UNL     1       5.921  10.453  -0.000  0.00  0.00    -0.005 A 
ATOM     21  C   UNL     1       7.138   9.768  -0.021  0.00  0.00    +0.011 A 
ATOM     22  C   UNL     1       8.323  10.473  -0.029  0.00  0.00    +0.020 A 
ATOM     23  C   UNL     1       8.307  11.858  -0.016  0.00  0.00    +0.041 A 
ATOM     24  C   UNL     1       7.104  12.543   0.005  0.00  0.00    +0.020 A 
ATOM     25  C   UNL     1       5.912  11.850   0.007  0.00  0.00    +0.011 A 
ATOM     26 CL   UNL     1       9.803  12.739  -0.025  0.00  0.00    -0.084 Cl
ENDBRANCH  19  20
ENDBRANCH   4  18
TORSDOF 4
