REMARK  Name = ZINC39695885
REMARK  7 active torsions:
REMARK  status: ('A' for Active; 'I' for Inactive)
REMARK    1  A    between atoms: C_1  and  C_2
REMARK    2  A    between atoms: C_2  and  C_3
REMARK    3  A    between atoms: C_6  and  C_9
REMARK    4  A    between atoms: C_9  and  C_11
REMARK    5  A    between atoms: C_9  and  N_12
REMARK    6  A    between atoms: C_13  and  C_15
REMARK    7  A    between atoms: C_26  and  C_28
REMARK                            x       y       z     vdW  Elec       q    Type
REMARK                         _______ _______ _______ _____ _____    ______ ____
ROOT
ATOM      1  C   UNL     1      -8.447  -0.203  -2.561  0.00  0.00    +0.100 C 
ATOM      2  C   UNL     1      -8.103  -1.171  -3.715  0.00  0.00    +0.121 C 
ATOM      3  N   UNL     1      -9.232  -2.131  -3.747  0.00  0.00    -0.296 N 
ATOM      4  C   UNL     1     -10.431  -1.299  -3.487  0.00  0.00    +0.115 C 
ATOM      5  C   UNL     1      -9.976  -0.287  -2.417  0.00  0.00    -0.004 C 
ATOM      6  C   UNL     1     -10.607   1.078  -2.678  0.00  0.00    -0.010 C 
ATOM      7  C   UNL     1     -12.121   0.983  -2.472  0.00  0.00    -0.082 C 
ATOM      8  N   UNL     1     -12.404   0.545  -1.100  0.00  0.00    +0.379 N 
ATOM      9  C   UNL     1     -11.874  -0.808  -0.887  0.00  0.00    -0.082 C 
ATOM     10  C   UNL     1     -10.350  -0.788  -1.025  0.00  0.00    -0.010 C 
ATOM     11  C   UNL     1      -9.180  -3.460  -3.964  0.00  0.00    +0.247 C 
ATOM     12  O   UNL     1      -8.105  -4.022  -4.038  0.00  0.00    -0.270 OA
ATOM     13  H   UNL     1     -11.970   1.181  -0.449  0.00  0.00    -0.086 HD
ATOM     14  H   UNL     1     -13.402   0.541  -0.948  0.00  0.00    -0.086 HD
ENDROOT
BRANCH  11  15
ATOM     15  C   UNL     1     -10.431  -4.234  -4.113  0.00  0.00    +0.038 A 
ATOM     16  C   UNL     1     -11.617  -3.587  -4.463  0.00  0.00    +0.014 A 
ATOM     17  C   UNL     1     -12.781  -4.314  -4.601  0.00  0.00    +0.022 A 
ATOM     18  C   UNL     1     -12.775  -5.683  -4.391  0.00  0.00    +0.059 A 
ATOM     19  C   UNL     1     -11.601  -6.331  -4.042  0.00  0.00    +0.060 A 
ATOM     20  C   UNL     1     -10.428  -5.615  -3.908  0.00  0.00    +0.034 A 
ATOM     21 CL   UNL     1     -11.602  -8.047  -3.781  0.00  0.00    -0.082 Cl
ATOM     22 CL   UNL     1     -14.245  -6.591  -4.564  0.00  0.00    -0.082 Cl
ENDBRANCH  11  15
BRANCH   1  24
ATOM     23  N   UNL     1      -7.531   0.247  -0.307  0.00  0.00    -0.308 N 
ATOM     24  C   UNL     1      -7.776  -0.646  -1.286  0.00  0.00    +0.219 C 
ATOM     25  O   UNL     1      -7.455  -1.807  -1.142  0.00  0.00    -0.275 OA
ATOM     26  H   UNL     1      -7.788   1.176  -0.423  0.00  0.00    +0.149 HD
BRANCH  23  27
ATOM     27  C   UNL     1      -6.878  -0.183   0.931  0.00  0.00    +0.100 C 
ATOM     28  C   UNL     1      -5.361  -0.168   0.740  0.00  0.00    +0.033 C 
BRANCH  27  32
ATOM     29  C   UNL     1      -7.939   2.477   4.101  0.00  0.00    -0.048 A 
ATOM     30  C   UNL     1      -7.862   1.117   4.337  0.00  0.00    +0.004 A 
ATOM     31  C   UNL     1      -7.519   0.256   3.311  0.00  0.00    +0.006 A 
ATOM     32  C   UNL     1      -7.253   0.755   2.049  0.00  0.00    -0.027 A 
ATOM     33  C   UNL     1      -7.331   2.115   1.814  0.00  0.00    +0.006 A 
ATOM     34  C   UNL     1      -7.678   2.975   2.838  0.00  0.00    +0.004 A 
BRANCH  29  36
ATOM     35  C   UNL     1      -9.832   3.588   5.253  0.00  0.00    +0.009 C 
ATOM     36  C   UNL     1      -8.312   3.415   5.219  0.00  0.00    +0.032 C 
ENDBRANCH  29  36
ENDBRANCH  27  32
ENDBRANCH  23  27
ENDBRANCH   1  24
TORSDOF 5
