REMARK  Name = ZINC61638855
REMARK  3 active torsions:
REMARK  status: ('A' for Active; 'I' for Inactive)
REMARK    1  A    between atoms: C_3  and  N_21
REMARK    2  A    between atoms: C_5  and  C_8
REMARK    3  A    between atoms: C_8  and  N_9
REMARK                            x       y       z     vdW  Elec       q    Type
REMARK                         _______ _______ _______ _____ _____    ______ ____
ROOT
ATOM      1  C   UNL     1       1.244  -2.171  -0.021  0.00  0.00    +0.141 C 
ENDROOT
BRANCH   1   2
ATOM      2  N   UNL     1       1.266  -2.667   1.361  0.00  0.00    -0.289 NA
ATOM      3  C   UNL     1       0.005  -2.358   2.053  0.00  0.00    +0.113 C 
ATOM      4  C   UNL     1       0.084  -2.848   3.500  0.00  0.00    +0.175 C 
ATOM      5  O   UNL     1       0.386  -4.247   3.515  0.00  0.00    -0.374 OA
ATOM      6  C   UNL     1       1.611  -4.571   2.855  0.00  0.00    +0.135 C 
ATOM      7  C   UNL     1       1.531  -4.112   1.397  0.00  0.00    +0.086 C 
ATOM      8  C   UNL     1       2.855  -4.421   0.697  0.00  0.00    +0.021 C 
ATOM      9  C   UNL     1       3.106  -5.931   0.738  0.00  0.00    +0.002 C 
ATOM     10  C   UNL     1       3.168  -6.404   2.191  0.00  0.00    +0.003 C 
ATOM     11  C   UNL     1       1.847  -6.081   2.894  0.00  0.00    +0.033 C 
ENDBRANCH   1   2
BRANCH   1  16
ATOM     12  C   UNL     1      -0.017   1.385   0.010  0.00  0.00    +0.025 A 
ATOM     13  C   UNL     1       1.190   2.062   0.002  0.00  0.00    +0.045 A 
ATOM     14  C   UNL     1       2.374   1.333  -0.013  0.00  0.00    +0.117 A 
ATOM     15  N   UNL     1       2.351   0.009  -0.020  0.00  0.00    -0.235 NA
ATOM     16  C   UNL     1       1.216  -0.664  -0.013  0.00  0.00    +0.076 A 
ATOM     17  C   UNL     1       0.002  -0.004   0.002  0.00  0.00    +0.064 A 
ATOM     18 CL   UNL     1      -1.484  -0.901   0.012  0.00  0.00    -0.082 Cl
BRANCH  14  19
ATOM     19  N   UNL     1       3.594   2.000  -0.022  0.00  0.00    -0.343 N 
ATOM     20  H   UNL     1       3.616   2.970  -0.017  0.00  0.00    +0.144 HD
ATOM     21  H   UNL     1       4.423   1.496  -0.033  0.00  0.00    +0.144 HD
ENDBRANCH  14  19
ENDBRANCH   1  16
TORSDOF 3
