REMARK  Name = ZINC12542065
REMARK  8 active torsions:
REMARK  status: ('A' for Active; 'I' for Inactive)
REMARK    1  A    between atoms: C_1  and  N_2
REMARK    2  A    between atoms: C_10  and  S_11
REMARK    3  A    between atoms: S_11  and  C_12
REMARK    4  A    between atoms: C_12  and  C_13
REMARK    5  A    between atoms: C_13  and  C_15
REMARK    6  A    between atoms: C_16  and  N_25
REMARK    7  A    between atoms: N_17  and  C_24
REMARK    8  A    between atoms: N_20  and  C_23
REMARK                            x       y       z     vdW  Elec       q    Type
REMARK                         _______ _______ _______ _____ _____    ______ ____
ROOT
ATOM      1  C   UNL     1       1.365   9.446   0.065  0.00  0.00    +0.182 C 
ATOM      2  O   UNL     1       2.553   9.696   0.041  0.00  0.00    -0.291 OA
ENDROOT
BRANCH   1   3
ATOM      3  C   UNL     1       0.423  10.497   0.068  0.00  0.00    +0.120 A 
ATOM      4  C   UNL     1       0.833  11.838   0.167  0.00  0.00    +0.116 A 
ATOM      5  N   UNL     1      -0.116  12.821   0.160  0.00  0.00    -0.284 N 
ATOM      6  C   UNL     1      -1.423  12.528   0.073  0.00  0.00    +0.333 A 
ATOM      7  O   UNL     1      -2.228  13.439   0.077  0.00  0.00    -0.246 OA
ATOM      8  N   UNL     1      -1.874  11.267  -0.017  0.00  0.00    -0.263 N 
ATOM      9  C   UNL     1      -1.017  10.225  -0.025  0.00  0.00    +0.269 A 
ATOM     10  O   UNL     1      -1.429   9.082  -0.106  0.00  0.00    -0.267 OA
ATOM     11  C   UNL     1      -3.315  11.019  -0.109  0.00  0.00    +0.157 C 
ATOM     12  C   UNL     1       0.301  14.222   0.257  0.00  0.00    +0.155 C 
BRANCH   4  13
ATOM     13  N   UNL     1       2.153  12.153   0.261  0.00  0.00    -0.344 N 
ATOM     14  H   UNL     1       2.824  11.457   0.181  0.00  0.00    +0.144 HD
ATOM     15  H   UNL     1       2.423  13.072   0.409  0.00  0.00    +0.144 HD
ENDBRANCH   4  13
ENDBRANCH   1   3
BRANCH   1  16
ATOM     16  C   UNL     1       0.896   8.014   0.093  0.00  0.00    +0.157 C 
BRANCH  16  17
ATOM     17  S   UNL     1       2.330   6.910   0.081  0.00  0.00    -0.080 S 
BRANCH  17  27
ATOM     18  C   UNL     1       3.587   3.904   0.098  0.00  0.00    +0.151 C 
ATOM     19  N   UNL     1       2.141   4.135   0.121  0.00  0.00    -0.322 N 
ATOM     20  C   UNL     1       1.154   3.163   0.153  0.00  0.00    +0.069 A 
ATOM     21  C   UNL     1       1.170   1.777   0.172  0.00  0.00    +0.028 A 
ATOM     22  C   UNL     1      -0.018   1.076   0.203  0.00  0.00    +0.002 A 
ATOM     23  C   UNL     1      -1.230   1.750   0.211  0.00  0.00    +0.002 A 
ATOM     24  C   UNL     1      -1.266   3.126   0.199  0.00  0.00    +0.030 A 
ATOM     25  C   UNL     1      -0.071   3.850   0.166  0.00  0.00    +0.090 A 
ATOM     26  N   UNL     1       0.215   5.178   0.143  0.00  0.00    -0.222 NA
ATOM     27  C   UNL     1       1.514   5.349   0.117  0.00  0.00    +0.170 A 
ENDBRANCH  17  27
ENDBRANCH  16  17
ENDBRANCH   1  16
TORSDOF 5
