REMARK  Name = ZINC59249746
REMARK  4 active torsions:
REMARK  status: ('A' for Active; 'I' for Inactive)
REMARK    1  A    between atoms: C_4  and  N_7
REMARK    2  A    between atoms: C_11  and  C_12
REMARK    3  A    between atoms: N_16  and  C_17
REMARK    4  A    between atoms: N_26  and  C_29
REMARK                            x       y       z     vdW  Elec       q    Type
REMARK                         _______ _______ _______ _____ _____    ______ ____
ROOT
ATOM      1  N   UNL     1       3.553  -0.454  -1.006  0.00  0.00    -0.189 N 
ATOM      2  C   UNL     1       4.642   0.091  -0.425  0.00  0.00    +0.264 C 
ATOM      3  O   UNL     1       4.599   1.207   0.059  0.00  0.00    -0.269 OA
ATOM      4  C   UNL     1       5.883  -0.701  -0.391  0.00  0.00    +0.102 C 
ATOM      5  C   UNL     1       7.045  -0.205   0.191  0.00  0.00    +0.044 C 
ATOM      6  C   UNL     1       5.841  -2.041  -1.000  0.00  0.00    +0.264 C 
ATOM      7  O   UNL     1       6.827  -2.755  -1.010  0.00  0.00    -0.269 OA
ATOM      8  N   UNL     1       4.679  -2.458  -1.546  0.00  0.00    -0.189 N 
ATOM      9  C   UNL     1       3.584  -1.684  -1.537  0.00  0.00    +0.327 C 
ATOM     10  O   UNL     1       2.568  -2.120  -2.041  0.00  0.00    -0.251 OA
ENDROOT
BRANCH   1  14
ATOM     11  C   UNL     1       0.006   1.731  -1.136  0.00  0.00    +0.000 A 
ATOM     12  C   UNL     1       0.092   0.602  -0.343  0.00  0.00    +0.002 A 
ATOM     13  C   UNL     1       1.266  -0.125  -0.298  0.00  0.00    +0.024 A 
ATOM     14  C   UNL     1       2.360   0.281  -1.050  0.00  0.00    +0.046 A 
ATOM     15  C   UNL     1       2.271   1.415  -1.845  0.00  0.00    +0.024 A 
ATOM     16  C   UNL     1       1.095   2.137  -1.885  0.00  0.00    +0.002 A 
ENDBRANCH   1  14
BRANCH   8  17
ATOM     17  C   UNL     1       4.615  -3.729  -2.131  0.00  0.00    +0.046 A 
ATOM     18  C   UNL     1       5.318  -3.994  -3.299  0.00  0.00    +0.024 A 
ATOM     19  C   UNL     1       5.253  -5.248  -3.873  0.00  0.00    +0.002 A 
ATOM     20  C   UNL     1       4.488  -6.240  -3.287  0.00  0.00    +0.000 A 
ATOM     21  C   UNL     1       3.787  -5.979  -2.124  0.00  0.00    +0.002 A 
ATOM     22  C   UNL     1       3.852  -4.728  -1.542  0.00  0.00    +0.024 A 
ENDBRANCH   8  17
BRANCH   5  23
ATOM     23  C   UNL     1       8.164  -1.038   0.345  0.00  0.00    +0.047 A 
ATOM     24  C   UNL     1       9.444  -0.796  -0.140  0.00  0.00    +0.027 A 
ATOM     25  C   UNL     1      10.237  -1.877   0.241  0.00  0.00    +0.020 A 
ATOM     26  C   UNL     1       9.458  -2.747   0.935  0.00  0.00    +0.092 A 
ATOM     27  N   UNL     1       8.198  -2.249   1.011  0.00  0.00    -0.316 N 
BRANCH  27  28
ATOM     28  C   UNL     1       7.114  -2.860   1.655  0.00  0.00    +0.047 A 
ATOM     29  C   UNL     1       6.407  -2.171   2.631  0.00  0.00    +0.027 A 
ATOM     30  C   UNL     1       5.339  -2.776   3.264  0.00  0.00    +0.017 A 
ATOM     31  C   UNL     1       4.973  -4.067   2.926  0.00  0.00    +0.018 A 
ATOM     32  C   UNL     1       5.677  -4.755   1.954  0.00  0.00    +0.017 A 
ATOM     33  C   UNL     1       6.742  -4.153   1.313  0.00  0.00    +0.027 A 
ATOM     34 BR   UNL     1       3.511  -4.892   3.795  0.00  0.00    -0.050 Br
ENDBRANCH  27  28
ENDBRANCH   5  23
TORSDOF 4
