REMARK  Name = ZINC41715773
REMARK  5 active torsions:
REMARK  status: ('A' for Active; 'I' for Inactive)
REMARK    1  A    between atoms: C_1  and  C_2
REMARK    2  A    between atoms: C_2  and  C_19
REMARK    3  A    between atoms: N_8  and  C_9
REMARK    4  A    between atoms: C_9  and  C_10
REMARK    5  A    between atoms: C_15  and  O_18
REMARK                            x       y       z     vdW  Elec       q    Type
REMARK                         _______ _______ _______ _____ _____    ______ ____
ROOT
ATOM      1  C   UNL     1      -0.009   1.302  -0.390  0.00  0.00    +0.011 C 
ATOM      2  C   UNL     1      -0.057  -0.227  -0.362  0.00  0.00    -0.027 C 
ATOM      3  C   UNL     1      -1.512  -0.691  -0.226  0.00  0.00    +0.060 C 
ATOM      4  C   UNL     1      -1.993  -0.347   1.163  0.00  0.00    +0.025 A 
ATOM      5  C   UNL     1      -1.173  -0.038   2.192  0.00  0.00    +0.002 A 
ATOM      6  C   UNL     1      -1.977   0.222   3.312  0.00  0.00    +0.025 A 
ATOM      7  C   UNL     1      -3.262   0.060   2.929  0.00  0.00    +0.086 A 
ATOM      8  N   UNL     1      -3.275  -0.290   1.609  0.00  0.00    -0.350 N 
ATOM      9  C   UNL     1       0.331   0.004   2.099  0.00  0.00    +0.147 C 
ATOM     10  C   UNL     1       0.758  -0.741   0.828  0.00  0.00    +0.043 C 
ATOM     11  C   UNL     1       0.534  -0.779  -1.661  0.00  0.00    +0.011 C 
ENDROOT
BRANCH   9  12
ATOM     12  O   UNL     1       0.903  -0.630   3.244  0.00  0.00    -0.387 OA
ATOM     13  H   UNL     1       0.659  -0.219   4.085  0.00  0.00    +0.210 HD
ENDBRANCH   9  12
BRANCH   8  14
ATOM     14  C   UNL     1      -4.471  -0.559   0.808  0.00  0.00    +0.125 C 
BRANCH  14  15
ATOM     15  C   UNL     1      -4.879   0.711   0.058  0.00  0.00    +0.009 C 
ATOM     16  C   UNL     1      -5.382   1.775   1.054  0.00  0.00    +0.005 C 
ATOM     17  C   UNL     1      -6.546   2.474   0.309  0.00  0.00    +0.000 C 
ATOM     18  C   UNL     1      -7.226   1.300  -0.439  0.00  0.00    +0.000 C 
ATOM     19  C   UNL     1      -6.051   0.408  -0.892  0.00  0.00    +0.005 C 
ENDBRANCH  14  15
ENDBRANCH   8  14
TORSDOF 3
