REMARK  Name = ZINC40347315
REMARK  6 active torsions:
REMARK  status: ('A' for Active; 'I' for Inactive)
REMARK    1  A    between atoms: C_1  and  C_2
REMARK    2  A    between atoms: C_4  and  C_7
REMARK    3  A    between atoms: C_7  and  N_8
REMARK    4  A    between atoms: N_8  and  S_9
REMARK    5  A    between atoms: S_9  and  C_12
REMARK    6  A    between atoms: C_14  and  N_20
REMARK                            x       y       z     vdW  Elec       q    Type
REMARK                         _______ _______ _______ _____ _____    ______ ____
ROOT
ATOM      1  S   UNL     1       1.758  -5.026  -2.718  0.00  0.00    +0.062 S 
ATOM      2  O   UNL     1       3.165  -5.067  -2.917  0.00  0.00    -0.153 OA
ATOM      3  O   UNL     1       1.066  -6.012  -1.965  0.00  0.00    -0.153 OA
ENDROOT
BRANCH   1   4
ATOM      4  C   UNL     1       1.024  -5.009  -4.320  0.00  0.00    +0.143 A 
ATOM      5  C   UNL     1       1.823  -5.065  -5.446  0.00  0.00    +0.054 A 
ATOM      6  C   UNL     1       1.244  -5.053  -6.708  0.00  0.00    +0.028 A 
ATOM      7  C   UNL     1      -0.137  -4.984  -6.836  0.00  0.00    +0.045 A 
ATOM      8  C   UNL     1      -0.933  -4.928  -5.708  0.00  0.00    +0.080 A 
ATOM      9  C   UNL     1      -0.353  -4.946  -4.449  0.00  0.00    +0.168 A 
ATOM     10  F   UNL     1      -1.132  -4.897  -3.346  0.00  0.00    -0.202 F 
ATOM     11 CL   UNL     1      -2.659  -4.841  -5.866  0.00  0.00    -0.080 Cl
BRANCH   6  12
ATOM     12  N   UNL     1       2.051  -5.109  -7.849  0.00  0.00    -0.358 N 
ATOM     13  H   UNL     1       3.015  -5.156  -7.758  0.00  0.00    +0.142 HD
ATOM     14  H   UNL     1       1.646  -5.100  -8.730  0.00  0.00    +0.142 HD
ENDBRANCH   6  12
ENDBRANCH   1   4
BRANCH   1  15
ATOM     15  N   UNL     1       1.423  -3.567  -2.011  0.00  0.00    -0.181 NA
ATOM     16  H   UNL     1       2.143  -2.951  -1.804  0.00  0.00    +0.149 HD
BRANCH  15  17
ATOM     17  C   UNL     1       0.038  -3.206  -1.697  0.00  0.00    +0.204 C 
BRANCH  17  21
ATOM     18  C   UNL     1      -0.018   1.503   0.010  0.00  0.00    +0.091 C 
ATOM     19  C   UNL     1       0.002  -0.004   0.002  0.00  0.00    +0.169 A 
ATOM     20  N   UNL     1       0.008  -0.776  -1.091  0.00  0.00    -0.195 NA
ATOM     21  C   UNL     1       0.026  -2.034  -0.750  0.00  0.00    +0.243 A 
ATOM     22  O   UNL     1       0.033  -2.107   0.587  0.00  0.00    -0.337 OA
ATOM     23  N   UNL     1       0.023  -0.767   1.057  0.00  0.00    -0.062 NA
ENDBRANCH  17  21
ENDBRANCH  15  17
ENDBRANCH   1  15
TORSDOF 5
