REMARK  Name = ZINC22020790
REMARK  6 active torsions:
REMARK  status: ('A' for Active; 'I' for Inactive)
REMARK    1  A    between atoms: C_4  and  C_7
REMARK    2  A    between atoms: C_7  and  N_8
REMARK    3  A    between atoms: C_9  and  C_11
REMARK    4  A    between atoms: C_16  and  N_17
REMARK    5  A    between atoms: C_18  and  C_20
REMARK    6  A    between atoms: C_24  and  N_26
REMARK                            x       y       z     vdW  Elec       q    Type
REMARK                         _______ _______ _______ _____ _____    ______ ____
ROOT
ATOM      1  C   UNL     1      -2.296   0.825   0.036  0.00  0.00    +0.058 A 
ATOM      2  C   UNL     1      -3.460   1.598   0.045  0.00  0.00    +0.015 A 
ATOM      3  C   UNL     1      -3.372   2.973   0.007  0.00  0.00    +0.001 A 
ATOM      4  C   UNL     1      -2.135   3.594  -0.040  0.00  0.00    +0.002 A 
ATOM      5  C   UNL     1      -0.976   2.844  -0.045  0.00  0.00    +0.024 A 
ATOM      6  C   UNL     1      -1.045   1.457  -0.012  0.00  0.00    +0.046 A 
ENDROOT
BRANCH   1   8
ATOM      7  N   UNL     1      -3.585  -1.253   0.012  0.00  0.00    -0.307 N 
ATOM      8  C   UNL     1      -2.383  -0.647   0.076  0.00  0.00    +0.246 C 
ATOM      9  O   UNL     1      -1.370  -1.313   0.168  0.00  0.00    -0.270 OA
ATOM     10  H   UNL     1      -4.502  -0.650  -0.071  0.00  0.00    +0.149 HD
BRANCH   7  11
ATOM     11  C   UNL     1      -3.671  -2.715   0.052  0.00  0.00    +0.139 C 
BRANCH  11  15
ATOM     12  C   UNL     1      -7.766  -3.908  -0.195  0.00  0.00    +0.000 A 
ATOM     13  C   UNL     1      -7.020  -3.753  -1.349  0.00  0.00    +0.000 A 
ATOM     14  C   UNL     1      -5.695  -3.366  -1.269  0.00  0.00    +0.005 A 
ATOM     15  C   UNL     1      -5.116  -3.136  -0.035  0.00  0.00    -0.030 A 
ATOM     16  C   UNL     1      -5.860  -3.296   1.119  0.00  0.00    +0.005 A 
ATOM     17  C   UNL     1      -7.186  -3.677   1.038  0.00  0.00    +0.000 A 
ENDBRANCH  11  15
ENDBRANCH   7  11
ENDBRANCH   1   8
BRANCH   6  18
ATOM     18  N   UNL     1       0.122   0.699  -0.022  0.00  0.00    -0.281 N 
ATOM     19  C   UNL     1       1.221   1.145   0.617  0.00  0.00    +0.248 C 
ATOM     20  O   UNL     1       1.218   2.244   1.137  0.00  0.00    -0.270 OA
ATOM     21  H   UNL     1       0.147  -0.266  -0.551  0.00  0.00    +0.155 HD
BRANCH  19  22
ATOM     22  C   UNL     1       2.431   0.299   0.686  0.00  0.00    +0.039 A 
ATOM     23  C   UNL     1       2.436  -0.966   0.095  0.00  0.00    +0.014 A 
ATOM     24  C   UNL     1       3.570  -1.748   0.157  0.00  0.00    +0.018 A 
ATOM     25  C   UNL     1       4.698  -1.286   0.815  0.00  0.00    +0.048 A 
ATOM     26  C   UNL     1       4.697  -0.035   1.408  0.00  0.00    +0.141 A 
ATOM     27  C   UNL     1       3.571   0.759   1.347  0.00  0.00    +0.047 A 
ATOM     28 BR   UNL     1       6.246  -2.368   0.902  0.00  0.00    -0.048 Br
BRANCH  26  29
ATOM     29  N   UNL     1       5.907   0.451   2.109  0.00  0.00    +0.058 N 
ATOM     30  O   UNL     1       5.907   1.551   2.631  0.00  0.00    -0.126 OA
ATOM     31  O   UNL     1       6.902  -0.250   2.163  0.00  0.00    -0.126 OA
ENDBRANCH  26  29
ENDBRANCH  19  22
ENDBRANCH   6  18
TORSDOF 6
