REMARK  Name = ZINC32936340
REMARK  6 active torsions:
REMARK  status: ('A' for Active; 'I' for Inactive)
REMARK    1  A    between atoms: C_1  and  C_2
REMARK    2  A    between atoms: C_2  and  C_4
REMARK    3  A    between atoms: C_2  and  N_8
REMARK    4  A    between atoms: N_6  and  C_7
REMARK    5  A    between atoms: C_11  and  C_15
REMARK    6  A    between atoms: C_11  and  C_16
REMARK                            x       y       z     vdW  Elec       q    Type
REMARK                         _______ _______ _______ _____ _____    ______ ____
ROOT
ATOM      1  N   UNL     1      -0.727   1.988  -1.177  0.00  0.00    -0.212 N 
ATOM      2  C   UNL     1      -0.176   2.783  -2.115  0.00  0.00    +0.251 C 
ATOM      3  O   UNL     1       0.957   3.215  -2.135  0.00  0.00    -0.272 OA
ATOM      4  C   UNL     1      -1.266   3.023  -3.140  0.00  0.00    +0.135 C 
ATOM      5  N   UNL     1      -2.415   2.271  -2.607  0.00  0.00    -0.281 N 
ATOM      6  C   UNL     1      -2.003   1.701  -1.460  0.00  0.00    +0.310 C 
ATOM      7  O   UNL     1      -2.710   1.005  -0.759  0.00  0.00    -0.252 OA
ATOM      8  C   UNL     1      -0.854   2.477  -4.509  0.00  0.00    +0.047 C 
ATOM      9  H   UNL     1      -3.370   2.265  -3.153  0.00  0.00    +0.152 HD
ENDROOT
BRANCH   4  10
ATOM     10  C   UNL     1      -1.591   4.492  -3.233  0.00  0.00    -0.012 A 
ATOM     11  C   UNL     1      -0.592   5.432  -3.061  0.00  0.00    +0.010 A 
ATOM     12  C   UNL     1      -0.885   6.780  -3.150  0.00  0.00    +0.050 A 
ATOM     13  C   UNL     1      -2.183   7.192  -3.402  0.00  0.00    +0.166 A 
ATOM     14  C   UNL     1      -3.190   6.246  -3.571  0.00  0.00    +0.167 A 
ATOM     15  C   UNL     1      -2.889   4.896  -3.486  0.00  0.00    +0.055 A 
ATOM     16  O   UNL     1      -4.367   6.897  -3.805  0.00  0.00    -0.453 OA
ATOM     17  C   UNL     1      -3.996   8.236  -4.184  0.00  0.00    +0.466 C 
ATOM     18  O   UNL     1      -2.728   8.437  -3.531  0.00  0.00    -0.453 OA
ENDBRANCH   4  10
BRANCH   1  20
ATOM     19  C   UNL     1      -0.735   1.996   1.269  0.00  0.00    +0.038 C 
ATOM     20  C   UNL     1      -0.018   1.503   0.010  0.00  0.00    +0.168 C 
BRANCH  20  21
ATOM     21  C   UNL     1       0.002  -0.004   0.002  0.00  0.00    +0.234 C 
ATOM     22  O   UNL     1      -0.523  -0.613  -0.906  0.00  0.00    -0.274 OA
ATOM     23  N   UNL     1       0.604  -0.675   1.004  0.00  0.00    -0.317 N 
ATOM     24  C   UNL     1       0.624  -2.140   0.996  0.00  0.00    +0.128 C 
ATOM     25  H   UNL     1       1.081  -0.123   1.827  0.00  0.00    +0.148 HD
ENDBRANCH  20  21
ENDBRANCH   1  20
TORSDOF 3
