REMARK  Name = ZINC13057404
REMARK  8 active torsions:
REMARK  status: ('A' for Active; 'I' for Inactive)
REMARK    1  A    between atoms: C_1  and  C_2
REMARK    2  A    between atoms: C_5  and  C_8
REMARK    3  A    between atoms: C_8  and  C_10
REMARK    4  A    between atoms: C_8  and  N_15
REMARK    5  A    between atoms: C_16  and  C_18
REMARK    6  A    between atoms: C_18  and  N_19
REMARK    7  A    between atoms: C_26  and  C_30
REMARK    8  A    between atoms: C_27  and  C_29
REMARK                            x       y       z     vdW  Elec       q    Type
REMARK                         _______ _______ _______ _____ _____    ______ ____
ROOT
ATOM      1  N   UNL     1      -2.883   2.948   1.699  0.00  0.00    -0.303 N 
ATOM      2  C   UNL     1      -1.727   2.303   1.444  0.00  0.00    +0.234 C 
ATOM      3  O   UNL     1      -1.035   1.914   2.360  0.00  0.00    -0.274 OA
ATOM      4  H   UNL     1      -3.437   3.260   0.966  0.00  0.00    +0.150 HD
ENDROOT
BRANCH   1   5
ATOM      5  C   UNL     1      -3.303   3.179   3.083  0.00  0.00    +0.140 C 
BRANCH   5  10
ATOM      6  C   UNL     1      -6.803   7.772   3.295  0.00  0.00    +0.044 C 
ATOM      7  C   UNL     1      -5.890   6.574   3.240  0.00  0.00    -0.050 A 
ATOM      8  C   UNL     1      -4.945   6.379   4.230  0.00  0.00    +0.004 A 
ATOM      9  C   UNL     1      -4.108   5.280   4.179  0.00  0.00    +0.006 A 
ATOM     10  C   UNL     1      -4.215   4.377   3.139  0.00  0.00    -0.022 A 
ATOM     11  C   UNL     1      -5.157   4.575   2.145  0.00  0.00    +0.006 A 
ATOM     12  C   UNL     1      -5.997   5.671   2.199  0.00  0.00    +0.004 A 
ENDBRANCH   5  10
BRANCH   5  13
ATOM     13  C   UNL     1      -4.035   1.965   3.595  0.00  0.00    +0.014 A 
ATOM     14  C   UNL     1      -3.967   1.379   4.815  0.00  0.00    +0.013 A 
ATOM     15  C   UNL     1      -4.741   0.262   5.066  0.00  0.00    +0.008 A 
ATOM     16  C   UNL     1      -5.537  -0.221   4.081  0.00  0.00    +0.045 A 
ATOM     17  S   UNL     1      -5.210   0.921   2.749  0.00  0.00    -0.099 S 
ENDBRANCH   5  13
ENDBRANCH   1   5
BRANCH   2  18
ATOM     18  C   UNL     1      -1.295   2.066   0.019  0.00  0.00    +0.222 C 
BRANCH  18  19
ATOM     19  N   UNL     1      -0.016   1.352   0.009  0.00  0.00    -0.290 N 
ATOM     20  C   UNL     1       0.002  -0.004   0.002  0.00  0.00    +0.206 A 
ATOM     21  N   UNL     1       1.112  -0.687  -0.013  0.00  0.00    -0.202 NA
ATOM     22  C   UNL     1       2.308  -0.078  -0.021  0.00  0.00    +0.235 A 
ATOM     23  C   UNL     1       2.354   1.316  -0.013  0.00  0.00    +0.119 A 
ATOM     24  C   UNL     1       1.145   2.046   0.002  0.00  0.00    +0.266 A 
ATOM     25  O   UNL     1       1.148   3.265   0.008  0.00  0.00    -0.267 OA
ATOM     26  C   UNL     1       3.783   1.669  -0.025  0.00  0.00    +0.118 A 
ATOM     27  C   UNL     1       4.452   0.483  -0.038  0.00  0.00    +0.119 A 
ATOM     28  O   UNL     1       3.573  -0.528  -0.036  0.00  0.00    -0.441 OA
ATOM     29  C   UNL     1       5.951   0.331  -0.053  0.00  0.00    +0.087 C 
BRANCH  26  30
ATOM     30  C   UNL     1       4.366   3.020  -0.024  0.00  0.00    +0.391 C 
ATOM     31  O   UNL     1       4.617   3.572   1.029  0.00  0.00    -0.240 OA
ATOM     32  O   UNL     1       4.622   3.644  -1.191  0.00  0.00    -0.240 OA
ENDBRANCH  26  30
ENDBRANCH  18  19
ENDBRANCH   2  18
TORSDOF 6
