REMARK  Name = ZINC24912163
REMARK  3 active torsions:
REMARK  status: ('A' for Active; 'I' for Inactive)
REMARK    1  A    between atoms: C_4  and  N_7
REMARK    2  A    between atoms: N_15  and  C_18
REMARK    3  A    between atoms: N_24  and  C_25
REMARK                            x       y       z     vdW  Elec       q    Type
REMARK                         _______ _______ _______ _____ _____    ______ ____
ROOT
ATOM      1  N   UNL     1      -2.426   1.042   0.019  0.00  0.00    -0.300 N 
ATOM      2  C   UNL     1      -2.659   0.391  -1.291  0.00  0.00    +0.214 C 
ATOM      3  N   UNL     1      -4.111   0.424  -1.512  0.00  0.00    -0.298 N 
ATOM      4  C   UNL     1      -4.672   1.336  -0.690  0.00  0.00    +0.238 C 
ATOM      5  O   UNL     1      -5.852   1.611  -0.636  0.00  0.00    -0.273 OA
ATOM      6  C   UNL     1      -3.582   1.954   0.150  0.00  0.00    +0.109 C 
ATOM      7  C   UNL     1      -3.221   3.339  -0.380  0.00  0.00    +0.017 C 
ATOM      8  C   UNL     1      -4.416   4.278  -0.196  0.00  0.00    -0.076 C 
ATOM      9  N   UNL     1      -4.776   4.340   1.226  0.00  0.00    +0.384 N 
ATOM     10  C   UNL     1      -5.188   3.023   1.730  0.00  0.00    -0.076 C 
ATOM     11  C   UNL     1      -4.019   2.042   1.610  0.00  0.00    +0.017 C 
ATOM     12  H   UNL     1      -4.568  -0.238  -2.261  0.00  0.00    +0.150 HD
ATOM     13  H   UNL     1      -3.879   4.644   1.785  0.00  0.00    -0.081 HD
ENDROOT
BRANCH   9  14
ATOM     14  C   UNL     1      -5.821   5.344   1.462  0.00  0.00    -0.033 C 
ATOM     15  C   UNL     1      -6.857   5.440   0.327  0.00  0.00    +0.095 C 
ATOM     16  N   UNL     1      -6.762   6.902   0.499  0.00  0.00    -0.288 N 
ATOM     17  C   UNL     1      -5.407   6.774   1.069  0.00  0.00    +0.095 C 
ATOM     18  C   UNL     1      -7.583   7.939   0.239  0.00  0.00    +0.307 C 
ATOM     19  O   UNL     1      -7.229   9.074   0.494  0.00  0.00    -0.252 OA
ATOM     20  N   UNL     1      -8.797   7.718  -0.302  0.00  0.00    -0.264 N 
ATOM     21  H   UNL     1      -9.118   6.691  -0.532  0.00  0.00    +0.157 HD
BRANCH  20  22
ATOM     22  C   UNL     1      -9.649   8.793  -0.571  0.00  0.00    +0.073 A 
ATOM     23  C   UNL     1     -10.898   8.783  -1.114  0.00  0.00    +0.031 A 
ATOM     24  C   UNL     1     -11.560   9.986  -1.286  0.00  0.00    +0.009 A 
ATOM     25  C   UNL     1     -10.944  11.134  -0.918  0.00  0.00    +0.047 A 
ATOM     26  S   UNL     1      -9.380  10.537  -0.299  0.00  0.00    -0.082 S 
ENDBRANCH  20  22
ENDBRANCH   9  14
BRANCH   1  30
ATOM     27  C   UNL     1       1.153   3.170   0.011  0.00  0.00    +0.000 A 
ATOM     28  C   UNL     1       0.832   2.357  -1.060  0.00  0.00    +0.002 A 
ATOM     29  C   UNL     1      -0.353   1.647  -1.059  0.00  0.00    +0.023 A 
ATOM     30  C   UNL     1      -1.224   1.755   0.017  0.00  0.00    +0.032 A 
ATOM     31  C   UNL     1      -0.896   2.569   1.094  0.00  0.00    +0.023 A 
ATOM     32  C   UNL     1       0.290   3.276   1.086  0.00  0.00    +0.002 A 
ENDBRANCH   1  30
TORSDOF 3
