REMARK  Name = ZINC11998439
REMARK  8 active torsions:
REMARK  status: ('A' for Active; 'I' for Inactive)
REMARK    1  A    between atoms: C_1  and  C_2
REMARK    2  A    between atoms: C_7  and  C_9
REMARK    3  A    between atoms: C_7  and  C_28
REMARK    4  A    between atoms: C_7  and  N_59
REMARK    5  A    between atoms: C_9  and  N_10
REMARK    6  A    between atoms: N_10  and  S_11
REMARK    7  A    between atoms: S_11  and  C_14
REMARK    8  A    between atoms: C_17  and  N_20
REMARK                            x       y       z     vdW  Elec       q    Type
REMARK                         _______ _______ _______ _____ _____    ______ ____
ROOT
ATOM      1  N   UNL     1       8.512  -0.612   0.823  0.00  0.00    -0.191 NA
ATOM      2  H   UNL     1       8.977  -1.396   0.492  0.00  0.00    +0.148 HD
ENDROOT
BRANCH   1   3
ATOM      3  S   UNL     1       7.242  -0.785   1.872  0.00  0.00    +0.058 S 
ATOM      4  O   UNL     1       7.479   0.112   2.948  0.00  0.00    -0.153 OA
ATOM      5  O   UNL     1       7.065  -2.181   2.069  0.00  0.00    -0.153 OA
BRANCH   3   6
ATOM      6  C   UNL     1       5.799  -0.207   1.042  0.00  0.00    +0.105 A 
ATOM      7  C   UNL     1       5.035  -1.084   0.294  0.00  0.00    +0.030 A 
ATOM      8  C   UNL     1       3.903  -0.634  -0.357  0.00  0.00    +0.027 A 
ATOM      9  C   UNL     1       3.533   0.701  -0.260  0.00  0.00    +0.059 A 
ATOM     10  C   UNL     1       4.305   1.581   0.487  0.00  0.00    +0.027 A 
ATOM     11  C   UNL     1       5.433   1.123   1.140  0.00  0.00    +0.030 A 
BRANCH   9  12
ATOM     12  N   UNL     1       2.387   1.160  -0.919  0.00  0.00    -0.144 N 
ATOM     13  C   UNL     1       1.325   0.417  -1.267  0.00  0.00    +0.240 C 
ATOM     14  O   UNL     1       1.277  -0.763  -0.991  0.00  0.00    -0.274 OA
ATOM     15  C   UNL     1       0.201   1.079  -2.006  0.00  0.00    +0.122 C 
ATOM     16  C   UNL     1       0.302   2.612  -1.793  0.00  0.00    +0.198 C 
ATOM     17  S   UNL     1       2.098   2.734  -1.412  0.00  0.00    +0.052 S 
ATOM     18  O   UNL     1       2.858   2.911  -2.599  0.00  0.00    -0.155 OA
ATOM     19  O   UNL     1       2.319   3.543  -0.264  0.00  0.00    -0.155 OA
ENDBRANCH   9  12
ENDBRANCH   3   6
ENDBRANCH   1   3
BRANCH   1  20
ATOM     20  C   UNL     1       8.932   0.725   0.396  0.00  0.00    +0.098 C 
BRANCH  20  21
ATOM     21  C   UNL     1      10.323   0.644  -0.236  0.00  0.00    +0.015 C 
BRANCH  21  28
ATOM     22  C   UNL     1      10.550  -2.482  -5.016  0.00  0.00    +0.007 C 
ATOM     23  C   UNL     1      10.619  -1.321  -4.022  0.00  0.00    -0.018 C 
ATOM     24  C   UNL     1       9.241  -1.106  -3.390  0.00  0.00    -0.015 C 
ATOM     25  C   UNL     1       9.330   0.016  -2.353  0.00  0.00    -0.078 C 
ATOM     26  C   UNL     1      11.651  -0.511  -1.898  0.00  0.00    -0.078 C 
ATOM     27  C   UNL     1      11.631  -1.649  -2.921  0.00  0.00    -0.015 C 
ATOM     28  N   UNL     1      10.303  -0.372  -1.309  0.00  0.00    +0.387 N 
ATOM     29  H   UNL     1      10.020  -1.274  -0.909  0.00  0.00    -0.081 HD
ENDBRANCH  21  28
BRANCH  21  30
ATOM     30  C   UNL     1      10.701   1.994  -0.791  0.00  0.00    +0.093 A 
ATOM     31  C   UNL     1      11.624   2.825  -0.276  0.00  0.00    +0.043 A 
ATOM     32  C   UNL     1      11.655   3.969  -1.107  0.00  0.00    +0.041 A 
ATOM     33  C   UNL     1      10.748   3.767  -2.080  0.00  0.00    +0.195 A 
ATOM     34  O   UNL     1      10.178   2.567  -1.887  0.00  0.00    -0.469 OA
ENDBRANCH  21  30
ENDBRANCH  20  21
ENDBRANCH   1  20
TORSDOF 7
