REMARK  Name = ZINC67439140
REMARK  9 active torsions:
REMARK  status: ('A' for Active; 'I' for Inactive)
REMARK    1  A    between atoms: C_1  and  C_2
REMARK    2  A    between atoms: C_5  and  C_30
REMARK    3  A    between atoms: N_8  and  C_10
REMARK    4  A    between atoms: C_10  and  C_11
REMARK    5  A    between atoms: C_11  and  C_13
REMARK    6  A    between atoms: C_11  and  N_14
REMARK    7  A    between atoms: C_15  and  C_17
REMARK    8  A    between atoms: N_19  and  C_20
REMARK    9  A    between atoms: C_23  and  N_27
REMARK                            x       y       z     vdW  Elec       q    Type
REMARK                         _______ _______ _______ _____ _____    ______ ____
ROOT
ATOM      1  N   UNL     1       3.495  -2.482   0.939  0.00  0.00    -0.307 N 
ATOM      2  C   UNL     1       4.528  -1.842   0.356  0.00  0.00    +0.299 C 
ATOM      3  O   UNL     1       5.024  -0.874   0.895  0.00  0.00    -0.265 OA
ATOM      4  H   UNL     1       3.099  -3.255   0.508  0.00  0.00    +0.149 HD
ENDROOT
BRANCH   2   5
ATOM      5  C   UNL     1       5.063  -2.324  -0.952  0.00  0.00    +0.303 C 
ATOM      6  O   UNL     1       4.567  -3.292  -1.491  0.00  0.00    -0.265 OA
ATOM      7  N   UNL     1       6.097  -1.684  -1.535  0.00  0.00    -0.276 N 
ATOM      8  H   UNL     1       6.451  -0.873  -1.138  0.00  0.00    +0.155 HD
BRANCH   7   9
ATOM      9  C   UNL     1       6.658  -2.190  -2.711  0.00  0.00    +0.052 A 
ATOM     10  C   UNL     1       5.853  -2.817  -3.653  0.00  0.00    +0.027 A 
ATOM     11  C   UNL     1       6.411  -3.316  -4.814  0.00  0.00    +0.034 A 
ATOM     12  C   UNL     1       7.770  -3.192  -5.039  0.00  0.00    +0.128 A 
ATOM     13  C   UNL     1       8.575  -2.568  -4.103  0.00  0.00    +0.054 A 
ATOM     14  C   UNL     1       8.023  -2.061  -2.942  0.00  0.00    +0.064 A 
ATOM     15 CL   UNL     1       9.033  -1.272  -1.772  0.00  0.00    -0.082 Cl
BRANCH  12  16
ATOM     16  N   UNL     1       8.364  -3.728  -6.284  0.00  0.00    +0.056 N 
ATOM     17  O   UNL     1       7.662  -4.273  -7.103  0.00  0.00    -0.126 OA
ATOM     18  O   UNL     1       9.552  -3.620  -6.482  0.00  0.00    -0.126 OA
ENDBRANCH  12  16
ENDBRANCH   7   9
ENDBRANCH   2   5
BRANCH   1  19
ATOM     19  C   UNL     1       2.970  -2.009   2.222  0.00  0.00    +0.054 C 
ATOM     20  C   UNL     1       3.794  -2.609   3.362  0.00  0.00    +0.026 C 
BRANCH  19  21
ATOM     21  C   UNL     1       1.509  -2.440   2.366  0.00  0.00    -0.057 C 
BRANCH  21  27
ATOM     22  C   UNL     1      -0.026   1.536  -0.042  0.00  0.00    +0.005 C 
ATOM     23  C   UNL     1      -0.006   0.006  -0.043  0.00  0.00    -0.031 C 
ATOM     24  C   UNL     1      -1.443  -0.524  -0.036  0.00  0.00    +0.003 C 
ATOM     25  C   UNL     1      -1.412  -2.053   0.042  0.00  0.00    -0.031 C 
ATOM     26  C   UNL     1      -0.631  -2.479   1.287  0.00  0.00    -0.076 C 
ATOM     27  N   UNL     1       0.742  -1.964   1.208  0.00  0.00    +0.381 N 
ATOM     28  C   UNL     1       0.724  -0.496   1.204  0.00  0.00    -0.076 C 
ATOM     29  C   UNL     1      -0.730  -2.615  -1.207  0.00  0.00    +0.005 C 
ATOM     30  H   UNL     1       1.176  -2.296   0.359  0.00  0.00    -0.082 HD
ENDBRANCH  21  27
ENDBRANCH  19  21
ENDBRANCH   1  19
TORSDOF 6
