REMARK  Name = ZINC54107739
REMARK  4 active torsions:
REMARK  status: ('A' for Active; 'I' for Inactive)
REMARK    1  A    between atoms: C_1  and  C_2
REMARK    2  A    between atoms: N_8  and  S_9
REMARK    3  A    between atoms: S_9  and  N_12
REMARK    4  A    between atoms: N_12  and  C_13
REMARK                            x       y       z     vdW  Elec       q    Type
REMARK                         _______ _______ _______ _____ _____    ______ ____
ROOT
ATOM      1  N   UNL     1       0.390   1.160   3.597  0.00  0.00    -0.206 N 
ATOM      2  H   UNL     1       0.126   2.092   3.559  0.00  0.00    +0.175 HD
ENDROOT
BRANCH   1   3
ATOM      3  C   UNL     1       0.028   0.374   4.698  0.00  0.00    +0.049 A 
ATOM      4  C   UNL     1      -0.501  -0.895   4.501  0.00  0.00    +0.026 A 
ATOM      5  C   UNL     1      -0.859  -1.666   5.588  0.00  0.00    +0.025 A 
ATOM      6  C   UNL     1      -0.691  -1.175   6.878  0.00  0.00    +0.030 A 
ATOM      7  C   UNL     1      -0.161   0.090   7.077  0.00  0.00    -0.025 A 
ATOM      8  C   UNL     1       0.201   0.861   5.985  0.00  0.00    +0.030 A 
ATOM      9  C   UNL     1       0.044   0.648   8.461  0.00  0.00    +0.038 C 
ATOM     10  C   UNL     1      -0.839  -0.086   9.470  0.00  0.00    +0.023 C 
ATOM     11  C   UNL     1      -0.622  -1.596   9.314  0.00  0.00    +0.102 C 
ATOM     12  N   UNL     1      -1.067  -1.976   7.966  0.00  0.00    -0.344 N 
ATOM     13  H   UNL     1      -1.612  -2.767   7.831  0.00  0.00    +0.146 HD
ENDBRANCH   1   3
BRANCH   1  14
ATOM     14  S   UNL     1       1.270   0.497   2.361  0.00  0.00    +0.112 S 
ATOM     15  O   UNL     1       1.581   1.559   1.469  0.00  0.00    -0.138 OA
ATOM     16  O   UNL     1       0.571  -0.668   1.944  0.00  0.00    -0.138 OA
BRANCH  14  23
ATOM     17  C   UNL     1       3.344   2.347   2.899  0.00  0.00    +0.026 C 
ATOM     18  C   UNL     1       3.754   0.948   3.363  0.00  0.00    +0.078 C 
ATOM     19  C   UNL     1       5.061   0.542   2.675  0.00  0.00    +0.020 C 
ATOM     20  C   UNL     1       5.393  -0.908   3.035  0.00  0.00    +0.003 C 
ATOM     21  C   UNL     1       4.277  -1.828   2.534  0.00  0.00    +0.017 C 
ATOM     22  C   UNL     1       2.961  -1.448   3.220  0.00  0.00    +0.111 C 
ATOM     23  N   UNL     1       2.707  -0.017   3.003  0.00  0.00    -0.161 NA
ENDBRANCH  14  23
ENDBRANCH   1  14
TORSDOF 3
