REMARK  Name = ZINC36645514
REMARK  12 active torsions:
REMARK  status: ('A' for Active; 'I' for Inactive)
REMARK    1  A    between atoms: C_1  and  C_2
REMARK    2  A    between atoms: C_7  and  C_8
REMARK    3  A    between atoms: N_12  and  C_13
REMARK    4  A    between atoms: C_13  and  C_14
REMARK    5  A    between atoms: C_14  and  C_15
REMARK    6  A    between atoms: C_15  and  N_16
REMARK    7  A    between atoms: N_16  and  C_17
REMARK    8  A    between atoms: N_16  and  C_18
REMARK    9  A    between atoms: C_19  and  C_21
REMARK   10  A    between atoms: C_21  and  N_22
REMARK   11  A    between atoms: N_29  and  C_34
REMARK   12  A    between atoms: N_32  and  C_33
REMARK                            x       y       z     vdW  Elec       q    Type
REMARK                         _______ _______ _______ _____ _____    ______ ____
ROOT
ATOM      1  C   UNL     1      -0.018   1.503   0.010  0.00  0.00    +0.044 C 
ATOM      2  C   UNL     1       0.002  -0.004   0.002  0.00  0.00    -0.045 A 
ATOM      3  C   UNL     1       0.005  -0.675  -1.212  0.00  0.00    +0.005 A 
ATOM      4  C   UNL     1       0.024  -2.058  -1.222  0.00  0.00    +0.017 A 
ATOM      5  C   UNL     1       0.039  -2.743  -0.033  0.00  0.00    +0.041 A 
ATOM      6  C   UNL     1       0.036  -2.094   1.223  0.00  0.00    +0.083 A 
ATOM      7  C   UNL     1       0.023  -0.680   1.194  0.00  0.00    -0.021 A 
ATOM      8  C   UNL     1       0.025   0.092   2.488  0.00  0.00    +0.046 C 
ATOM      9  N   UNL     1       0.052  -2.906   2.302  0.00  0.00    -0.224 NA
ATOM     10  C   UNL     1       0.070  -4.214   2.200  0.00  0.00    +0.168 A 
ATOM     11  S   UNL     1       0.065  -4.459   0.429  0.00  0.00    -0.052 S 
ATOM     12  N   UNL     1       0.088  -5.164   3.208  0.00  0.00    -0.249 N 
ATOM     13  C   UNL     1       0.089  -4.777   4.499  0.00  0.00    +0.241 C 
ATOM     14  O   UNL     1       0.075  -3.597   4.778  0.00  0.00    -0.273 OA
ENDROOT
BRANCH  12  15
ATOM     15  C   UNL     1       0.106  -6.590   2.871  0.00  0.00    +0.114 C 
BRANCH  15  16
ATOM     16  C   UNL     1       1.554  -7.066   2.746  0.00  0.00    +0.001 C 
BRANCH  16  17
ATOM     17  C   UNL     1       1.573  -8.555   2.394  0.00  0.00    -0.078 C 
BRANCH  17  18
ATOM     18  N   UNL     1       2.963  -9.013   2.275  0.00  0.00    +0.376 N 
ATOM     19  C   UNL     1       3.626  -8.915   3.582  0.00  0.00    -0.097 C 
ATOM     20  C   UNL     1       2.982 -10.410   1.820  0.00  0.00    -0.097 C 
ATOM     21  H   UNL     1       3.451  -8.436   1.606  0.00  0.00    -0.083 HD
ENDBRANCH  17  18
ENDBRANCH  16  17
ENDBRANCH  15  16
ENDBRANCH  12  15
BRANCH  13  22
ATOM     22  C   UNL     1       0.109  -5.810   5.596  0.00  0.00    +0.219 C 
BRANCH  22  23
ATOM     23  N   UNL     1       0.106  -5.140   6.898  0.00  0.00    -0.316 N 
ATOM     24  C   UNL     1       1.186  -4.837   7.646  0.00  0.00    +0.202 A 
ATOM     25  N   UNL     1       0.806  -4.241   8.748  0.00  0.00    -0.218 NA
ATOM     26  C   UNL     1      -0.524  -4.130   8.767  0.00  0.00    +0.168 A 
ATOM     27  C   UNL     1      -1.002  -4.693   7.590  0.00  0.00    +0.152 A 
ATOM     28  C   UNL     1      -2.392  -4.704   7.347  0.00  0.00    +0.282 A 
ATOM     29  O   UNL     1      -2.835  -5.195   6.324  0.00  0.00    -0.265 OA
ATOM     30  N   UNL     1      -3.225  -4.165   8.262  0.00  0.00    -0.262 N 
ATOM     31  C   UNL     1      -2.749  -3.621   9.395  0.00  0.00    +0.333 A 
ATOM     32  O   UNL     1      -3.529  -3.144  10.197  0.00  0.00    -0.246 OA
ATOM     33  N   UNL     1      -1.431  -3.596   9.668  0.00  0.00    -0.280 N 
ATOM     34  C   UNL     1      -0.953  -2.992  10.915  0.00  0.00    +0.155 C 
ATOM     35  C   UNL     1      -4.669  -4.173   8.016  0.00  0.00    +0.157 C 
ENDBRANCH  22  23
ENDBRANCH  13  22
TORSDOF 6
