REMARK  Name = ZINC40681496
REMARK  7 active torsions:
REMARK  status: ('A' for Active; 'I' for Inactive)
REMARK    1  A    between atoms: C_1  and  C_2
REMARK    2  A    between atoms: C_4  and  C_18
REMARK    3  A    between atoms: C_6  and  O_8
REMARK    4  A    between atoms: O_8  and  C_9
REMARK    5  A    between atoms: C_10  and  N_17
REMARK    6  A    between atoms: C_11  and  N_15
REMARK    7  A    between atoms: N_15  and  N_16
REMARK                            x       y       z     vdW  Elec       q    Type
REMARK                         _______ _______ _______ _____ _____    ______ ____
ROOT
ATOM      1  C   UNL     1      -1.033  -2.676   3.169  0.00  0.00    +0.246 A 
ATOM      2  C   UNL     1      -1.030  -3.269   4.431  0.00  0.00    +0.129 A 
ATOM      3  C   UNL     1      -2.172  -3.135   5.225  0.00  0.00    +0.160 A 
ATOM      4  N   UNL     1      -3.210  -2.452   4.751  0.00  0.00    -0.218 NA
ATOM      5  C   UNL     1      -3.171  -1.907   3.552  0.00  0.00    +0.227 A 
ATOM      6  N   UNL     1      -2.112  -2.006   2.774  0.00  0.00    -0.199 NA
ENDROOT
BRANCH   2   7
ATOM      7  N   UNL     1       0.089  -3.981   4.890  0.00  0.00    -0.351 N 
ATOM      8  H   UNL     1       0.874  -4.066   4.327  0.00  0.00    +0.143 HD
ATOM      9  H   UNL     1       0.077  -4.388   5.770  0.00  0.00    +0.143 HD
ENDBRANCH   2   7
BRANCH   3  10
ATOM     10  N   UNL     1      -2.221  -3.707   6.490  0.00  0.00    -0.266 N 
ATOM     11  H   UNL     1      -1.460  -4.204   6.829  0.00  0.00    +0.167 HD
BRANCH  10  12
ATOM     12  N   UNL     1      -3.343  -3.570   7.258  0.00  0.00    -0.255 NA
ATOM     13  H   UNL     1      -3.232  -4.036   8.147  0.00  0.00    +0.140 HD
ATOM     14  H   UNL     1      -3.576  -2.597   7.388  0.00  0.00    +0.140 HD
ENDBRANCH  10  12
ENDBRANCH   3  10
BRANCH   1  15
ATOM     15  O   UNL     1       0.050  -2.776   2.358  0.00  0.00    -0.436 OA
BRANCH  15  21
ATOM     16  C   UNL     1       0.481   1.462  -0.024  0.00  0.00    +0.044 C 
ATOM     17  C   UNL     1       0.240  -0.025  -0.016  0.00  0.00    -0.047 A 
ATOM     18  C   UNL     1       0.003  -0.694  -1.203  0.00  0.00    +0.007 A 
ATOM     19  C   UNL     1      -0.219  -2.058  -1.198  0.00  0.00    -0.047 A 
ATOM     20  C   UNL     1      -0.203  -2.758  -0.007  0.00  0.00    +0.049 A 
ATOM     21  C   UNL     1       0.035  -2.090   1.185  0.00  0.00    +0.131 A 
ATOM     22  C   UNL     1       0.263  -0.721   1.177  0.00  0.00    +0.049 A 
ATOM     23  C   UNL     1      -0.477  -2.783  -2.494  0.00  0.00    +0.044 C 
ENDBRANCH  15  21
ENDBRANCH   1  15
TORSDOF 5
