REMARK  Name = ZINC60160064
REMARK  11 active torsions:
REMARK  status: ('A' for Active; 'I' for Inactive)
REMARK    1  A    between atoms: C_1  and  C_2
REMARK    2  A    between atoms: C_5  and  N_8
REMARK    3  A    between atoms: N_8  and  S_9
REMARK    4  A    between atoms: S_9  and  C_12
REMARK    5  A    between atoms: C_15  and  N_21
REMARK    6  A    between atoms: C_16  and  N_18
REMARK    7  A    between atoms: N_21  and  C_22
REMARK    8  A    between atoms: C_22  and  C_23
REMARK    9  A    between atoms: N_27  and  C_29
REMARK   10  A    between atoms: C_29  and  C_30
REMARK   11  A    between atoms: C_29  and  C_31
REMARK                            x       y       z     vdW  Elec       q    Type
REMARK                         _______ _______ _______ _____ _____    ______ ____
ROOT
ATOM      1  C   UNL     1       0.186  -3.418   4.546  0.00  0.00    +0.108 A 
ATOM      2  C   UNL     1       1.055  -4.272   3.893  0.00  0.00    +0.030 A 
ATOM      3  C   UNL     1       2.406  -4.235   4.176  0.00  0.00    +0.027 A 
ATOM      4  C   UNL     1       2.892  -3.338   5.120  0.00  0.00    +0.058 A 
ATOM      5  C   UNL     1       2.016  -2.482   5.775  0.00  0.00    +0.149 A 
ATOM      6  C   UNL     1       0.666  -2.520   5.482  0.00  0.00    +0.063 A 
ENDROOT
BRANCH   1   7
ATOM      7  S   UNL     1      -1.537  -3.468   4.181  0.00  0.00    +0.059 S 
ATOM      8  O   UNL     1      -2.209  -2.942   5.317  0.00  0.00    -0.153 OA
ATOM      9  O   UNL     1      -1.806  -4.766   3.670  0.00  0.00    -0.153 OA
BRANCH   7  10
ATOM     10  N   UNL     1      -1.805  -2.406   2.939  0.00  0.00    -0.187 NA
ATOM     11  H   UNL     1      -2.353  -1.618   3.084  0.00  0.00    +0.148 HD
BRANCH  10  16
ATOM     12  C   UNL     1      -1.372   1.580   0.749  0.00  0.00    +0.007 C 
ATOM     13  C   UNL     1      -1.115   0.081   0.581  0.00  0.00    -0.014 C 
ATOM     14  C   UNL     1      -2.437  -0.679   0.701  0.00  0.00    +0.005 C 
ATOM     15  C   UNL     1      -2.180  -2.178   0.533  0.00  0.00    +0.020 C 
ATOM     16  C   UNL     1      -1.216  -2.655   1.621  0.00  0.00    +0.077 C 
ATOM     17  C   UNL     1       0.106  -1.895   1.501  0.00  0.00    +0.020 C 
ATOM     18  C   UNL     1      -0.151  -0.396   1.669  0.00  0.00    +0.005 C 
ENDBRANCH  10  16
ENDBRANCH   7  10
ENDBRANCH   1   7
BRANCH   5  19
ATOM     19  N   UNL     1       2.529  -1.525   6.781  0.00  0.00    +0.058 N 
ATOM     20  O   UNL     1       3.423  -1.852   7.525  0.00  0.00    -0.126 OA
ATOM     21  O   UNL     1       2.053  -0.416   6.858  0.00  0.00    -0.126 OA
ENDBRANCH   5  19
BRANCH   4  22
ATOM     22  N   UNL     1       4.257  -3.298   5.410  0.00  0.00    -0.342 N 
ATOM     23  H   UNL     1       4.607  -2.616   6.004  0.00  0.00    +0.146 HD
BRANCH  22  24
ATOM     24  C   UNL     1       5.161  -4.287   4.816  0.00  0.00    +0.103 C 
BRANCH  24  25
ATOM     25  C   UNL     1       6.591  -4.021   5.293  0.00  0.00    -0.012 C 
ATOM     26  C   UNL     1       7.114  -2.690   4.706  0.00  0.00    -0.015 C 
ATOM     27  C   UNL     1       8.591  -3.016   4.370  0.00  0.00    -0.078 C 
ATOM     28  N   UNL     1       8.527  -4.417   3.882  0.00  0.00    +0.381 N 
ATOM     29  C   UNL     1       7.544  -5.104   4.752  0.00  0.00    -0.074 C 
ATOM     30  H   UNL     1       8.217  -4.438   2.922  0.00  0.00    -0.081 HD
BRANCH  28  31
ATOM     31  C   UNL     1       9.844  -5.057   4.006  0.00  0.00    -0.075 C 
ATOM     32  C   UNL     1       9.752  -6.509   3.532  0.00  0.00    -0.014 C 
ATOM     33  C   UNL     1      10.859  -4.303   3.145  0.00  0.00    -0.014 C 
ENDBRANCH  28  31
ENDBRANCH  24  25
ENDBRANCH  22  24
ENDBRANCH   4  22
TORSDOF 8
