REMARK  Name = ZINC36737797
REMARK  4 active torsions:
REMARK  status: ('A' for Active; 'I' for Inactive)
REMARK    1  A    between atoms: C_3  and  N_10
REMARK    2  A    between atoms: C_4  and  C_8
REMARK    3  A    between atoms: C_6  and  N_7
REMARK    4  A    between atoms: C_11  and  C_13
REMARK                            x       y       z     vdW  Elec       q    Type
REMARK                         _______ _______ _______ _____ _____    ______ ____
ROOT
ATOM      1  C   UNL     1      -0.019   1.399  -0.018  0.00  0.00    +0.024 A 
ATOM      2  C   UNL     1       1.165   2.108  -0.016  0.00  0.00    +0.026 A 
ATOM      3  C   UNL     1       2.379   1.437  -0.023  0.00  0.00    +0.051 A 
ATOM      4  C   UNL     1       2.401   0.034  -0.033  0.00  0.00    +0.075 A 
ATOM      5  C   UNL     1       1.199  -0.676  -0.035  0.00  0.00    +0.043 A 
ATOM      6  C   UNL     1      -0.005   0.008  -0.028  0.00  0.00    +0.026 A 
ENDROOT
BRANCH   3   7
ATOM      7  N   UNL     1       3.575   2.155  -0.022  0.00  0.00    -0.280 N 
ATOM      8  C   UNL     1       3.609   3.407   0.477  0.00  0.00    +0.255 C 
ATOM      9  O   UNL     1       2.623   3.873   1.018  0.00  0.00    -0.269 OA
ATOM     10  H   UNL     1       4.382   1.754  -0.380  0.00  0.00    +0.155 HD
BRANCH   8  11
ATOM     11  C   UNL     1       4.832   4.205   0.370  0.00  0.00    +0.075 A 
ATOM     12  C   UNL     1       5.076   5.496   0.817  0.00  0.00    +0.022 A 
ATOM     13  C   UNL     1       6.335   5.986   0.569  0.00  0.00    +0.024 A 
ATOM     14  C   UNL     1       7.233   5.199  -0.078  0.00  0.00    +0.056 A 
ATOM     15  S   UNL     1       6.398   3.770  -0.363  0.00  0.00    -0.077 S 
ATOM     16 BR   UNL     1       9.017   5.615  -0.545  0.00  0.00    -0.043 Br
ENDBRANCH   8  11
ENDBRANCH   3   7
BRANCH   6  17
ATOM     17  N   UNL     1      -1.211  -0.702  -0.030  0.00  0.00    -0.358 N 
ATOM     18  H   UNL     1      -2.055  -0.224  -0.024  0.00  0.00    +0.142 HD
ATOM     19  H   UNL     1      -1.203  -1.672  -0.037  0.00  0.00    +0.142 HD
ENDBRANCH   6  17
BRANCH   4  20
ATOM     20  C   UNL     1       3.651  -0.666  -0.042  0.00  0.00    +0.101 C 
ATOM     21  N   UNL     1       4.641  -1.221  -0.049  0.00  0.00    -0.191 NA
ENDBRANCH   4  20
TORSDOF 4
