REMARK  Name = ZINC39265772
REMARK  6 active torsions:
REMARK  status: ('A' for Active; 'I' for Inactive)
REMARK    1  A    between atoms: C_4  and  C_7
REMARK    2  A    between atoms: C_7  and  O_8
REMARK    3  A    between atoms: O_8  and  C_9
REMARK    4  A    between atoms: C_16  and  C_34
REMARK    5  A    between atoms: N_18  and  C_21
REMARK    6  A    between atoms: C_21  and  C_22
REMARK                            x       y       z     vdW  Elec       q    Type
REMARK                         _______ _______ _______ _____ _____    ______ ____
ROOT
ATOM      1  C   UNL     1       5.638  -1.593   1.329  0.00  0.00    +0.404 C 
ATOM      2  O   UNL     1       6.372  -1.720   0.369  0.00  0.00    -0.226 OA
ATOM      3  N   UNL     1       6.008  -2.081   2.530  0.00  0.00    -0.251 N 
ATOM      4  C   UNL     1       5.273  -1.903   3.797  0.00  0.00    +0.112 C 
ATOM      5  C   UNL     1       5.714  -3.095   4.683  0.00  0.00    +0.022 C 
ATOM      6  C   UNL     1       7.211  -3.236   4.295  0.00  0.00    +0.039 C 
ATOM      7  C   UNL     1       7.207  -2.882   2.796  0.00  0.00    +0.139 C 
ATOM      8  C   UNL     1       7.410  -4.074   1.860  0.00  0.00    +0.139 C 
ATOM      9  N   UNL     1       8.636  -3.360   1.481  0.00  0.00    -0.281 N 
ATOM     10  C   UNL     1       8.496  -2.289   2.294  0.00  0.00    +0.243 C 
ATOM     11  O   UNL     1       9.134  -1.283   2.520  0.00  0.00    -0.273 OA
ENDROOT
BRANCH   8  12
ATOM     12  C   UNL     1       6.386  -4.174   0.760  0.00  0.00    -0.024 A 
ATOM     13  C   UNL     1       6.793  -4.340  -0.551  0.00  0.00    +0.005 A 
ATOM     14  C   UNL     1       5.853  -4.433  -1.560  0.00  0.00    +0.000 A 
ATOM     15  C   UNL     1       4.506  -4.360  -1.260  0.00  0.00    +0.000 A 
ATOM     16  C   UNL     1       4.099  -4.195   0.051  0.00  0.00    +0.000 A 
ATOM     17  C   UNL     1       5.038  -4.107   1.061  0.00  0.00    +0.005 A 
ENDBRANCH   8  12
BRANCH   1  18
ATOM     18  O   UNL     1       4.454  -0.966   1.194  0.00  0.00    -0.445 OA
BRANCH  18  19
ATOM     19  C   UNL     1       4.126  -0.475  -0.107  0.00  0.00    +0.269 C 
BRANCH  19  23
ATOM     20  C   UNL     1       0.297   1.415   0.006  0.00  0.00    +0.000 A 
ATOM     21  C   UNL     1       1.439   2.153   0.251  0.00  0.00    +0.000 A 
ATOM     22  C   UNL     1       2.678   1.541   0.215  0.00  0.00    +0.007 A 
ATOM     23  C   UNL     1       2.775   0.191  -0.067  0.00  0.00    -0.010 A 
ATOM     24  C   UNL     1       1.632  -0.547  -0.311  0.00  0.00    +0.007 A 
ATOM     25  C   UNL     1       0.393   0.065  -0.275  0.00  0.00    +0.000 A 
ENDBRANCH  19  23
ENDBRANCH  18  19
ENDBRANCH   1  18
BRANCH   9  26
ATOM     26  C   UNL     1       9.687  -3.704   0.520  0.00  0.00    +0.204 C 
BRANCH  26  27
ATOM     27  C   UNL     1       9.423  -3.000  -0.786  0.00  0.00    +0.233 C 
ATOM     28  O   UNL     1       8.448  -2.289  -0.905  0.00  0.00    -0.274 OA
ATOM     29  N   UNL     1      10.271  -3.160  -1.821  0.00  0.00    -0.296 N 
ATOM     30  C   UNL     1      10.045  -2.481  -3.108  0.00  0.00    +0.113 C 
ATOM     31  C   UNL     1      11.199  -1.506  -3.334  0.00  0.00    +0.054 C 
ATOM     32  C   UNL     1      12.524  -2.173  -3.072  0.00  0.00    -0.041 A 
ATOM     33  C   UNL     1      13.659  -1.592  -3.626  0.00  0.00    +0.004 A 
ATOM     34  C   UNL     1      14.904  -2.147  -3.417  0.00  0.00    +0.000 A 
ATOM     35  C   UNL     1      15.027  -3.291  -2.650  0.00  0.00    +0.000 A 
ATOM     36  C   UNL     1      13.902  -3.871  -2.102  0.00  0.00    +0.005 A 
ATOM     37  C   UNL     1      12.647  -3.317  -2.316  0.00  0.00    -0.027 A 
ATOM     38  C   UNL     1      11.460  -4.012  -1.709  0.00  0.00    +0.143 C 
ENDBRANCH  26  27
ENDBRANCH   9  26
TORSDOF 6
