REMARK  Name = ZINC08967005
REMARK  9 active torsions:
REMARK  status: ('A' for Active; 'I' for Inactive)
REMARK    1  A    between atoms: C_1  and  C_2
REMARK    2  A    between atoms: C_2  and  O_3
REMARK    3  A    between atoms: O_3  and  C_4
REMARK    4  A    between atoms: C_4  and  C_5
REMARK    5  A    between atoms: C_5  and  N_6
REMARK    6  A    between atoms: C_10  and  S_26
REMARK    7  A    between atoms: N_15  and  S_16
REMARK    8  A    between atoms: S_16  and  C_19
REMARK    9  A    between atoms: S_26  and  N_29
REMARK                            x       y       z     vdW  Elec       q    Type
REMARK                         _______ _______ _______ _____ _____    ______ ____
ROOT
ATOM      1  N   UNL     1      -0.235   1.244   4.841  0.00  0.00    -0.316 N 
ATOM      2  C   UNL     1      -0.620   0.053   5.437  0.00  0.00    +0.058 A 
ATOM      3  C   UNL     1      -1.582  -0.860   4.975  0.00  0.00    +0.029 A 
ATOM      4  C   UNL     1      -1.856  -2.011   5.675  0.00  0.00    +0.030 A 
ATOM      5  C   UNL     1      -1.192  -2.311   6.852  0.00  0.00    +0.106 A 
ATOM      6  C   UNL     1      -0.235  -1.432   7.328  0.00  0.00    +0.045 A 
ATOM      7  C   UNL     1       0.039  -0.281   6.628  0.00  0.00    +0.041 A 
ATOM      8  S   UNL     1       1.158   1.076   6.880  0.00  0.00    -0.048 S 
ATOM      9  C   UNL     1       0.733   2.022   5.427  0.00  0.00    +0.195 A 
ATOM     10  N   UNL     1       1.221   3.166   5.023  0.00  0.00    -0.103 NA
ENDROOT
BRANCH  10  11
ATOM     11  S   UNL     1       2.397   3.924   5.909  0.00  0.00    +0.101 S 
ATOM     12  O   UNL     1       1.797   4.302   7.141  0.00  0.00    -0.146 OA
ATOM     13  O   UNL     1       3.550   3.097   5.845  0.00  0.00    -0.146 OA
BRANCH  11  14
ATOM     14  C   UNL     1       2.801   5.418   5.067  0.00  0.00    +0.113 A 
ATOM     15  C   UNL     1       3.806   5.426   4.118  0.00  0.00    +0.032 A 
ATOM     16  C   UNL     1       4.121   6.596   3.453  0.00  0.00    +0.040 A 
ATOM     17  C   UNL     1       3.436   7.763   3.745  0.00  0.00    +0.124 A 
ATOM     18  C   UNL     1       2.433   7.756   4.700  0.00  0.00    +0.040 A 
ATOM     19  C   UNL     1       2.117   6.583   5.360  0.00  0.00    +0.032 A 
ATOM     20  F   UNL     1       3.747   8.909   3.100  0.00  0.00    -0.205 F 
ENDBRANCH  11  14
ENDBRANCH  10  11
BRANCH   5  21
ATOM     21  S   UNL     1      -1.559  -3.793   7.732  0.00  0.00    +0.056 S 
ATOM     22  O   UNL     1      -2.103  -4.703   6.786  0.00  0.00    -0.153 OA
ATOM     23  O   UNL     1      -0.410  -4.098   8.510  0.00  0.00    -0.153 OA
BRANCH  21  24
ATOM     24  N   UNL     1      -2.774  -3.439   8.800  0.00  0.00    -0.204 NA
ATOM     25  H   UNL     1      -3.409  -4.126   9.058  0.00  0.00    +0.144 HD
ATOM     26  H   UNL     1      -2.851  -2.545   9.169  0.00  0.00    +0.144 HD
ENDBRANCH  21  24
ENDBRANCH   5  21
BRANCH   1  27
ATOM     27  C   UNL     1      -0.864   1.675   3.590  0.00  0.00    +0.152 C 
BRANCH  27  28
ATOM     28  C   UNL     1      -0.068   1.127   2.404  0.00  0.00    +0.181 C 
BRANCH  28  29
ATOM     29  O   UNL     1      -0.682   1.547   1.184  0.00  0.00    -0.378 OA
BRANCH  29  31
ATOM     30  C   UNL     1      -0.753   1.593  -1.232  0.00  0.00    +0.034 C 
ATOM     31  C   UNL     1      -0.013   1.086   0.008  0.00  0.00    +0.156 C 
ENDBRANCH  29  31
ENDBRANCH  28  29
ENDBRANCH  27  28
ENDBRANCH   1  27
TORSDOF 8
