REMARK  Name = ZINC39006823
REMARK  9 active torsions:
REMARK  status: ('A' for Active; 'I' for Inactive)
REMARK    1  A    between atoms: C_1  and  O_2
REMARK    2  A    between atoms: O_2  and  C_3
REMARK    3  A    between atoms: C_5  and  C_13
REMARK    4  A    between atoms: C_6  and  O_11
REMARK    5  A    between atoms: C_8  and  O_9
REMARK    6  A    between atoms: O_9  and  C_10
REMARK    7  A    between atoms: O_11  and  C_12
REMARK    8  A    between atoms: N_14  and  N_15
REMARK    9  A    between atoms: C_16  and  C_22
REMARK                            x       y       z     vdW  Elec       q    Type
REMARK                         _______ _______ _______ _____ _____    ______ ____
ROOT
ATOM      1  C   UNL     1      -4.874   0.228  -0.172  0.00  0.00    +0.142 C 
ATOM      2  N   UNL     1      -6.002  -0.380   0.046  0.00  0.00    -0.183 NA
ENDROOT
BRANCH   2   3
ATOM      3  N   UNL     1      -7.186   0.359   0.162  0.00  0.00    -0.172 N 
ATOM      4  C   UNL     1      -8.562  -0.155   0.297  0.00  0.00    +0.265 C 
ATOM      5  N   UNL     1      -9.386   1.061   0.378  0.00  0.00    -0.189 NA
ATOM      6  N   UNL     1      -8.636   2.038   0.305  0.00  0.00    -0.219 N 
ATOM      7  C   UNL     1      -7.323   1.703   0.181  0.00  0.00    +0.174 C 
ATOM      8  S   UNL     1      -6.033   2.823   0.063  0.00  0.00    -0.015 S 
ATOM      9  H   UNL     1      -8.951   2.955   0.336  0.00  0.00    +0.176 HD
BRANCH   4  10
ATOM     10  C   UNL     1      -8.941  -0.975  -0.910  0.00  0.00    +0.012 A 
ATOM     11  C   UNL     1      -7.959  -1.589  -1.664  0.00  0.00    +0.008 A 
ATOM     12  C   UNL     1      -8.306  -2.341  -2.771  0.00  0.00    +0.000 A 
ATOM     13  C   UNL     1      -9.636  -2.480  -3.123  0.00  0.00    +0.001 A 
ATOM     14  C   UNL     1     -10.618  -1.866  -2.369  0.00  0.00    +0.015 A 
ATOM     15  C   UNL     1     -10.271  -1.117  -1.259  0.00  0.00    +0.025 A 
ATOM     16 BR   UNL     1     -11.616  -0.284  -0.222  0.00  0.00    -0.050 Br
ENDBRANCH   4  10
ENDBRANCH   2   3
BRANCH   1  19
ATOM     17  C   UNL     1      -1.226  -0.608  -0.453  0.00  0.00    +0.162 A 
ATOM     18  C   UNL     1      -2.403   0.115  -0.431  0.00  0.00    +0.062 A 
ATOM     19  C   UNL     1      -3.617  -0.537  -0.197  0.00  0.00    +0.040 A 
ATOM     20  C   UNL     1      -3.633  -1.923   0.015  0.00  0.00    +0.132 A 
ATOM     21  C   UNL     1      -2.448  -2.638  -0.008  0.00  0.00    +0.095 A 
ATOM     22  C   UNL     1      -1.248  -1.986  -0.247  0.00  0.00    +0.165 A 
BRANCH  17  24
ATOM     23  C   UNL     1      -0.094   1.440  -0.883  0.00  0.00    +0.277 C 
ATOM     24  O   UNL     1      -0.044   0.026  -0.680  0.00  0.00    -0.491 OA
ENDBRANCH  17  24
BRANCH  22  25
ATOM     25  O   UNL     1      -0.087  -2.693  -0.275  0.00  0.00    -0.491 OA
ATOM     26  C   UNL     1      -0.181  -4.103  -0.057  0.00  0.00    +0.277 C 
ENDBRANCH  22  25
BRANCH  20  27
ATOM     27  O   UNL     1      -4.810  -2.563   0.244  0.00  0.00    -0.494 OA
ATOM     28  C   UNL     1      -4.750  -3.976   0.452  0.00  0.00    +0.277 C 
ENDBRANCH  20  27
ENDBRANCH   1  19
TORSDOF 6
