REMARK  Name = ZINC02728840
REMARK  12 active torsions:
REMARK  status: ('A' for Active; 'I' for Inactive)
REMARK    1  A    between atoms: C_1  and  C_2
REMARK    2  A    between atoms: C_4  and  C_30
REMARK    3  A    between atoms: N_5  and  C_7
REMARK    4  A    between atoms: C_7  and  C_8
REMARK    5  A    between atoms: C_12  and  C_14
REMARK    6  A    between atoms: N_16  and  C_17
REMARK    7  A    between atoms: N_20  and  C_29
REMARK    8  A    between atoms: C_21  and  C_22
REMARK    9  A    between atoms: N_24  and  C_25
REMARK   10  A    between atoms: C_25  and  C_26
REMARK   11  A    between atoms: C_26  and  C_27
REMARK   12  A    between atoms: C_26  and  C_28
REMARK                            x       y       z     vdW  Elec       q    Type
REMARK                         _______ _______ _______ _____ _____    ______ ____
ROOT
ATOM      1  C   UNL     1      -5.500   2.771  -0.112  0.00  0.00    +0.248 C 
ATOM      2  O   UNL     1      -6.290   1.847  -0.113  0.00  0.00    -0.270 OA
ATOM      3  N   UNL     1      -4.175   2.525  -0.075  0.00  0.00    -0.278 N 
ATOM      4  H   UNL     1      -3.545   3.263  -0.074  0.00  0.00    +0.155 HD
ENDROOT
BRANCH   1   9
ATOM      5  C   UNL     1      -7.816   5.724  -0.231  0.00  0.00    -0.025 A 
ATOM      6  C   UNL     1      -6.915   6.774  -0.230  0.00  0.00    +0.005 A 
ATOM      7  C   UNL     1      -5.554   6.525  -0.192  0.00  0.00    +0.001 A 
ATOM      8  C   UNL     1      -5.088   5.227  -0.148  0.00  0.00    +0.013 A 
ATOM      9  C   UNL     1      -5.992   4.164  -0.154  0.00  0.00    +0.037 A 
ATOM     10  C   UNL     1      -7.364   4.422  -0.193  0.00  0.00    +0.018 A 
BRANCH   5  11
ATOM     11  C   UNL     1      -9.296   6.005  -0.273  0.00  0.00    +0.179 C 
BRANCH  11  16
ATOM     12  C   UNL     1     -10.660   7.987   4.133  0.00  0.00    +0.069 C 
ATOM     13  C   UNL     1     -10.400   7.012   3.014  0.00  0.00    +0.078 A 
ATOM     14  C   UNL     1     -10.664   5.638   3.045  0.00  0.00    +0.084 A 
ATOM     15  C   UNL     1     -10.298   5.117   1.850  0.00  0.00    +0.055 A 
ATOM     16  N   UNL     1      -9.810   6.124   1.094  0.00  0.00    -0.263 N 
ATOM     17  N   UNL     1      -9.888   7.304   1.845  0.00  0.00    -0.174 NA
ATOM     18  C   UNL     1     -10.411   3.671   1.439  0.00  0.00    +0.067 C 
ATOM     19 CL   UNL     1     -11.346   4.759   4.377  0.00  0.00    -0.080 Cl
ENDBRANCH  11  16
ENDBRANCH   5  11
ENDBRANCH   1   9
BRANCH   3  20
ATOM     20  C   UNL     1      -3.711   1.210  -0.036  0.00  0.00    +0.084 A 
ATOM     21  C   UNL     1      -4.477   0.034  -0.032  0.00  0.00    +0.158 A 
ATOM     22  N   UNL     1      -3.655  -0.982   0.017  0.00  0.00    -0.177 NA
ATOM     23  N   UNL     1      -2.433  -0.589   0.040  0.00  0.00    -0.261 N 
ATOM     24  C   UNL     1      -2.387   0.781   0.006  0.00  0.00    +0.144 A 
ATOM     25  C   UNL     1      -1.265  -1.471   0.095  0.00  0.00    +0.173 C 
BRANCH  24  26
ATOM     26  C   UNL     1      -1.187   1.624   0.017  0.00  0.00    +0.264 C 
ATOM     27  O   UNL     1      -0.765   2.095  -1.022  0.00  0.00    -0.268 OA
ATOM     28  N   UNL     1      -0.552   1.876   1.178  0.00  0.00    -0.310 N 
ATOM     29  H   UNL     1      -0.927   1.560   2.015  0.00  0.00    +0.149 HD
BRANCH  28  30
ATOM     30  C   UNL     1       0.709   2.622   1.176  0.00  0.00    +0.107 C 
BRANCH  30  31
ATOM     31  C   UNL     1       1.220   2.763   2.611  0.00  0.00    -0.000 C 
ATOM     32  C   UNL     1       1.569   1.381   3.167  0.00  0.00    +0.009 C 
ATOM     33  C   UNL     1       2.469   3.647   2.623  0.00  0.00    +0.009 C 
ENDBRANCH  30  31
ENDBRANCH  28  30
ENDBRANCH  24  26
ENDBRANCH   3  20
TORSDOF 7
