REMARK  Name = ZINC38550664
REMARK  9 active torsions:
REMARK  status: ('A' for Active; 'I' for Inactive)
REMARK    1  A    between atoms: C_1  and  O_2
REMARK    2  A    between atoms: O_2  and  C_3
REMARK    3  A    between atoms: C_6  and  C_11
REMARK    4  A    between atoms: C_7  and  O_9
REMARK    5  A    between atoms: O_9  and  C_10
REMARK    6  A    between atoms: C_11  and  C_13
REMARK    7  A    between atoms: C_11  and  N_30
REMARK    8  A    between atoms: C_17  and  N_18
REMARK    9  A    between atoms: C_19  and  C_21
REMARK                            x       y       z     vdW  Elec       q    Type
REMARK                         _______ _______ _______ _____ _____    ______ ____
ROOT
ATOM      1  C   UNL     1       2.649  -2.444  -4.307  0.00  0.00    +0.138 C 
ENDROOT
BRANCH   1   2
ATOM      2  C   UNL     1       4.077  -2.818  -4.003  0.00  0.00    +0.009 A 
ATOM      3  C   UNL     1       4.445  -4.161  -3.921  0.00  0.00    -0.030 A 
ATOM      4  C   UNL     1       5.751  -4.419  -3.644  0.00  0.00    -0.005 A 
ATOM      5  S   UNL     1       6.481  -2.810  -3.495  0.00  0.00    -0.078 S 
ATOM      6  C   UNL     1       5.010  -1.848  -3.814  0.00  0.00    +0.078 A 
ATOM      7  C   UNL     1       6.405  -5.755  -3.500  0.00  0.00    +0.043 C 
ATOM      8  C   UNL     1       5.306  -6.817  -3.349  0.00  0.00    +0.005 C 
ATOM      9  C   UNL     1       4.247  -6.585  -4.431  0.00  0.00    +0.005 C 
ATOM     10  C   UNL     1       3.461  -5.309  -4.127  0.00  0.00    +0.036 C 
BRANCH   6  11
ATOM     11  N   UNL     1       4.858  -0.460  -3.856  0.00  0.00    -0.273 N 
ATOM     12  C   UNL     1       5.891   0.341  -3.528  0.00  0.00    +0.284 C 
ATOM     13  O   UNL     1       6.981  -0.141  -3.283  0.00  0.00    -0.266 OA
ATOM     14  H   UNL     1       4.010  -0.073  -4.122  0.00  0.00    +0.156 HD
BRANCH  12  15
ATOM     15  C   UNL     1       5.701   1.794  -3.465  0.00  0.00    +0.189 A 
ATOM     16  C   UNL     1       6.677   2.722  -3.242  0.00  0.00    +0.054 A 
ATOM     17  C   UNL     1       6.052   3.978  -3.266  0.00  0.00    +0.042 A 
ATOM     18  C   UNL     1       4.739   3.765  -3.499  0.00  0.00    +0.196 A 
ATOM     19  O   UNL     1       4.532   2.448  -3.624  0.00  0.00    -0.458 OA
ENDBRANCH  12  15
ENDBRANCH   6  11
ENDBRANCH   1   2
BRANCH   1  20
ATOM     20  N   UNL     1       2.624  -1.432  -5.366  0.00  0.00    -0.319 N 
ATOM     21  C   UNL     1       1.469  -1.238  -6.115  0.00  0.00    +0.097 A 
ATOM     22  C   UNL     1       0.307  -1.928  -5.782  0.00  0.00    +0.041 A 
ATOM     23  C   UNL     1      -0.835  -1.726  -6.535  0.00  0.00    +0.005 A 
ATOM     24  C   UNL     1      -0.777  -0.837  -7.601  0.00  0.00    +0.018 A 
ATOM     25  C   UNL     1       0.409  -0.186  -7.875  0.00  0.00    +0.084 A 
ATOM     26  N   UNL     1       1.482  -0.395  -7.135  0.00  0.00    -0.350 N 
ATOM     27  H   UNL     1       3.413  -0.897  -5.545  0.00  0.00    +0.148 HD
ATOM     28  H   UNL     1       2.302   0.079  -7.347  0.00  0.00    +0.166 HD
ENDBRANCH   1  20
BRANCH   1  32
ATOM     29  C   UNL     1       0.809  -0.863  -0.784  0.00  0.00    +0.124 A 
ATOM     30  C   UNL     1       1.349  -0.007  -1.733  0.00  0.00    +0.046 A 
ATOM     31  C   UNL     1       1.943  -0.520  -2.870  0.00  0.00    +0.013 A 
ATOM     32  C   UNL     1       2.001  -1.887  -3.065  0.00  0.00    +0.019 A 
ATOM     33  C   UNL     1       1.462  -2.747  -2.119  0.00  0.00    +0.129 A 
ATOM     34  C   UNL     1       0.870  -2.235  -0.975  0.00  0.00    +0.091 A 
BRANCH  29  36
ATOM     35  C   UNL     1       0.196   1.065   0.465  0.00  0.00    +0.277 C 
ATOM     36  O   UNL     1       0.224  -0.358   0.334  0.00  0.00    -0.495 OA
ENDBRANCH  29  36
BRANCH  33  37
ATOM     37  O   UNL     1       1.518  -4.091  -2.312  0.00  0.00    -0.495 OA
ATOM     38  C   UNL     1       0.943  -4.917  -1.297  0.00  0.00    +0.277 C 
ENDBRANCH  33  37
ENDBRANCH   1  32
TORSDOF 7
