REMARK  Name = ZINC09503187
REMARK  6 active torsions:
REMARK  status: ('A' for Active; 'I' for Inactive)
REMARK    1  A    between atoms: C_4  and  C_7
REMARK    2  A    between atoms: C_7  and  C_30
REMARK    3  A    between atoms: N_10  and  C_14
REMARK    4  A    between atoms: C_14  and  C_15
REMARK    5  A    between atoms: C_22  and  C_23
REMARK    6  A    between atoms: C_22  and  N_67
REMARK                            x       y       z     vdW  Elec       q    Type
REMARK                         _______ _______ _______ _____ _____    ______ ____
ROOT
ATOM      1  C   UNL     1      -4.357  -1.284  -2.614  0.00  0.00    +0.164 C 
ATOM      2  C   UNL     1      -3.669  -0.598  -1.451  0.00  0.00    +0.256 C 
ATOM      3  O   UNL     1      -4.197  -0.071  -0.495  0.00  0.00    -0.272 OA
ATOM      4  N   UNL     1      -2.348  -0.695  -1.700  0.00  0.00    -0.215 N 
ATOM      5  C   UNL     1      -2.108  -1.346  -2.844  0.00  0.00    +0.310 C 
ATOM      6  O   UNL     1      -0.993  -1.562  -3.278  0.00  0.00    -0.252 OA
ATOM      7  N   UNL     1      -3.239  -1.736  -3.460  0.00  0.00    -0.278 N 
ATOM      8  H   UNL     1      -3.305  -2.221  -4.297  0.00  0.00    +0.152 HD
ENDROOT
BRANCH   1  12
ATOM      9  C   UNL     1      -6.834   1.469  -4.744  0.00  0.00    +0.000 A 
ATOM     10  C   UNL     1      -6.819   1.479  -3.362  0.00  0.00    +0.000 A 
ATOM     11  C   UNL     1      -6.018   0.588  -2.673  0.00  0.00    +0.006 A 
ATOM     12  C   UNL     1      -5.231  -0.313  -3.366  0.00  0.00    -0.011 A 
ATOM     13  C   UNL     1      -5.241  -0.319  -4.748  0.00  0.00    +0.006 A 
ATOM     14  C   UNL     1      -6.046   0.568  -5.437  0.00  0.00    +0.000 A 
ENDBRANCH   1  12
BRANCH   1  15
ATOM     15  C   UNL     1      -5.167  -2.460  -2.132  0.00  0.00    -0.011 A 
ATOM     16  C   UNL     1      -6.428  -2.260  -1.603  0.00  0.00    +0.006 A 
ATOM     17  C   UNL     1      -7.172  -3.339  -1.164  0.00  0.00    +0.000 A 
ATOM     18  C   UNL     1      -6.652  -4.617  -1.247  0.00  0.00    +0.000 A 
ATOM     19  C   UNL     1      -5.388  -4.816  -1.772  0.00  0.00    +0.000 A 
ATOM     20  C   UNL     1      -4.646  -3.738  -2.214  0.00  0.00    +0.006 A 
ENDBRANCH   1  15
BRANCH   4  21
ATOM     21  C   UNL     1      -1.303  -0.159  -0.824  0.00  0.00    +0.213 C 
BRANCH  21  22
ATOM     22  C   UNL     1      -0.983   1.256  -1.231  0.00  0.00    +0.233 C 
ATOM     23  O   UNL     1      -1.569   1.766  -2.162  0.00  0.00    -0.274 OA
ATOM     24  N   UNL     1      -0.045   1.954  -0.562  0.00  0.00    -0.304 N 
ATOM     25  C   UNL     1       0.283   3.336  -0.943  0.00  0.00    +0.089 C 
ATOM     26  C   UNL     1       1.803   3.447  -1.110  0.00  0.00    -0.059 C 
ATOM     27  C   UNL     1       2.181   1.544   0.344  0.00  0.00    -0.059 C 
ATOM     28  C   UNL     1       0.678   1.355   0.571  0.00  0.00    +0.089 C 
ATOM     29  N   UNL     1       2.453   2.983   0.134  0.00  0.00    +0.387 N 
ATOM     30  H   UNL     1       2.071   3.512   0.927  0.00  0.00    -0.081 HD
BRANCH  29  31
ATOM     31  C   UNL     1       3.910   3.215   0.059  0.00  0.00    +0.019 C 
BRANCH  31  32
ATOM     32  C   UNL     1       4.500   2.506  -1.133  0.00  0.00    +0.199 C 
ATOM     33  O   UNL     1       3.808   1.769  -1.803  0.00  0.00    -0.278 OA
ATOM     34  N   UNL     1       5.795   2.691  -1.454  0.00  0.00    -0.303 N 
ATOM     35  C   UNL     1       6.741   3.558  -0.735  0.00  0.00    +0.108 C 
ATOM     36  C   UNL     1       8.093   3.473  -1.474  0.00  0.00    +0.020 C 
ATOM     37  C   UNL     1       7.680   3.015  -2.898  0.00  0.00    +0.020 C 
ATOM     38  C   UNL     1       6.498   2.063  -2.588  0.00  0.00    +0.108 C 
ENDBRANCH  31  32
ENDBRANCH  29  31
ENDBRANCH  21  22
ENDBRANCH   4  21
TORSDOF 6
