REMARK  Name = ZINC39840665
REMARK  11 active torsions:
REMARK  status: ('A' for Active; 'I' for Inactive)
REMARK    1  A    between atoms: C_1  and  C_2
REMARK    2  A    between atoms: C_2  and  O_3
REMARK    3  A    between atoms: O_3  and  C_4
REMARK    4  A    between atoms: C_7  and  C_13
REMARK    5  A    between atoms: C_9  and  O_10
REMARK    6  A    between atoms: O_10  and  C_11
REMARK    7  A    between atoms: C_11  and  C_12
REMARK    8  A    between atoms: C_32  and  C_34
REMARK    9  A    between atoms: C_34  and  C_35
REMARK   10  A    between atoms: C_35  and  C_36
REMARK   11  A    between atoms: C_35  and  C_37
REMARK                            x       y       z     vdW  Elec       q    Type
REMARK                         _______ _______ _______ _____ _____    ______ ____
ROOT
ATOM      1  C   UNL     1       1.107  -6.044  -1.844  0.00  0.00    +0.152 C 
ATOM      2  C   UNL     1      -0.180  -6.604  -2.355  0.00  0.00    +0.072 A 
ATOM      3  C   UNL     1      -0.928  -6.337  -3.587  0.00  0.00    +0.199 A 
ATOM      4  O   UNL     1      -0.478  -5.684  -4.512  0.00  0.00    -0.287 OA
ATOM      5  C   UNL     1      -2.286  -6.937  -3.600  0.00  0.00    +0.067 A 
ATOM      6  C   UNL     1      -3.192  -6.610  -4.609  0.00  0.00    +0.053 A 
ATOM      7  C   UNL     1      -4.450  -7.174  -4.603  0.00  0.00    +0.124 A 
ATOM      8  C   UNL     1      -4.810  -8.062  -3.596  0.00  0.00    +0.042 A 
ATOM      9  C   UNL     1      -3.923  -8.392  -2.597  0.00  0.00    +0.050 A 
ATOM     10  C   UNL     1      -2.643  -7.837  -2.583  0.00  0.00    +0.140 A 
ATOM     11  O   UNL     1      -1.788  -8.188  -1.595  0.00  0.00    -0.450 OA
ATOM     12  C   UNL     1      -0.641  -7.498  -1.430  0.00  0.00    +0.199 A 
ATOM     13  C   UNL     1       0.313  -7.539  -0.310  0.00  0.00    +0.289 C 
ATOM     14  O   UNL     1       0.195  -8.233   0.680  0.00  0.00    -0.266 OA
ATOM     15  N   UNL     1       1.340  -6.694  -0.543  0.00  0.00    -0.230 N 
ATOM     16  C   UNL     1       2.425  -6.474   0.296  0.00  0.00    +0.191 A 
ATOM     17  N   UNL     1       3.466  -5.666   0.150  0.00  0.00    -0.125 NA
ATOM     18  N   UNL     1       4.374  -5.588   1.022  0.00  0.00    -0.145 NA
ATOM     19  C   UNL     1       4.348  -6.303   2.130  0.00  0.00    +0.104 A 
ATOM     20  S   UNL     1       2.815  -7.196   1.887  0.00  0.00    -0.035 S 
ATOM     21  F   UNL     1      -5.334  -6.862  -5.576  0.00  0.00    -0.205 F 
ENDROOT
BRANCH   1  25
ATOM     22  C   UNL     1       0.777  -1.811  -1.336  0.00  0.00    +0.162 A 
ATOM     23  C   UNL     1       0.243  -2.669  -0.388  0.00  0.00    +0.050 A 
ATOM     24  C   UNL     1       0.352  -4.037  -0.555  0.00  0.00    +0.009 A 
ATOM     25  C   UNL     1       0.992  -4.552  -1.667  0.00  0.00    -0.018 A 
ATOM     26  C   UNL     1       1.526  -3.702  -2.616  0.00  0.00    +0.055 A 
ATOM     27  C   UNL     1       1.416  -2.330  -2.458  0.00  0.00    +0.162 A 
BRANCH  22  28
ATOM     28  O   UNL     1       0.671  -0.465  -1.174  0.00  0.00    -0.489 OA
BRANCH  28  30
ATOM     29  C   UNL     1      -0.019   1.526   0.010  0.00  0.00    +0.048 C 
ATOM     30  C   UNL     1       0.002  -0.004   0.002  0.00  0.00    +0.226 C 
ENDBRANCH  28  30
ENDBRANCH  22  28
BRANCH  27  31
ATOM     31  O   UNL     1       1.936  -1.492  -3.394  0.00  0.00    -0.489 OA
BRANCH  31  32
ATOM     32  C   UNL     1       2.578  -2.095  -4.520  0.00  0.00    +0.226 C 
ATOM     33  C   UNL     1       3.096  -1.002  -5.457  0.00  0.00    +0.048 C 
ENDBRANCH  31  32
ENDBRANCH  27  31
ENDBRANCH   1  25
BRANCH  19  34
ATOM     34  C   UNL     1       5.325  -6.350   3.275  0.00  0.00    +0.068 C 
BRANCH  34  35
ATOM     35  C   UNL     1       4.929  -5.311   4.327  0.00  0.00    -0.011 C 
ATOM     36  C   UNL     1       3.576  -5.690   4.933  0.00  0.00    +0.007 C 
ATOM     37  C   UNL     1       5.989  -5.272   5.429  0.00  0.00    +0.007 C 
ENDBRANCH  34  35
ENDBRANCH  19  34
TORSDOF 7
