REMARK  Name = ZINC53168439
REMARK  3 active torsions:
REMARK  status: ('A' for Active; 'I' for Inactive)
REMARK    1  A    between atoms: C_5  and  S_8
REMARK    2  A    between atoms: C_6  and  N_7
REMARK    3  A    between atoms: S_8  and  C_9
REMARK                            x       y       z     vdW  Elec       q    Type
REMARK                         _______ _______ _______ _____ _____    ______ ____
ROOT
ATOM      1  C   UNL     1      -0.017   1.382   0.010  0.00  0.00    +0.027 A 
ATOM      2  C   UNL     1       1.171   2.091   0.002  0.00  0.00    +0.043 A 
ATOM      3  C   UNL     1       2.382   1.421  -0.013  0.00  0.00    +0.160 A 
ATOM      4  C   UNL     1       2.410   0.035  -0.021  0.00  0.00    +0.174 A 
ATOM      5  C   UNL     1       1.221  -0.682  -0.013  0.00  0.00    +0.074 A 
ATOM      6  C   UNL     1       0.002  -0.004   0.002  0.00  0.00    +0.042 A 
ATOM      7  F   UNL     1       3.592  -0.617  -0.036  0.00  0.00    -0.201 F 
ATOM      8  F   UNL     1       3.539   2.118  -0.021  0.00  0.00    -0.202 F 
ENDROOT
BRANCH   6   9
ATOM      9  N   UNL     1      -1.201  -0.722   0.010  0.00  0.00    -0.357 N 
ATOM     10  H   UNL     1      -2.048  -0.250   0.021  0.00  0.00    +0.142 HD
ATOM     11  H   UNL     1      -1.187  -1.692   0.005  0.00  0.00    +0.142 HD
ENDBRANCH   6   9
BRANCH   5  12
ATOM     12  S   UNL     1       1.251  -2.444  -0.024  0.00  0.00    -0.045 S 
BRANCH  12  13
ATOM     13  C   UNL     1       1.275  -2.880   1.683  0.00  0.00    +0.196 A 
ATOM     14  N   UNL     1       1.265  -2.051   2.704  0.00  0.00    -0.122 NA
ATOM     15  N   UNL     1       1.282  -2.715   3.807  0.00  0.00    -0.134 NA
ATOM     16  C   UNL     1       1.300  -3.990   3.557  0.00  0.00    +0.134 A 
ATOM     17  N   UNL     1       1.302  -4.139   2.199  0.00  0.00    -0.306 N 
ATOM     18  C   UNL     1       1.344  -5.402   1.462  0.00  0.00    +0.125 C 
ATOM     19  C   UNL     1       0.698  -6.503   2.307  0.00  0.00    +0.022 C 
ATOM     20  C   UNL     1       1.755  -7.161   3.192  0.00  0.00    +0.002 C 
ATOM     21  C   UNL     1       2.362  -6.143   4.153  0.00  0.00    +0.008 C 
ATOM     22  C   UNL     1       1.306  -5.118   4.557  0.00  0.00    +0.076 C 
ENDBRANCH  12  13
ENDBRANCH   5  12
TORSDOF 3
