REMARK  Name = ZINC31891551
REMARK  7 active torsions:
REMARK  status: ('A' for Active; 'I' for Inactive)
REMARK    1  A    between atoms: C_1  and  C_2
REMARK    2  A    between atoms: C_9  and  N_14
REMARK    3  A    between atoms: C_15  and  C_17
REMARK    4  A    between atoms: C_20  and  N_23
REMARK    5  A    between atoms: C_24  and  C_26
REMARK    6  A    between atoms: C_26  and  C_27
REMARK    7  A    between atoms: C_26  and  C_28
REMARK                            x       y       z     vdW  Elec       q    Type
REMARK                         _______ _______ _______ _____ _____    ______ ____
ROOT
ATOM      1  N   UNL     1      -4.791   1.674   6.045  0.00  0.00    -0.281 N 
ATOM      2  C   UNL     1      -6.132   1.813   6.059  0.00  0.00    +0.248 C 
ATOM      3  O   UNL     1      -6.760   1.754   5.020  0.00  0.00    -0.270 OA
ATOM      4  H   UNL     1      -4.231   1.644   6.991  0.00  0.00    +0.155 HD
ENDROOT
BRANCH   1  12
ATOM      5  C   UNL     1      -2.009   1.522  -1.174  0.00  0.00    +0.062 C 
ATOM      6  C   UNL     1      -2.909   1.308   0.045  0.00  0.00    +0.256 C 
ATOM      7  C   UNL     1      -3.890   2.447   0.151  0.00  0.00    +0.258 C 
ATOM      8  O   UNL     1      -4.250   3.036  -0.846  0.00  0.00    -0.271 OA
ATOM      9  N   UNL     1      -4.367   2.809   1.362  0.00  0.00    -0.279 N 
ATOM     10  C   UNL     1      -3.908   2.136   2.503  0.00  0.00    +0.077 A 
ATOM     11  C   UNL     1      -4.583   2.243   3.707  0.00  0.00    +0.050 A 
ATOM     12  C   UNL     1      -4.111   1.568   4.825  0.00  0.00    +0.036 A 
ATOM     13  C   UNL     1      -2.965   0.789   4.735  0.00  0.00    +0.027 A 
ATOM     14  C   UNL     1      -2.291   0.682   3.533  0.00  0.00    +0.049 A 
ATOM     15  C   UNL     1      -2.758   1.352   2.416  0.00  0.00    +0.143 A 
ATOM     16  O   UNL     1      -2.104   1.254   1.226  0.00  0.00    -0.478 OA
ATOM     17  H   UNL     1      -5.104   3.622   1.442  0.00  0.00    +0.155 HD
ENDBRANCH   1  12
BRANCH   2  18
ATOM     18  C   UNL     1      -6.836   2.039   7.336  0.00  0.00    +0.037 A 
ATOM     19  C   UNL     1      -6.116   2.102   8.532  0.00  0.00    +0.015 A 
ATOM     20  C   UNL     1      -6.776   2.317   9.720  0.00  0.00    +0.024 A 
ATOM     21  C   UNL     1      -8.160   2.460   9.734  0.00  0.00    +0.033 A 
ATOM     22  C   UNL     1      -8.881   2.393   8.546  0.00  0.00    +0.024 A 
ATOM     23  C   UNL     1      -8.226   2.183   7.353  0.00  0.00    +0.015 A 
BRANCH  21  24
ATOM     24  N   UNL     1      -8.826   2.672  10.940  0.00  0.00    -0.285 N 
ATOM     25  C   UNL     1      -9.933   3.440  10.973  0.00  0.00    +0.220 C 
ATOM     26  O   UNL     1     -10.296   4.023   9.974  0.00  0.00    -0.275 OA
ATOM     27  H   UNL     1      -8.448   2.211  11.865  0.00  0.00    +0.155 HD
BRANCH  25  28
ATOM     28  C   UNL     1     -10.718   3.576  12.252  0.00  0.00    +0.069 C 
ATOM     29  C   UNL     1     -11.917   4.497  12.019  0.00  0.00    +0.017 C 
ATOM     30  C   UNL     1     -11.212   2.197  12.696  0.00  0.00    +0.017 C 
ENDBRANCH  25  28
ENDBRANCH  21  24
ENDBRANCH   2  18
TORSDOF 4
