REMARK  Name = ZINC09431570
REMARK  8 active torsions:
REMARK  status: ('A' for Active; 'I' for Inactive)
REMARK    1  A    between atoms: C_1  and  C_2
REMARK    2  A    between atoms: C_5  and  C_9
REMARK    3  A    between atoms: N_11  and  CA_12
REMARK    4  A    between atoms: CA_19  and  C_28
REMARK    5  A    between atoms: C_20  and  C_23
REMARK    6  A    between atoms: C_23  and  O_24
REMARK    7  A    between atoms: O_24  and  C_25
REMARK    8  A    between atoms: C_25  and  C_27
REMARK                            x       y       z     vdW  Elec       q    Type
REMARK                         _______ _______ _______ _____ _____    ______ ____
ROOT
ATOM      1  CA  UNL     1      -3.686   2.960  -3.797  0.00  0.00    +0.191 C 
ATOM      2  C   UNL     1      -2.201   2.948  -3.450  0.00  0.00    +0.169 C 
ATOM      3  N   UNL     1      -2.653   2.718  -2.041  0.00  0.00    -0.249 N 
ATOM      4  C   UNL     1      -3.949   2.961  -2.301  0.00  0.00    +0.244 C 
ATOM      5  O   UNL     1      -4.936   3.119  -1.614  0.00  0.00    -0.273 OA
ATOM      6  CA  UNL     1      -1.870   2.231  -0.981  0.00  0.00    +0.130 C 
ATOM      7  C   UNL     1      -0.748   1.572  -1.228  0.00  0.00    +0.006 C 
ATOM      8  C   UNL     1      -0.117   1.275  -2.549  0.00  0.00    +0.107 C 
ATOM      9  S   UNL     1      -1.301   1.433  -3.922  0.00  0.00    -0.131 S 
ENDROOT
BRANCH   1  12
ATOM     10  C   UNL     1      -5.228   1.780  -5.270  0.00  0.00    +0.245 C 
ATOM     11  O   UNL     1      -5.830   2.824  -5.428  0.00  0.00    -0.270 OA
ATOM     12  N   UNL     1      -4.141   1.742  -4.473  0.00  0.00    -0.298 N 
ATOM     13  H   UNL     1      -3.661   0.909  -4.347  0.00  0.00    +0.150 HD
BRANCH  10  18
ATOM     14  C   UNL     1      -7.015  -3.004  -7.924  0.00  0.00    +0.045 C 
ATOM     15  C   UNL     1      -6.547  -1.751  -7.229  0.00  0.00    -0.036 A 
ATOM     16  C   UNL     1      -5.432  -1.792  -6.412  0.00  0.00    +0.005 A 
ATOM     17  C   UNL     1      -4.995  -0.648  -5.777  0.00  0.00    +0.013 A 
ATOM     18  C   UNL     1      -5.687   0.551  -5.952  0.00  0.00    +0.038 A 
ATOM     19  C   UNL     1      -6.812   0.587  -6.778  0.00  0.00    +0.028 A 
ATOM     20  C   UNL     1      -7.235  -0.564  -7.412  0.00  0.00    +0.021 A 
ATOM     21 BR   UNL     1      -8.759  -0.518  -8.531  0.00  0.00    -0.050 Br
ENDBRANCH  10  18
ENDBRANCH   1  12
BRANCH   6  22
ATOM     22  C   UNL     1      -2.296   2.460   0.411  0.00  0.00    +0.401 C 
ATOM     23  O   UNL     1      -3.375   2.969   0.641  0.00  0.00    -0.239 OA
ATOM     24  OXT UNL     1      -1.489   2.103   1.430  0.00  0.00    -0.239 OA
ENDBRANCH   6  22
BRANCH   7  25
ATOM     25  C   UNL     1      -0.016   1.048  -0.019  0.00  0.00    +0.266 C 
BRANCH  25  26
ATOM     26  O   UNL     1       1.120   0.253  -0.449  0.00  0.00    -0.460 OA
BRANCH  26  27
ATOM     27  C   UNL     1       1.822  -0.374   0.509  0.00  0.00    +0.304 C 
ATOM     28  O   UNL     1       1.445  -0.338   1.656  0.00  0.00    -0.251 OA
ATOM     29  C   UNL     1       3.079  -1.124   0.152  0.00  0.00    +0.136 C 
ENDBRANCH  26  27
ENDBRANCH  25  26
ENDBRANCH   7  25
TORSDOF 6
