REMARK  Name = ZINC12461638
REMARK  9 active torsions:
REMARK  status: ('A' for Active; 'I' for Inactive)
REMARK    1  A    between atoms: C_1  and  C_2
REMARK    2  A    between atoms: C_3  and  N_15
REMARK    3  A    between atoms: N_6  and  C_9
REMARK    4  A    between atoms: N_7  and  C_8
REMARK    5  A    between atoms: C_16  and  C_18
REMARK    6  A    between atoms: C_18  and  C_20
REMARK    7  A    between atoms: C_18  and  O_21
REMARK    8  A    between atoms: O_21  and  C_22
REMARK    9  A    between atoms: C_22  and  C_24
REMARK                            x       y       z     vdW  Elec       q    Type
REMARK                         _______ _______ _______ _____ _____    ______ ____
ROOT
ATOM      1  C   UNL     1       6.482   2.549   0.854  0.00  0.00    +0.259 C 
ATOM      2  C   UNL     1       7.762   3.385   0.928  0.00  0.00    +0.062 C 
ENDROOT
BRANCH   1   4
ATOM      3  N   UNL     1       7.389   0.716   2.246  0.00  0.00    -0.277 N 
ATOM      4  C   UNL     1       6.416   1.626   2.044  0.00  0.00    +0.258 C 
ATOM      5  O   UNL     1       5.487   1.703   2.820  0.00  0.00    -0.271 OA
ATOM      6  H   UNL     1       8.093   0.604   1.588  0.00  0.00    +0.155 HD
BRANCH   3   9
ATOM      7  C   UNL     1       7.363  -2.352   2.280  0.00  0.00    +0.067 C 
ATOM      8  C   UNL     1       7.372  -1.424   3.468  0.00  0.00    +0.059 A 
ATOM      9  C   UNL     1       7.384  -0.073   3.413  0.00  0.00    +0.121 A 
ATOM     10  C   UNL     1       7.397   0.416   4.792  0.00  0.00    +0.293 A 
ATOM     11  O   UNL     1       7.413   1.581   5.148  0.00  0.00    -0.264 OA
ATOM     12  N   UNL     1       7.383  -0.669   5.594  0.00  0.00    -0.216 N 
ATOM     13  N   UNL     1       7.372  -1.809   4.783  0.00  0.00    -0.282 N 
ATOM     14  C   UNL     1       7.360  -3.193   5.263  0.00  0.00    +0.171 C 
BRANCH  12  15
ATOM     15  C   UNL     1       7.386  -0.656   6.993  0.00  0.00    +0.067 A 
ATOM     16  C   UNL     1       6.484  -1.443   7.698  0.00  0.00    +0.028 A 
ATOM     17  C   UNL     1       6.494  -1.433   9.079  0.00  0.00    +0.002 A 
ATOM     18  C   UNL     1       7.392  -0.632   9.759  0.00  0.00    +0.000 A 
ATOM     19  C   UNL     1       8.287   0.157   9.061  0.00  0.00    +0.002 A 
ATOM     20  C   UNL     1       8.287   0.147   7.680  0.00  0.00    +0.028 A 
ENDBRANCH  12  15
ENDBRANCH   3   9
ENDBRANCH   1   4
BRANCH   1  21
ATOM     21  O   UNL     1       5.328   3.429   0.859  0.00  0.00    -0.449 OA
BRANCH  21  22
ATOM     22  C   UNL     1       4.876   3.853  -0.337  0.00  0.00    +0.341 C 
ATOM     23  O   UNL     1       5.432   3.496  -1.357  0.00  0.00    -0.245 OA
BRANCH  22  24
ATOM     24  C   UNL     1       3.705   4.751  -0.409  0.00  0.00    +0.073 A 
ATOM     25  C   UNL     1       2.394   4.227  -0.508  0.00  0.00    +0.015 A 
ATOM     26  C   UNL     1       2.152   2.847  -0.530  0.00  0.00    +0.011 A 
ATOM     27  C   UNL     1       0.874   2.388  -0.639  0.00  0.00    +0.001 A 
ATOM     28  C   UNL     1      -0.197   3.275  -0.735  0.00  0.00    +0.002 A 
ATOM     29  C   UNL     1       0.001   4.621  -0.708  0.00  0.00    +0.028 A 
ATOM     30  C   UNL     1       1.307   5.132  -0.593  0.00  0.00    +0.072 A 
ATOM     31  N   UNL     1       1.535   6.443  -0.562  0.00  0.00    -0.251 NA
ATOM     32  C   UNL     1       2.747   6.955  -0.449  0.00  0.00    +0.046 A 
ATOM     33  C   UNL     1       3.864   6.138  -0.381  0.00  0.00    -0.012 A 
ATOM     34  C   UNL     1       5.276   6.662  -0.301  0.00  0.00    +0.038 C 
ATOM     35  C   UNL     1       5.331   8.016   0.406  0.00  0.00    +0.005 C 
ATOM     36  C   UNL     1       5.210   9.116  -0.650  0.00  0.00    +0.001 C 
ATOM     37  C   UNL     1       3.876   8.988  -1.379  0.00  0.00    +0.006 C 
ATOM     38  C   UNL     1       2.843   8.458  -0.381  0.00  0.00    +0.056 C 
ENDBRANCH  22  24
ENDBRANCH  21  22
ENDBRANCH   1  21
TORSDOF 6
