REMARK  Name = ZINC62200903
REMARK  6 active torsions:
REMARK  status: ('A' for Active; 'I' for Inactive)
REMARK    1  A    between atoms: C_1  and  C_2
REMARK    2  A    between atoms: C_2  and  C_4
REMARK    3  A    between atoms: C_2  and  N_18
REMARK    4  A    between atoms: C_4  and  C_5
REMARK    5  A    between atoms: C_14  and  C_15
REMARK    6  A    between atoms: C_14  and  C_16
REMARK                            x       y       z     vdW  Elec       q    Type
REMARK                         _______ _______ _______ _____ _____    ______ ____
ROOT
ATOM      1  C   UNL     1       0.632  -2.000  -1.327  0.00  0.00    -0.025 A 
ATOM      2  C   UNL     1       1.661  -2.773  -0.831  0.00  0.00    +0.043 A 
ATOM      3  C   UNL     1       1.591  -4.154  -0.891  0.00  0.00    +0.124 A 
ATOM      4  C   UNL     1       0.480  -4.763  -1.454  0.00  0.00    +0.044 A 
ATOM      5  C   UNL     1      -0.547  -3.993  -1.950  0.00  0.00    -0.009 A 
ATOM      6  C   UNL     1      -0.490  -2.606  -1.889  0.00  0.00    +0.041 A 
ATOM      7  N   UNL     1      -1.645  -2.051  -2.445  0.00  0.00    -0.284 N 
ATOM      8  C   UNL     1      -2.500  -2.990  -2.883  0.00  0.00    +0.227 C 
ATOM      9  O   UNL     1      -3.576  -2.796  -3.408  0.00  0.00    -0.275 OA
ATOM     10  C   UNL     1      -1.863  -4.336  -2.610  0.00  0.00    +0.068 C 
ATOM     11  C   UNL     1      -1.625  -5.106  -3.910  0.00  0.00    +0.025 C 
ATOM     12  C   UNL     1      -2.744  -5.148  -1.658  0.00  0.00    +0.025 C 
ATOM     13  F   UNL     1       2.602  -4.907  -0.404  0.00  0.00    -0.205 F 
ATOM     14  H   UNL     1      -1.810  -1.097  -2.508  0.00  0.00    +0.155 HD
ENDROOT
BRANCH   1  15
ATOM     15  C   UNL     1       0.718  -0.497  -1.257  0.00  0.00    +0.020 C 
BRANCH  15  17
ATOM     16  C   UNL     1      -0.019   1.526   0.010  0.00  0.00    -0.014 C 
ATOM     17  C   UNL     1       0.002  -0.004   0.002  0.00  0.00    -0.074 C 
BRANCH  17  18
ATOM     18  N   UNL     1       0.713  -0.491   1.192  0.00  0.00    +0.380 N 
ATOM     19  H   UNL     1       0.240  -0.165   2.022  0.00  0.00    -0.090 HD
ATOM     20  H   UNL     1       0.726  -1.500   1.187  0.00  0.00    -0.090 HD
ATOM     21  H   UNL     1       1.659  -0.141   1.185  0.00  0.00    -0.090 HD
ENDBRANCH  17  18
ENDBRANCH  15  17
ENDBRANCH   1  15
TORSDOF 3
