REMARK  Name = ZINC07968047
REMARK  4 active torsions:
REMARK  status: ('A' for Active; 'I' for Inactive)
REMARK    1  A    between atoms: C_3  and  C_6
REMARK    2  A    between atoms: N_13  and  N_16
REMARK    3  A    between atoms: C_17  and  C_19
REMARK    4  A    between atoms: C_22  and  N_25
REMARK                            x       y       z     vdW  Elec       q    Type
REMARK                         _______ _______ _______ _____ _____    ______ ____
ROOT
ATOM      1  C   UNL     1      -4.873   6.133   2.259  0.00  0.00    +0.010 A 
ATOM      2  C   UNL     1      -6.167   6.757   1.928  0.00  0.00    +0.057 A 
ATOM      3  S   UNL     1      -6.388   6.373   0.256  0.00  0.00    -0.076 S 
ATOM      4  C   UNL     1      -4.907   5.449  -0.055  0.00  0.00    +0.116 A 
ATOM      5  C   UNL     1      -4.214   5.434   1.171  0.00  0.00    +0.082 A 
ATOM      6  C   UNL     1      -2.963   4.734   1.175  0.00  0.00    +0.280 A 
ATOM      7  O   UNL     1      -2.293   4.667   2.190  0.00  0.00    -0.265 OA
ATOM      8  N   UNL     1      -2.541   4.151   0.037  0.00  0.00    -0.212 N 
ATOM      9  C   UNL     1      -3.267   4.221  -1.092  0.00  0.00    +0.223 A 
ATOM     10  N   UNL     1      -4.420   4.850  -1.128  0.00  0.00    -0.228 NA
ENDROOT
BRANCH   1  13
ATOM     11  C   UNL     1      -3.547   7.155   5.583  0.00  0.00    +0.008 A 
ATOM     12  C   UNL     1      -4.106   7.390   4.388  0.00  0.00    +0.016 A 
ATOM     13  C   UNL     1      -4.318   6.210   3.537  0.00  0.00    +0.021 A 
ATOM     14  S   UNL     1      -3.670   4.903   4.565  0.00  0.00    -0.097 S 
ATOM     15  C   UNL     1      -3.199   5.851   5.937  0.00  0.00    +0.046 A 
ENDBRANCH   1  13
BRANCH   8  16
ATOM     16  N   UNL     1      -1.320   3.464   0.027  0.00  0.00    -0.215 N 
ATOM     17  C   UNL     1      -1.305   2.116   0.020  0.00  0.00    +0.262 C 
ATOM     18  O   UNL     1      -2.351   1.497   0.021  0.00  0.00    -0.268 OA
ATOM     19  H   UNL     1      -0.486   3.958   0.026  0.00  0.00    +0.176 HD
BRANCH  17  20
ATOM     20  C   UNL     1      -0.017   1.391   0.010  0.00  0.00    +0.038 A 
ATOM     21  C   UNL     1       1.186   2.100   0.002  0.00  0.00    +0.015 A 
ATOM     22  C   UNL     1       2.385   1.417  -0.014  0.00  0.00    +0.033 A 
ATOM     23  C   UNL     1       2.396   0.034  -0.021  0.00  0.00    +0.126 A 
ATOM     24  C   UNL     1       1.208  -0.674  -0.013  0.00  0.00    +0.033 A 
ATOM     25  C   UNL     1       0.002  -0.004   0.002  0.00  0.00    +0.015 A 
BRANCH  23  26
ATOM     26  N   UNL     1       3.686  -0.692  -0.037  0.00  0.00    +0.056 N 
ATOM     27  O   UNL     1       3.701  -2.009  -0.044  0.00  0.00    -0.126 OA
ATOM     28  O   UNL     1       4.819  -0.021  -0.045  0.00  0.00    -0.126 OA
ENDBRANCH  23  26
ENDBRANCH  17  20
ENDBRANCH   8  16
TORSDOF 4
