REMARK  Name = ZINC08973477
REMARK  6 active torsions:
REMARK  status: ('A' for Active; 'I' for Inactive)
REMARK    1  A    between atoms: C_1  and  C_2
REMARK    2  A    between atoms: C_4  and  C_8
REMARK    3  A    between atoms: C_8  and  C_9
REMARK    4  A    between atoms: C_16  and  O_17
REMARK    5  A    between atoms: O_17  and  C_18
REMARK    6  A    between atoms: C_24  and  N_44
REMARK                            x       y       z     vdW  Elec       q    Type
REMARK                         _______ _______ _______ _____ _____    ______ ____
ROOT
ATOM      1  C   UNL     1      -3.026   1.238   1.317  0.00  0.00    -0.028 C 
ATOM      2  C   UNL     1      -4.369   0.591   1.537  0.00  0.00    -0.012 A 
ATOM      3  C   UNL     1      -5.336   1.174   2.328  0.00  0.00    -0.040 A 
ATOM      4  C   UNL     1      -6.557   0.543   2.508  0.00  0.00    +0.053 A 
ATOM      5  C   UNL     1      -6.818  -0.672   1.895  0.00  0.00    +0.170 A 
ATOM      6  C   UNL     1      -5.846  -1.263   1.095  0.00  0.00    +0.208 A 
ATOM      7  C   UNL     1      -4.623  -0.629   0.919  0.00  0.00    +0.167 A 
ATOM      8  O   UNL     1      -6.336  -2.441   0.609  0.00  0.00    -0.449 OA
ATOM      9  C   UNL     1      -7.763  -2.366   0.789  0.00  0.00    +0.467 C 
ATOM     10  O   UNL     1      -7.919  -1.479   1.913  0.00  0.00    -0.452 OA
ATOM     11  C   UNL     1      -5.105   2.497   3.014  0.00  0.00    +0.017 C 
ATOM     12  C   UNL     1      -3.610   2.817   3.041  0.00  0.00    -0.074 C 
ATOM     13  C   UNL     1      -1.748   3.277   1.560  0.00  0.00    -0.095 C 
ATOM     14  N   UNL     1      -3.092   2.667   1.666  0.00  0.00    +0.383 N 
ATOM     15  H   UNL     1      -3.727   3.142   1.014  0.00  0.00    -0.081 HD
ENDROOT
BRANCH   7  16
ATOM     16  O   UNL     1      -3.670  -1.203   0.137  0.00  0.00    -0.491 OA
ATOM     17  C   UNL     1      -2.721  -2.050   0.788  0.00  0.00    +0.277 C 
ENDBRANCH   7  16
BRANCH   1  18
ATOM     18  C   UNL     1      -2.638   1.106  -0.157  0.00  0.00    +0.044 C 
BRANCH  18  22
ATOM     19  C   UNL     1      -6.865   1.584  -2.957  0.00  0.00    +0.067 C 
ATOM     20  C   UNL     1      -5.576   1.906  -2.245  0.00  0.00    +0.060 A 
ATOM     21  C   UNL     1      -4.814   1.013  -1.485  0.00  0.00    +0.047 A 
ATOM     22  C   UNL     1      -3.733   1.680  -1.018  0.00  0.00    +0.035 A 
ATOM     23  N   UNL     1      -3.813   2.953  -1.460  0.00  0.00    -0.281 N 
ATOM     24  H   UNL     1      -3.158   3.684  -1.270  0.00  0.00    +0.189 HD
ATOM     25  N   UNL     1      -4.977   3.069  -2.231  0.00  0.00    -0.179 NA
ENDBRANCH  18  22
ENDBRANCH   1  18
TORSDOF 3
