REMARK  Name = ZINC42178282
REMARK  8 active torsions:
REMARK  status: ('A' for Active; 'I' for Inactive)
REMARK    1  A    between atoms: C_1  and  C_2
REMARK    2  A    between atoms: N_10  and  C_28
REMARK    3  A    between atoms: C_11  and  S_13
REMARK    4  A    between atoms: S_13  and  C_14
REMARK    5  A    between atoms: C_14  and  C_16
REMARK    6  A    between atoms: C_14  and  C_17
REMARK    7  A    between atoms: N_19  and  C_20
REMARK    8  A    between atoms: C_23  and  C_27
REMARK                            x       y       z     vdW  Elec       q    Type
REMARK                         _______ _______ _______ _____ _____    ______ ____
ROOT
ATOM      1  S   UNL     1       0.070  -6.562   0.977  0.00  0.00    -0.075 S 
ENDROOT
BRANCH   1  12
ATOM      2  C   UNL     1      -0.102   1.502  -0.019  0.00  0.00    +0.044 C 
ATOM      3  C   UNL     1      -0.070  -0.004  -0.024  0.00  0.00    -0.050 A 
ATOM      4  C   UNL     1      -0.058  -0.688  -1.233  0.00  0.00    +0.005 A 
ATOM      5  C   UNL     1      -0.030  -2.053  -1.269  0.00  0.00    +0.029 A 
ATOM      6  C   UNL     1      -0.012  -2.776  -0.072  0.00  0.00    +0.079 A 
ATOM      7  C   UNL     1      -0.024  -2.077   1.156  0.00  0.00    +0.065 A 
ATOM      8  C   UNL     1      -0.048  -0.683   1.163  0.00  0.00    +0.018 A 
ATOM      9  C   UNL     1      -0.005  -2.860   2.400  0.00  0.00    +0.262 A 
ATOM     10  O   UNL     1      -0.014  -2.315   3.489  0.00  0.00    -0.267 OA
ATOM     11  N   UNL     1       0.023  -4.208   2.289  0.00  0.00    -0.290 N 
ATOM     12  C   UNL     1       0.033  -4.802   1.060  0.00  0.00    +0.173 A 
ATOM     13  N   UNL     1       0.016  -4.124  -0.062  0.00  0.00    -0.223 NA
ATOM     14  C   UNL     1       0.044  -5.037   3.497  0.00  0.00    +0.154 C 
ENDBRANCH   1  12
BRANCH   1  15
ATOM     15  C   UNL     1       0.073  -6.917  -0.802  0.00  0.00    +0.137 C 
ATOM     16  C   UNL     1      -1.246  -6.447  -1.419  0.00  0.00    +0.029 C 
BRANCH  15  17
ATOM     17  C   UNL     1       0.229  -8.401  -1.017  0.00  0.00    +0.230 C 
ATOM     18  O   UNL     1      -0.118  -9.178  -0.153  0.00  0.00    -0.274 OA
ATOM     19  N   UNL     1       0.752  -8.863  -2.170  0.00  0.00    -0.282 N 
ATOM     20  H   UNL     1       0.969  -8.246  -2.886  0.00  0.00    +0.155 HD
BRANCH  19  21
ATOM     21  C   UNL     1       0.982 -10.235  -2.334  0.00  0.00    +0.069 A 
ATOM     22  C   UNL     1       0.119 -11.159  -1.761  0.00  0.00    +0.026 A 
ATOM     23  C   UNL     1       0.349 -12.511  -1.924  0.00  0.00    +0.005 A 
ATOM     24  C   UNL     1       1.438 -12.946  -2.657  0.00  0.00    -0.048 A 
ATOM     25  C   UNL     1       2.301 -12.030  -3.230  0.00  0.00    +0.043 A 
ATOM     26  C   UNL     1       2.073 -10.675  -3.075  0.00  0.00    +0.145 A 
ATOM     27  F   UNL     1       2.913  -9.779  -3.639  0.00  0.00    -0.204 F 
ATOM     28  C   UNL     1       1.684 -14.422  -2.832  0.00  0.00    +0.044 C 
ENDBRANCH  19  21
ENDBRANCH  15  17
ENDBRANCH   1  15
TORSDOF 4
