REMARK  Name = ZINC04538047
REMARK  6 active torsions:
REMARK  status: ('A' for Active; 'I' for Inactive)
REMARK    1  A    between atoms: C_1  and  C_2
REMARK    2  A    between atoms: C_2  and  C_4
REMARK    3  A    between atoms: C_2  and  S_16
REMARK    4  A    between atoms: S_16  and  C_17
REMARK    5  A    between atoms: C_20  and  C_23
REMARK    6  A    between atoms: N_21  and  N_22
REMARK                            x       y       z     vdW  Elec       q    Type
REMARK                         _______ _______ _______ _____ _____    ______ ____
ROOT
ATOM      1  C   UNL     1      -0.013   1.086   0.008  0.00  0.00    +0.029 C 
ATOM      2  C   UNL     1      -0.729   1.579   1.267  0.00  0.00    +0.137 C 
ENDROOT
BRANCH   2   3
ATOM      3  C   UNL     1       0.000   1.080   2.488  0.00  0.00    +0.229 C 
ATOM      4  O   UNL     1      -0.360   0.059   3.034  0.00  0.00    -0.274 OA
ATOM      5  N   UNL     1       1.052   1.768   2.973  0.00  0.00    -0.296 N 
ATOM      6  C   UNL     1       1.782   1.311   4.167  0.00  0.00    +0.113 C 
ATOM      7  C   UNL     1       3.211   0.965   3.734  0.00  0.00    +0.054 C 
ATOM      8  C   UNL     1       3.793   2.064   2.885  0.00  0.00    -0.041 A 
ATOM      9  C   UNL     1       5.177   2.117   2.761  0.00  0.00    +0.004 A 
ATOM     10  C   UNL     1       5.775   3.090   1.988  0.00  0.00    +0.000 A 
ATOM     11  C   UNL     1       4.994   4.022   1.330  0.00  0.00    +0.000 A 
ATOM     12  C   UNL     1       3.621   3.974   1.454  0.00  0.00    +0.005 A 
ATOM     13  C   UNL     1       3.018   2.997   2.235  0.00  0.00    -0.027 A 
ATOM     14  C   UNL     1       1.513   3.007   2.336  0.00  0.00    +0.143 C 
ENDBRANCH   2   3
BRANCH   2  15
ATOM     15  S   UNL     1      -2.427   0.953   1.280  0.00  0.00    -0.072 S 
BRANCH  15  16
ATOM     16  C   UNL     1      -3.072   1.788  -0.131  0.00  0.00    +0.209 A 
ATOM     17  N   UNL     1      -2.417   2.618  -0.912  0.00  0.00    -0.120 NA
ATOM     18  N   UNL     1      -3.188   3.047  -1.847  0.00  0.00    -0.123 NA
ATOM     19  C   UNL     1      -4.385   2.517  -1.721  0.00  0.00    +0.217 A 
ATOM     20  N   UNL     1      -4.345   1.689  -0.620  0.00  0.00    -0.221 N 
BRANCH  19  21
ATOM     21  C   UNL     1      -5.545   2.757  -2.593  0.00  0.00    +0.173 A 
ATOM     22  C   UNL     1      -5.512   3.337  -3.826  0.00  0.00    +0.053 A 
ATOM     23  C   UNL     1      -6.839   3.362  -4.296  0.00  0.00    +0.042 A 
ATOM     24  C   UNL     1      -7.610   2.813  -3.337  0.00  0.00    +0.196 A 
ATOM     25  O   UNL     1      -6.825   2.448  -2.309  0.00  0.00    -0.460 OA
ENDBRANCH  19  21
BRANCH  20  26
ATOM     26  N   UNL     1      -5.365   0.931  -0.119  0.00  0.00    -0.294 N 
ATOM     27  H   UNL     1      -5.901   1.449   0.560  0.00  0.00    +0.163 HD
ATOM     28  H   UNL     1      -5.956   0.587  -0.861  0.00  0.00    +0.163 HD
ENDBRANCH  20  26
ENDBRANCH  15  16
ENDBRANCH   2  15
TORSDOF 5
