REMARK  Name = ZINC09018778
REMARK  8 active torsions:
REMARK  status: ('A' for Active; 'I' for Inactive)
REMARK    1  A    between atoms: C_1  and  C_2
REMARK    2  A    between atoms: C_8  and  C_10
REMARK    3  A    between atoms: C_10  and  S_11
REMARK    4  A    between atoms: S_11  and  C_12
REMARK    5  A    between atoms: C_17  and  C_23
REMARK    6  A    between atoms: C_23  and  C_24
REMARK    7  A    between atoms: C_23  and  C_25
REMARK    8  A    between atoms: C_23  and  C_26
REMARK                            x       y       z     vdW  Elec       q    Type
REMARK                         _______ _______ _______ _____ _____    ______ ____
ROOT
ATOM      1  C   UNL     1      -6.020   3.782   5.604  0.00  0.00    +0.198 A 
ATOM      2  N   UNL     1      -6.104   3.425   4.345  0.00  0.00    -0.120 NA
ATOM      3  N   UNL     1      -7.451   3.483   3.965  0.00  0.00    -0.109 NA
ATOM      4  C   UNL     1      -8.151   3.874   5.003  0.00  0.00    +0.237 A 
ATOM      5  N   UNL     1      -7.284   4.064   6.049  0.00  0.00    -0.260 N 
ATOM      6  C   UNL     1      -7.756   4.486   7.270  0.00  0.00    +0.039 A 
ATOM      7  C   UNL     1      -9.072   4.703   7.448  0.00  0.00    +0.092 A 
ATOM      8  C   UNL     1      -9.973   4.503   6.373  0.00  0.00    +0.253 A 
ATOM      9  O   UNL     1     -11.165   4.699   6.530  0.00  0.00    -0.268 OA
ATOM     10  N   UNL     1      -9.507   4.095   5.176  0.00  0.00    -0.291 N 
ATOM     11  H   UNL     1     -10.120   3.956   4.437  0.00  0.00    +0.172 HD
ENDROOT
BRANCH   6  12
ATOM     12  C   UNL     1      -6.798   4.699   8.414  0.00  0.00    +0.003 C 
ATOM     13  C   UNL     1      -7.573   5.161   9.649  0.00  0.00    +0.017 C 
ATOM     14  C   UNL     1      -6.076   3.387   8.725  0.00  0.00    +0.017 C 
ATOM     15  C   UNL     1      -5.772   5.766   8.027  0.00  0.00    +0.017 C 
ENDBRANCH   6  12
BRANCH   1  16
ATOM     16  S   UNL     1      -4.542   3.874   6.558  0.00  0.00    -0.076 S 
BRANCH  16  17
ATOM     17  C   UNL     1      -3.240   3.373   5.398  0.00  0.00    +0.173 C 
BRANCH  17  25
ATOM     18  C   UNL     1       4.079   2.568   5.786  0.00  0.00    +0.066 C 
ATOM     19  C   UNL     1       2.719   2.901   6.344  0.00  0.00    +0.047 A 
ATOM     20  C   UNL     1       2.577   3.295   7.633  0.00  0.00    +0.071 A 
ATOM     21  S   UNL     1       0.808   3.540   7.712  0.00  0.00    -0.060 S 
ATOM     22  C   UNL     1       0.447   3.107   6.070  0.00  0.00    +0.165 A 
ATOM     23  N   UNL     1       1.642   2.822   5.588  0.00  0.00    -0.230 NA
ATOM     24  N   UNL     1      -0.784   3.073   5.426  0.00  0.00    -0.264 N 
ATOM     25  C   UNL     1      -1.904   3.409   6.096  0.00  0.00    +0.229 C 
ATOM     26  O   UNL     1      -1.838   3.740   7.261  0.00  0.00    -0.275 OA
ATOM     27  H   UNL     1      -0.838   2.809   4.494  0.00  0.00    +0.157 HD
ENDBRANCH  17  25
ENDBRANCH  16  17
ENDBRANCH   1  16
TORSDOF 4
