REMARK  Name = ZINC02272074
REMARK  10 active torsions:
REMARK  status: ('A' for Active; 'I' for Inactive)
REMARK    1  A    between atoms: C_1  and  C_2
REMARK    2  A    between atoms: C_2  and  O_3
REMARK    3  A    between atoms: O_3  and  C_4
REMARK    4  A    between atoms: C_4  and  C_6
REMARK    5  A    between atoms: C_6  and  S_7
REMARK    6  A    between atoms: S_7  and  C_8
REMARK    7  A    between atoms: C_20  and  C_22
REMARK    8  A    between atoms: C_20  and  C_23
REMARK    9  A    between atoms: N_26  and  C_27
REMARK   10  A    between atoms: C_30  and  C_33
REMARK                            x       y       z     vdW  Elec       q    Type
REMARK                         _______ _______ _______ _____ _____    ______ ____
ROOT
ATOM      1  C   UNL     1      -2.103   5.734  -1.015  0.00  0.00    +0.198 A 
ATOM      2  N   UNL     1      -3.345   6.026  -1.313  0.00  0.00    -0.120 NA
ATOM      3  N   UNL     1      -4.146   4.935  -0.956  0.00  0.00    -0.109 NA
ATOM      4  C   UNL     1      -3.369   4.008  -0.449  0.00  0.00    +0.245 A 
ATOM      5  N   UNL     1      -2.081   4.477  -0.471  0.00  0.00    -0.249 N 
ATOM      6  C   UNL     1      -1.052   3.697   0.008  0.00  0.00    +0.102 A 
ATOM      7  C   UNL     1      -1.271   2.426   0.531  0.00  0.00    +0.075 A 
ATOM      8  C   UNL     1      -0.079   1.720   0.996  0.00  0.00    -0.018 A 
ATOM      9  C   UNL     1       1.090   2.385   0.874  0.00  0.00    +0.021 A 
ATOM     10  S   UNL     1       0.652   3.934   0.144  0.00  0.00    -0.072 S 
ATOM     11  C   UNL     1       2.439   1.882   1.283  0.00  0.00    +0.203 C 
ATOM     12  O   UNL     1       2.244   0.724   2.112  0.00  0.00    -0.368 OA
ATOM     13  C   UNL     1       1.334  -0.230   1.558  0.00  0.00    +0.068 C 
ATOM     14  C   UNL     1      -0.096   0.319   1.598  0.00  0.00    +0.071 C 
ATOM     15  C   UNL     1       1.403  -1.526   2.369  0.00  0.00    +0.041 C 
ATOM     16  C   UNL     1       1.727  -0.518   0.108  0.00  0.00    +0.041 C 
ATOM     17  C   UNL     1      -2.674   1.952   0.533  0.00  0.00    +0.268 A 
ATOM     18  O   UNL     1      -2.946   0.849   0.970  0.00  0.00    -0.266 OA
ATOM     19  N   UNL     1      -3.646   2.746   0.055  0.00  0.00    -0.245 N 
ENDROOT
BRANCH  19  20
ATOM     20  C   UNL     1      -4.970   2.290   0.066  0.00  0.00    +0.053 A 
ATOM     21  C   UNL     1      -5.780   2.532   1.167  0.00  0.00    +0.026 A 
ATOM     22  C   UNL     1      -7.087   2.084   1.173  0.00  0.00    +0.005 A 
ATOM     23  C   UNL     1      -7.585   1.387   0.087  0.00  0.00    -0.050 A 
ATOM     24  C   UNL     1      -6.779   1.140  -1.009  0.00  0.00    +0.005 A 
ATOM     25  C   UNL     1      -5.473   1.589  -1.023  0.00  0.00    +0.026 A 
ATOM     26  C   UNL     1      -9.010   0.896   0.100  0.00  0.00    +0.044 C 
ENDBRANCH  19  20
BRANCH   1  27
ATOM     27  S   UNL     1      -0.705   6.777  -1.268  0.00  0.00    -0.074 S 
BRANCH  27  28
ATOM     28  C   UNL     1      -1.406   8.276  -2.011  0.00  0.00    +0.197 C 
BRANCH  28  29
ATOM     29  C   UNL     1      -0.301   9.265  -2.282  0.00  0.00    +0.317 C 
ATOM     30  O   UNL     1       0.841   8.987  -2.003  0.00  0.00    -0.250 OA
BRANCH  29  31
ATOM     31  O   UNL     1      -0.587  10.455  -2.833  0.00  0.00    -0.464 OA
BRANCH  31  33
ATOM     32  C   UNL     1       0.010  12.653  -3.696  0.00  0.00    +0.048 C 
ATOM     33  C   UNL     1       0.527  11.358  -3.066  0.00  0.00    +0.229 C 
ENDBRANCH  31  33
ENDBRANCH  29  31
ENDBRANCH  28  29
ENDBRANCH  27  28
ENDBRANCH   1  27
TORSDOF 6
