REMARK  Name = ZINC00855781
REMARK  8 active torsions:
REMARK  status: ('A' for Active; 'I' for Inactive)
REMARK    1  A    between atoms: C_1  and  C_2
REMARK    2  A    between atoms: C_2  and  C_3
REMARK    3  A    between atoms: C_2  and  C_4
REMARK    4  A    between atoms: N_6  and  C_7
REMARK    5  A    between atoms: C_7  and  C_9
REMARK    6  A    between atoms: C_7  and  C_18
REMARK    7  A    between atoms: C_13  and  N_15
REMARK    8  A    between atoms: C_27  and  O_28
REMARK                            x       y       z     vdW  Elec       q    Type
REMARK                         _______ _______ _______ _____ _____    ______ ____
ROOT
ATOM      1  C   UNL     1       1.079  -0.631   3.598  0.00  0.00    +0.137 C 
ENDROOT
BRANCH   1   2
ATOM      2  C   UNL     1       2.503  -0.151   3.484  0.00  0.00    +0.021 A 
ATOM      3  C   UNL     1       3.012   0.192   2.235  0.00  0.00    +0.010 A 
ATOM      4  C   UNL     1       4.295   0.629   2.098  0.00  0.00    +0.010 A 
ATOM      5  C   UNL     1       5.119   0.736   3.230  0.00  0.00    +0.004 A 
ATOM      6  C   UNL     1       6.449   1.184   3.128  0.00  0.00    +0.011 A 
ATOM      7  C   UNL     1       7.192   1.264   4.271  0.00  0.00    +0.020 A 
ATOM      8  C   UNL     1       6.626   0.906   5.494  0.00  0.00    +0.111 A 
ATOM      9  N   UNL     1       5.387   0.489   5.584  0.00  0.00    -0.251 NA
ATOM     10  C   UNL     1       4.607   0.389   4.504  0.00  0.00    +0.113 A 
ATOM     11  C   UNL     1       3.272  -0.055   4.608  0.00  0.00    +0.148 A 
BRANCH  11  12
ATOM     12  O   UNL     1       2.756  -0.389   5.819  0.00  0.00    -0.504 OA
ATOM     13  H   UNL     1       2.878  -1.319   6.056  0.00  0.00    +0.292 HD
ENDBRANCH  11  12
ENDBRANCH   1   2
BRANCH   1  14
ATOM     14  C   UNL     1       1.048  -2.136   3.528  0.00  0.00    -0.021 A 
ATOM     15  C   UNL     1       1.268  -2.776   2.323  0.00  0.00    +0.006 A 
ATOM     16  C   UNL     1       1.240  -4.157   2.258  0.00  0.00    +0.003 A 
ATOM     17  C   UNL     1       0.993  -4.897   3.399  0.00  0.00    +0.033 A 
ATOM     18  C   UNL     1       0.774  -4.257   4.604  0.00  0.00    +0.127 A 
ATOM     19  C   UNL     1       0.806  -2.876   4.670  0.00  0.00    +0.038 A 
BRANCH  18  20
ATOM     20  N   UNL     1       0.508  -5.050   5.826  0.00  0.00    +0.056 N 
ATOM     21  O   UNL     1       0.483  -6.257   5.770  0.00  0.00    -0.126 OA
ATOM     22  O   UNL     1       0.317  -4.490   6.880  0.00  0.00    -0.126 OA
ENDBRANCH  18  20
ENDBRANCH   1  14
BRANCH   1  25
ATOM     23  C   UNL     1      -0.213   1.174   2.592  0.00  0.00    +0.216 C 
ATOM     24  O   UNL     1      -0.083   1.804   3.620  0.00  0.00    -0.276 OA
ATOM     25  N   UNL     1       0.286  -0.075   2.498  0.00  0.00    -0.304 N 
ATOM     26  H   UNL     1       0.121  -0.605   1.703  0.00  0.00    +0.150 HD
BRANCH  23  28
ATOM     27  C   UNL     1      -2.148   0.929   1.060  0.00  0.00    +0.017 C 
ATOM     28  C   UNL     1      -0.933   1.787   1.418  0.00  0.00    +0.069 C 
ATOM     29  C   UNL     1      -1.395   3.199   1.785  0.00  0.00    +0.017 C 
ENDBRANCH  23  28
ENDBRANCH   1  25
TORSDOF 6
