REMARK  Name = ZINC01095647
REMARK  8 active torsions:
REMARK  status: ('A' for Active; 'I' for Inactive)
REMARK    1  A    between atoms: C_1  and  C_2
REMARK    2  A    between atoms: C_5  and  C_7
REMARK    3  A    between atoms: C_12  and  O_30
REMARK    4  A    between atoms: C_13  and  C_18
REMARK    5  A    between atoms: C_18  and  N_58
REMARK    6  A    between atoms: C_20  and  C_29
REMARK    7  A    between atoms: C_25  and  C_27
REMARK    8  A    between atoms: C_25  and  C_28
REMARK                            x       y       z     vdW  Elec       q    Type
REMARK                         _______ _______ _______ _____ _____    ______ ____
ROOT
ATOM      1  C   UNL     1       6.619  -1.384  -0.835  0.00  0.00    +0.092 A 
ATOM      2  C   UNL     1       6.330  -1.673  -2.155  0.00  0.00    +0.029 A 
ATOM      3  C   UNL     1       4.974  -1.832  -2.538  0.00  0.00    +0.019 A 
ATOM      4  C   UNL     1       4.648  -2.126  -3.871  0.00  0.00    +0.015 A 
ATOM      5  C   UNL     1       3.343  -2.278  -4.235  0.00  0.00    +0.046 A 
ATOM      6  C   UNL     1       2.327  -2.148  -3.289  0.00  0.00    +0.122 A 
ATOM      7  C   UNL     1       2.629  -1.853  -1.970  0.00  0.00    +0.020 A 
ATOM      8  C   UNL     1       3.952  -1.695  -1.580  0.00  0.00    +0.144 A 
ATOM      9  O   UNL     1       4.244  -1.412  -0.292  0.00  0.00    -0.421 OA
ATOM     10  C   UNL     1       5.513  -1.253   0.119  0.00  0.00    +0.347 A 
ATOM     11  O   UNL     1       5.745  -1.000   1.287  0.00  0.00    -0.244 OA
ENDROOT
BRANCH   1  16
ATOM     12  C   UNL     1      10.286  -0.498   2.414  0.00  0.00    +0.066 C 
ATOM     13  C   UNL     1       9.778  -0.813   1.030  0.00  0.00    +0.046 A 
ATOM     14  C   UNL     1      10.654  -0.972   0.003  0.00  0.00    +0.070 A 
ATOM     15  S   UNL     1       9.527  -1.316  -1.342  0.00  0.00    -0.075 S 
ATOM     16  C   UNL     1       8.016  -1.210  -0.393  0.00  0.00    +0.115 A 
ATOM     17  N   UNL     1       8.488  -0.928   0.814  0.00  0.00    -0.244 NA
ENDBRANCH   1  16
BRANCH   6  18
ATOM     18  O   UNL     1       1.032  -2.308  -3.664  0.00  0.00    -0.506 OA
ATOM     19  H   UNL     1       0.604  -1.491  -3.954  0.00  0.00    +0.292 HD
ENDBRANCH   6  18
BRANCH   7  20
ATOM     20  C   UNL     1       1.522  -1.709  -0.957  0.00  0.00    -0.035 C 
BRANCH  20  31
ATOM     21  C   UNL     1       1.942   0.708  -0.989  0.00  0.00    -0.071 C 
ATOM     22  C   UNL     1       1.316   1.813  -0.100  0.00  0.00    -0.048 C 
ATOM     23  C   UNL     1      -0.202   1.482  -0.144  0.00  0.00    -0.011 C 
ATOM     24  C   UNL     1      -0.122  -0.072  -0.092  0.00  0.00    -0.067 C 
ATOM     25  C   UNL     1       0.242  -0.465   1.329  0.00  0.00    -0.009 C 
ATOM     26  C   UNL     1       1.360   0.316   1.983  0.00  0.00    -0.036 C 
ATOM     27  C   UNL     1       1.791   1.614   1.334  0.00  0.00    +0.011 C 
ATOM     28  C   UNL     1       2.592  -0.597   2.137  0.00  0.00    +0.011 C 
ATOM     29  C   UNL     1       0.899   0.656   3.424  0.00  0.00    +0.011 C 
ATOM     30  C   UNL     1       1.618   3.222  -0.636  0.00  0.00    +0.009 C 
ATOM     31  N   UNL     1       0.925  -0.338  -1.105  0.00  0.00    +0.385 N 
ATOM     32  H   UNL     1       0.499  -0.280  -2.037  0.00  0.00    -0.081 HD
ENDBRANCH  20  31
ENDBRANCH   7  20
TORSDOF 4
