REMARK  Name = ZINC13977601
REMARK  8 active torsions:
REMARK  status: ('A' for Active; 'I' for Inactive)
REMARK    1  A    between atoms: C_1  and  C_2
REMARK    2  A    between atoms: C_2  and  C_3
REMARK    3  A    between atoms: C_6  and  O_10
REMARK    4  A    between atoms: O_10  and  C_11
REMARK    5  A    between atoms: C_11  and  C_12
REMARK    6  A    between atoms: N_14  and  N_15
REMARK    7  A    between atoms: C_16  and  C_18
REMARK    8  A    between atoms: C_23  and  C_24
REMARK                            x       y       z     vdW  Elec       q    Type
REMARK                         _______ _______ _______ _____ _____    ______ ____
ROOT
ATOM      1  C   UNL     1      -3.019   4.468   6.422  0.00  0.00    +0.267 C 
ATOM      2  O   UNL     1      -3.860   3.686   6.815  0.00  0.00    -0.271 OA
ATOM      3  N   UNL     1      -2.810   5.622   7.086  0.00  0.00    -0.231 N 
ATOM      4  H   UNL     1      -2.138   6.247   6.772  0.00  0.00    +0.173 HD
ENDROOT
BRANCH   3   5
ATOM      5  N   UNL     1      -3.564   5.919   8.229  0.00  0.00    -0.230 N 
ATOM      6  C   UNL     1      -3.355   7.073   8.893  0.00  0.00    +0.261 C 
ATOM      7  O   UNL     1      -2.513   7.856   8.500  0.00  0.00    -0.269 OA
ATOM      8  H   UNL     1      -4.236   5.294   8.543  0.00  0.00    +0.173 HD
BRANCH   6   9
ATOM      9  C   UNL     1      -4.151   7.387  10.101  0.00  0.00    +0.052 A 
ATOM     10  C   UNL     1      -5.202   6.557  10.481  0.00  0.00    +0.014 A 
ATOM     11  C   UNL     1      -5.939   6.851  11.613  0.00  0.00    +0.001 A 
ATOM     12  C   UNL     1      -5.646   7.973  12.368  0.00  0.00    +0.001 A 
ATOM     13  C   UNL     1      -4.610   8.812  12.002  0.00  0.00    +0.016 A 
ATOM     14  C   UNL     1      -3.853   8.528  10.868  0.00  0.00    +0.075 A 
BRANCH  14  15
ATOM     15  C   UNL     1      -2.743   9.422  10.472  0.00  0.00    +0.387 C 
ATOM     16  O   UNL     1      -1.627   8.970  10.315  0.00  0.00    -0.241 OA
ATOM     17  O   UNL     1      -2.971  10.736  10.285  0.00  0.00    -0.241 OA
ENDBRANCH  14  15
ENDBRANCH   6   9
ENDBRANCH   3   5
BRANCH   1  18
ATOM     18  C   UNL     1      -2.209   4.149   5.193  0.00  0.00    +0.326 C 
BRANCH  18  19
ATOM     19  O   UNL     1      -2.612   2.880   4.673  0.00  0.00    -0.482 OA
BRANCH  19  23
ATOM     20  C   UNL     1      -0.677   1.545   1.281  0.00  0.00    -0.046 A 
ATOM     21  C   UNL     1      -0.332   2.762   1.840  0.00  0.00    +0.007 A 
ATOM     22  C   UNL     1      -0.982   3.214   2.972  0.00  0.00    +0.047 A 
ATOM     23  C   UNL     1      -1.975   2.440   3.556  0.00  0.00    +0.135 A 
ATOM     24  C   UNL     1      -2.316   1.217   2.997  0.00  0.00    +0.060 A 
ATOM     25  C   UNL     1      -1.666   0.772   1.860  0.00  0.00    +0.022 A 
ATOM     26 BR   UNL     1      -3.669   0.159   3.788  0.00  0.00    -0.047 Br
BRANCH  20  28
ATOM     27  C   UNL     1      -0.722   1.546  -1.198  0.00  0.00    +0.009 C 
ATOM     28  C   UNL     1       0.029   1.058   0.043  0.00  0.00    +0.032 C 
ENDBRANCH  20  28
ENDBRANCH  19  23
ENDBRANCH  18  19
ENDBRANCH   1  18
TORSDOF 7
