REMARK  Name = ZINC62805600
REMARK  4 active torsions:
REMARK  status: ('A' for Active; 'I' for Inactive)
REMARK    1  A    between atoms: C_6  and  O_7
REMARK    2  A    between atoms: O_7  and  C_8
REMARK    3  A    between atoms: C_15  and  O_17
REMARK    4  A    between atoms: N_21  and  O_22
REMARK                            x       y       z     vdW  Elec       q    Type
REMARK                         _______ _______ _______ _____ _____    ______ ____
ROOT
ATOM      1  C   UNL     1      -0.004   1.359   0.289  0.00  0.00    +0.046 A 
ATOM      2  C   UNL     1       1.183   2.060   0.316  0.00  0.00    +0.017 A 
ATOM      3  C   UNL     1       2.389   1.396   0.087  0.00  0.00    +0.045 A 
ATOM      4  C   UNL     1       2.402   0.019  -0.169  0.00  0.00    +0.134 A 
ATOM      5  C   UNL     1       1.197  -0.673  -0.194  0.00  0.00    +0.092 A 
ATOM      6  C   UNL     1       0.004  -0.007   0.035  0.00  0.00    +0.125 A 
ATOM      7  O   UNL     1       3.666  -0.430  -0.362  0.00  0.00    -0.485 OA
ATOM      8  C   UNL     1       4.605   0.640  -0.245  0.00  0.00    +0.288 C 
ATOM      9  C   UNL     1       3.786   1.877   0.056  0.00  0.00    +0.128 C 
ATOM     10  N   UNL     1       4.213   3.085   0.243  0.00  0.00    -0.088 NA
ENDROOT
BRANCH  10  11
ATOM     11  O   UNL     1       5.599   3.365   0.174  0.00  0.00    -0.409 OA
ATOM     12  H   UNL     1       5.822   4.293   0.327  0.00  0.00    +0.328 HD
ENDBRANCH  10  11
BRANCH   6  13
ATOM     13  O   UNL     1      -1.167  -0.694   0.009  0.00  0.00    -0.484 OA
BRANCH  13  14
ATOM     14  C   UNL     1      -2.370   0.068   0.136  0.00  0.00    +0.224 C 
ATOM     15  C   UNL     1      -2.619   0.351   1.635  0.00  0.00    +0.213 C 
ATOM     16  S   UNL     1      -4.459   0.233   1.722  0.00  0.00    -0.025 S 
ATOM     17  O   UNL     1      -5.030   1.463   1.299  0.00  0.00    -0.174 OA
ATOM     18  O   UNL     1      -4.835  -0.326   2.974  0.00  0.00    -0.174 OA
ATOM     19  C   UNL     1      -4.678  -1.032   0.396  0.00  0.00    +0.201 C 
ATOM     20  C   UNL     1      -3.500  -0.693  -0.540  0.00  0.00    +0.177 C 
BRANCH  20  21
ATOM     21  O   UNL     1      -3.997   0.095  -1.623  0.00  0.00    -0.386 OA
ATOM     22  H   UNL     1      -4.723  -0.319  -2.110  0.00  0.00    +0.210 HD
ENDBRANCH  20  21
ENDBRANCH  13  14
ENDBRANCH   6  13
TORSDOF 4
