REMARK  Name = ZINC40400498
REMARK  12 active torsions:
REMARK  status: ('A' for Active; 'I' for Inactive)
REMARK    1  A    between atoms: C_1  and  C_2
REMARK    2  A    between atoms: C_2  and  O_3
REMARK    3  A    between atoms: O_3  and  C_4
REMARK    4  A    between atoms: C_4  and  C_6
REMARK    5  A    between atoms: C_7  and  C_35
REMARK    6  A    between atoms: C_11  and  C_13
REMARK    7  A    between atoms: C_17  and  O_19
REMARK    8  A    between atoms: O_19  and  C_20
REMARK    9  A    between atoms: C_21  and  C_24
REMARK   10  A    between atoms: C_25  and  N_27
REMARK   11  A    between atoms: N_27  and  C_28
REMARK   12  A    between atoms: C_28  and  C_29
REMARK                            x       y       z     vdW  Elec       q    Type
REMARK                         _______ _______ _______ _____ _____    ______ ____
ROOT
ATOM      1  C   UNL     1       1.333  -2.308   2.467  0.00  0.00    +0.082 C 
ATOM      2  C   UNL     1       1.288  -3.639   2.837  0.00  0.00    +0.053 C 
ATOM      3  N   UNL     1       2.021  -4.079   3.847  0.00  0.00    -0.230 NA
ATOM      4  C   UNL     1       2.831  -3.333   4.569  0.00  0.00    +0.166 C 
ATOM      5  N   UNL     1       3.020  -1.994   4.366  0.00  0.00    -0.267 N 
ATOM      6  C   UNL     1       2.247  -1.390   3.248  0.00  0.00    +0.150 C 
ATOM      7  C   UNL     1       3.904  -1.351   5.208  0.00  0.00    +0.048 C 
ATOM      8  C   UNL     1       4.511  -2.090   6.163  0.00  0.00    +0.072 C 
ATOM      9  S   UNL     1       3.825  -3.708   5.868  0.00  0.00    -0.060 S 
ATOM     10  C   UNL     1       0.397  -4.594   2.087  0.00  0.00    +0.066 C 
ENDROOT
BRANCH   6  11
ATOM     11  C   UNL     1       1.408  -0.276   3.819  0.00  0.00    -0.019 A 
ATOM     12  C   UNL     1       0.557  -0.527   4.880  0.00  0.00    +0.006 A 
ATOM     13  C   UNL     1      -0.214   0.493   5.407  0.00  0.00    +0.004 A 
ATOM     14  C   UNL     1      -0.137   1.765   4.873  0.00  0.00    +0.045 A 
ATOM     15  C   UNL     1       0.715   2.019   3.808  0.00  0.00    +0.120 A 
ATOM     16  C   UNL     1       1.493   0.995   3.286  0.00  0.00    +0.051 A 
BRANCH  15  17
ATOM     17  O   UNL     1       0.793   3.269   3.282  0.00  0.00    -0.495 OA
ATOM     18  C   UNL     1      -0.032   4.275   3.874  0.00  0.00    +0.277 C 
ENDBRANCH  15  17
ENDBRANCH   6  11
BRANCH   7  19
ATOM     19  C   UNL     1       4.176   0.087   5.071  0.00  0.00    +0.091 C 
ATOM     20  C   UNL     1       4.941   0.718   5.983  0.00  0.00    +0.239 C 
ATOM     21  O   UNL     1       5.551   0.008   6.963  0.00  0.00    -0.271 OA
BRANCH  20  22
ATOM     22  N   UNL     1       5.104   2.091   5.919  0.00  0.00    -0.306 N 
ATOM     23  H   UNL     1       4.610   2.608   5.264  0.00  0.00    +0.149 HD
BRANCH  22  24
ATOM     24  C   UNL     1       6.024   2.763   6.840  0.00  0.00    +0.160 C 
BRANCH  24  25
ATOM     25  C   UNL     1       5.928   4.255   6.647  0.00  0.00    +0.058 A 
ATOM     26  C   UNL     1       5.096   4.997   7.463  0.00  0.00    +0.025 A 
ATOM     27  C   UNL     1       5.015   6.369   7.276  0.00  0.00    +0.003 A 
ATOM     28  C   UNL     1       5.777   6.944   6.271  0.00  0.00    +0.020 A 
ATOM     29  C   UNL     1       6.587   6.138   5.495  0.00  0.00    +0.111 A 
ATOM     30  N   UNL     1       6.643   4.837   5.704  0.00  0.00    -0.258 NA
ENDBRANCH  24  25
ENDBRANCH  22  24
ENDBRANCH  20  22
ENDBRANCH   7  19
BRANCH   1  31
ATOM     31  C   UNL     1       0.564  -1.827   1.401  0.00  0.00    +0.339 C 
ATOM     32  O   UNL     1      -0.060  -2.605   0.700  0.00  0.00    -0.245 OA
BRANCH  31  33
ATOM     33  O   UNL     1       0.512  -0.500   1.149  0.00  0.00    -0.462 OA
BRANCH  33  35
ATOM     34  C   UNL     1      -0.227   1.443  -0.082  0.00  0.00    +0.048 C 
ATOM     35  C   UNL     1      -0.293  -0.080   0.046  0.00  0.00    +0.229 C 
ENDBRANCH  33  35
ENDBRANCH  31  33
ENDBRANCH   1  31
TORSDOF 9
