REMARK  Name = ZINC12464593
REMARK  12 active torsions:
REMARK  status: ('A' for Active; 'I' for Inactive)
REMARK    1  A    between atoms: C_1  and  O_2
REMARK    2  A    between atoms: O_2  and  C_3
REMARK    3  A    between atoms: C_3  and  C_4
REMARK    4  A    between atoms: C_4  and  N_5
REMARK    5  A    between atoms: C_7  and  O_33
REMARK    6  A    between atoms: C_10  and  O_31
REMARK    7  A    between atoms: N_14  and  C_15
REMARK    8  A    between atoms: C_15  and  C_17
REMARK    9  A    between atoms: N_20  and  S_23
REMARK   10  A    between atoms: S_23  and  C_26
REMARK   11  A    between atoms: O_31  and  C_32
REMARK   12  A    between atoms: O_33  and  C_34
REMARK                            x       y       z     vdW  Elec       q    Type
REMARK                         _______ _______ _______ _____ _____    ______ ____
ROOT
ATOM      1  N   UNL     1      -8.193   6.435   6.665  0.00  0.00    -0.316 N 
ATOM      2  C   UNL     1      -9.085   7.380   7.143  0.00  0.00    +0.103 A 
ATOM      3  C   UNL     1     -10.182   7.187   8.005  0.00  0.00    +0.145 A 
ATOM      4  C   UNL     1     -10.978   8.247   8.381  0.00  0.00    +0.051 A 
ATOM      5  C   UNL     1     -10.727   9.530   7.923  0.00  0.00    +0.050 A 
ATOM      6  C   UNL     1      -9.653   9.748   7.073  0.00  0.00    +0.136 A 
ATOM      7  C   UNL     1      -8.855   8.687   6.697  0.00  0.00    +0.084 A 
ATOM      8  S   UNL     1      -7.425   8.518   5.660  0.00  0.00    -0.048 S 
ATOM      9  C   UNL     1      -7.183   6.810   5.836  0.00  0.00    +0.167 A 
ATOM     10  N   UNL     1      -6.239   6.048   5.287  0.00  0.00    -0.156 NA
ENDROOT
BRANCH  10  11
ATOM     11  C   UNL     1      -5.327   6.592   4.489  0.00  0.00    +0.242 C 
ATOM     12  O   UNL     1      -5.354   7.786   4.260  0.00  0.00    -0.273 OA
BRANCH  11  13
ATOM     13  C   UNL     1      -4.258   5.730   3.868  0.00  0.00    +0.080 C 
ATOM     14  C   UNL     1      -3.344   6.598   3.000  0.00  0.00    +0.030 C 
ATOM     15  C   UNL     1      -2.239   5.724   2.398  0.00  0.00    +0.110 C 
ATOM     16  N   UNL     1      -2.861   4.601   1.683  0.00  0.00    -0.176 NA
ATOM     17  C   UNL     1      -3.831   3.760   2.398  0.00  0.00    +0.110 C 
ATOM     18  C   UNL     1      -4.914   4.652   3.002  0.00  0.00    +0.030 C 
BRANCH  16  19
ATOM     19  S   UNL     1      -2.481   4.293   0.101  0.00  0.00    +0.067 S 
ATOM     20  O   UNL     1      -2.016   5.518  -0.450  0.00  0.00    -0.152 OA
ATOM     21  O   UNL     1      -3.579   3.579  -0.449  0.00  0.00    -0.152 OA
BRANCH  19  22
ATOM     22  C   UNL     1      -1.109   3.187   0.100  0.00  0.00    +0.143 A 
ATOM     23  C   UNL     1      -1.106   1.832   0.094  0.00  0.00    +0.036 A 
ATOM     24  C   UNL     1       0.105   1.165   0.099  0.00  0.00    +0.010 A 
ATOM     25  C   UNL     1       1.252   1.885   0.097  0.00  0.00    +0.047 A 
ATOM     26  S   UNL     1       0.636   3.561   0.098  0.00  0.00    -0.077 S 
ENDBRANCH  19  22
ENDBRANCH  16  19
ENDBRANCH  11  13
ENDBRANCH  10  11
BRANCH   6  27
ATOM     27  O   UNL     1      -9.388  11.000   6.611  0.00  0.00    -0.494 OA
ATOM     28  C   UNL     1     -10.258  12.048   7.044  0.00  0.00    +0.277 C 
ENDBRANCH   6  27
BRANCH   3  29
ATOM     29  O   UNL     1     -10.458   5.940   8.474  0.00  0.00    -0.493 OA
ATOM     30  C   UNL     1     -11.583   5.808   9.345  0.00  0.00    +0.277 C 
ENDBRANCH   3  29
BRANCH   1  31
ATOM     31  C   UNL     1      -8.334   5.031   7.056  0.00  0.00    +0.152 C 
BRANCH  31  32
ATOM     32  C   UNL     1      -7.948   4.132   5.880  0.00  0.00    +0.181 C 
BRANCH  32  34
ATOM     33  C   UNL     1      -7.885   1.841   5.179  0.00  0.00    +0.194 C 
ATOM     34  O   UNL     1      -8.213   2.768   6.215  0.00  0.00    -0.381 OA
ENDBRANCH  32  34
ENDBRANCH  31  32
ENDBRANCH   1  31
TORSDOF 9
