REMARK  Name = ZINC63182698
REMARK  8 active torsions:
REMARK  status: ('A' for Active; 'I' for Inactive)
REMARK    1  A    between atoms: C_1  and  C_2
REMARK    2  A    between atoms: C_5  and  C_17
REMARK    3  A    between atoms: C_6  and  C_16
REMARK    4  A    between atoms: N_7  and  C_8
REMARK    5  A    between atoms: C_17  and  C_19
REMARK    6  A    between atoms: C_19  and  N_20
REMARK    7  A    between atoms: C_23  and  C_28
REMARK    8  A    between atoms: C_28  and  C_29
REMARK                            x       y       z     vdW  Elec       q    Type
REMARK                         _______ _______ _______ _____ _____    ______ ____
ROOT
ATOM      1  N   UNL     1      -4.593  -3.194   2.063  0.00  0.00    -0.217 N 
ATOM      2  C   UNL     1      -4.744  -4.492   1.735  0.00  0.00    +0.244 C 
ATOM      3  O   UNL     1      -4.218  -5.080   0.814  0.00  0.00    -0.273 OA
ATOM      4  C   UNL     1      -5.707  -5.065   2.756  0.00  0.00    +0.165 C 
ATOM      5  N   UNL     1      -6.015  -3.915   3.623  0.00  0.00    -0.287 N 
ATOM      6  C   UNL     1      -5.315  -2.871   3.143  0.00  0.00    +0.310 C 
ATOM      7  O   UNL     1      -5.339  -1.759   3.632  0.00  0.00    -0.252 OA
ATOM      8  H   UNL     1      -6.606  -3.911   4.393  0.00  0.00    +0.151 HD
ENDROOT
BRANCH   1   9
ATOM      9  C   UNL     1      -3.739  -2.254   1.333  0.00  0.00    +0.197 C 
BRANCH   9  10
ATOM     10  C   UNL     1      -2.351  -2.277   1.920  0.00  0.00    +0.178 C 
ATOM     11  O   UNL     1      -2.099  -3.008   2.857  0.00  0.00    -0.291 OA
BRANCH  10  15
ATOM     12  C   UNL     1      -0.232   1.607   0.143  0.00  0.00    +0.028 C 
ATOM     13  C   UNL     1      -0.102   0.087   0.030  0.00  0.00    +0.075 C 
ATOM     14  C   UNL     1      -1.484  -0.583   0.154  0.00  0.00    +0.062 C 
ATOM     15  C   UNL     1      -1.350  -1.454   1.384  0.00  0.00    +0.015 C 
ATOM     16  C   UNL     1      -0.103  -1.306   1.876  0.00  0.00    +0.010 C 
ATOM     17  N   UNL     1       0.667  -0.448   1.162  0.00  0.00    -0.325 N 
ATOM     18  C   UNL     1       0.390  -2.027   3.104  0.00  0.00    +0.061 C 
BRANCH  17  19
ATOM     19  C   UNL     1       2.058  -0.105   1.471  0.00  0.00    +0.096 C 
ATOM     20  C   UNL     1       2.921  -1.378   1.462  0.00  0.00    +0.046 C 
ATOM     21  C   UNL     1       4.303  -1.083   2.093  0.00  0.00    +0.168 C 
ATOM     22  S   UNL     1       3.929   0.287   3.261  0.00  0.00    -0.029 S 
ATOM     23  O   UNL     1       4.644   1.447   2.858  0.00  0.00    -0.174 OA
ATOM     24  O   UNL     1       4.066  -0.191   4.593  0.00  0.00    -0.174 OA
ATOM     25  C   UNL     1       2.140   0.525   2.890  0.00  0.00    +0.188 C 
ENDBRANCH  17  19
ENDBRANCH  10  15
ENDBRANCH   9  10
ENDBRANCH   1   9
BRANCH   4  26
ATOM     26  C   UNL     1      -6.973  -5.582   2.071  0.00  0.00    +0.065 C 
BRANCH  26  27
ATOM     27  C   UNL     1      -7.856  -6.255   3.091  0.00  0.00    -0.039 C 
ATOM     28  C   UNL     1      -8.889  -5.699   3.765  0.00  0.00    -0.001 A 
ATOM     29  C   UNL     1      -9.475  -4.353   3.752  0.00  0.00    +0.010 A 
ATOM     30  C   UNL     1     -10.529  -4.090   4.558  0.00  0.00    +0.001 A 
ATOM     31  C   UNL     1     -11.073  -5.066   5.403  0.00  0.00    +0.002 A 
ATOM     32  C   UNL     1     -10.589  -6.324   5.470  0.00  0.00    +0.026 A 
ATOM     33  C   UNL     1      -9.482  -6.713   4.665  0.00  0.00    +0.043 A 
ATOM     34  N   UNL     1      -8.842  -7.851   4.553  0.00  0.00    -0.380 N 
ATOM     35  C   UNL     1      -7.772  -7.689   3.562  0.00  0.00    +0.144 C 
ATOM     36  H   UNL     1      -9.044  -8.665   5.040  0.00  0.00    +0.160 HD
ENDBRANCH  26  27
ENDBRANCH   4  26
TORSDOF 6
