REMARK  Name = ZINC36739036
REMARK  5 active torsions:
REMARK  status: ('A' for Active; 'I' for Inactive)
REMARK    1  A    between atoms: C_1  and  C_2
REMARK    2  A    between atoms: C_6  and  C_8
REMARK    3  A    between atoms: N_10  and  C_11
REMARK    4  A    between atoms: C_12  and  C_19
REMARK    5  A    between atoms: C_16  and  N_17
REMARK                            x       y       z     vdW  Elec       q    Type
REMARK                         _______ _______ _______ _____ _____    ______ ____
ROOT
ATOM      1  C   UNL     1      -0.476  -3.127   2.271  0.00  0.00    +0.248 C 
ATOM      2  O   UNL     1      -1.223  -2.785   3.167  0.00  0.00    -0.270 OA
ATOM      3  N   UNL     1       0.292  -4.225   2.414  0.00  0.00    -0.280 N 
ATOM      4  H   UNL     1       0.838  -4.535   1.675  0.00  0.00    +0.155 HD
ENDROOT
BRANCH   3   5
ATOM      5  C   UNL     1       0.301  -4.919   3.631  0.00  0.00    +0.058 A 
ATOM      6  C   UNL     1       0.543  -4.241   4.816  0.00  0.00    -0.026 A 
ATOM      7  C   UNL     1       0.552  -4.928   6.016  0.00  0.00    +0.020 A 
ATOM      8  C   UNL     1       0.320  -6.292   6.039  0.00  0.00    +0.020 A 
ATOM      9  C   UNL     1       0.076  -6.975   4.862  0.00  0.00    +0.040 A 
ATOM     10  C   UNL     1       0.060  -6.293   3.654  0.00  0.00    +0.047 A 
ATOM     11 BR   UNL     1       0.335  -7.223   7.685  0.00  0.00    -0.050 Br
ATOM     12  C   UNL     1       0.798  -2.756   4.796  0.00  0.00    +0.046 C 
BRANCH  10  13
ATOM     13  N   UNL     1      -0.192  -6.981   2.463  0.00  0.00    -0.356 N 
ATOM     14  H   UNL     1      -0.307  -6.490   1.634  0.00  0.00    +0.142 HD
ATOM     15  H   UNL     1      -0.251  -7.949   2.465  0.00  0.00    +0.142 HD
ENDBRANCH  10  13
ENDBRANCH   3   5
BRANCH   1  21
ATOM     16  C   UNL     1      -1.996   0.761  -0.463  0.00  0.00    +0.044 C 
ATOM     17  C   UNL     1      -1.139  -0.467  -0.297  0.00  0.00    -0.050 A 
ATOM     18  C   UNL     1      -0.288  -0.858  -1.315  0.00  0.00    +0.003 A 
ATOM     19  C   UNL     1       0.502  -1.985  -1.171  0.00  0.00    +0.001 A 
ATOM     20  C   UNL     1       0.446  -2.726  -0.009  0.00  0.00    +0.013 A 
ATOM     21  C   UNL     1      -0.410  -2.337   1.023  0.00  0.00    +0.037 A 
ATOM     22  C   UNL     1      -1.201  -1.196   0.873  0.00  0.00    +0.016 A 
ENDBRANCH   1  21
TORSDOF 3
