REMARK  Name = ZINC11331678
REMARK  7 active torsions:
REMARK  status: ('A' for Active; 'I' for Inactive)
REMARK    1  A    between atoms: C_1  and  C_2
REMARK    2  A    between atoms: C_2  and  N_3
REMARK    3  A    between atoms: C_14  and  N_16
REMARK    4  A    between atoms: C_17  and  C_19
REMARK    5  A    between atoms: C_19  and  C_20
REMARK    6  A    between atoms: C_20  and  C_22
REMARK    7  A    between atoms: C_20  and  N_27
REMARK                            x       y       z     vdW  Elec       q    Type
REMARK                         _______ _______ _______ _____ _____    ______ ____
ROOT
ATOM      1  N   UNL     1      -5.013  -1.815  -3.965  0.00  0.00    -0.285 N 
ATOM      2  C   UNL     1      -6.323  -1.774  -3.650  0.00  0.00    +0.219 C 
ATOM      3  O   UNL     1      -6.674  -1.353  -2.568  0.00  0.00    -0.275 OA
ATOM      4  H   UNL     1      -4.737  -2.080  -4.856  0.00  0.00    +0.155 HD
ENDROOT
BRANCH   1  16
ATOM      5  N   UNL     1      -1.357  -0.568   0.017  0.00  0.00    -0.340 N 
ATOM      6  C   UNL     1      -2.015  -1.027   1.144  0.00  0.00    +0.050 A 
ATOM      7  C   UNL     1      -1.672  -1.030   2.493  0.00  0.00    +0.026 A 
ATOM      8  C   UNL     1      -2.537  -1.565   3.423  0.00  0.00    +0.002 A 
ATOM      9  C   UNL     1      -3.752  -2.105   3.029  0.00  0.00    +0.001 A 
ATOM     10  C   UNL     1      -4.109  -2.111   1.698  0.00  0.00    +0.010 A 
ATOM     11  C   UNL     1      -3.245  -1.573   0.747  0.00  0.00    +0.008 A 
ATOM     12  C   UNL     1      -3.316  -1.424  -0.719  0.00  0.00    +0.009 A 
ATOM     13  C   UNL     1      -2.127  -0.793  -1.113  0.00  0.00    +0.050 A 
ATOM     14  C   UNL     1      -1.915  -0.514  -2.460  0.00  0.00    +0.028 A 
ATOM     15  C   UNL     1      -2.869  -0.854  -3.394  0.00  0.00    +0.025 A 
ATOM     16  C   UNL     1      -4.051  -1.476  -3.004  0.00  0.00    +0.034 A 
ATOM     17  C   UNL     1      -4.273  -1.768  -1.669  0.00  0.00    +0.034 A 
BRANCH   5  19
ATOM     18  C   UNL     1      -0.205   1.583   0.188  0.00  0.00    +0.027 C 
ATOM     19  C   UNL     1      -0.039   0.072   0.019  0.00  0.00    +0.119 C 
ENDBRANCH   5  19
ENDBRANCH   1  16
BRANCH   2  20
ATOM     20  C   UNL     1      -7.352  -2.252  -4.642  0.00  0.00    +0.123 C 
BRANCH  20  21
ATOM     21  C   UNL     1      -8.750  -2.099  -4.040  0.00  0.00    +0.120 C 
BRANCH  21  22
ATOM     22  N   UNL     1      -8.884  -2.989  -2.884  0.00  0.00    -0.292 N 
ATOM     23  C   UNL     1      -8.740  -4.320  -3.038  0.00  0.00    +0.298 C 
ATOM     24  O   UNL     1      -8.498  -4.782  -4.136  0.00  0.00    -0.253 OA
ATOM     25  N   UNL     1      -8.864  -5.138  -1.974  0.00  0.00    -0.313 N 
ATOM     26  H   UNL     1      -9.077  -2.620  -2.008  0.00  0.00    +0.151 HD
ATOM     27  H   UNL     1      -9.056  -4.769  -1.098  0.00  0.00    +0.146 HD
ATOM     28  H   UNL     1      -8.760  -6.096  -2.085  0.00  0.00    +0.146 HD
ENDBRANCH  21  22
BRANCH  21  29
ATOM     29  C   UNL     1      -9.784  -2.460  -5.075  0.00  0.00    +0.010 A 
ATOM     30  C   UNL     1     -10.527  -1.643  -5.861  0.00  0.00    +0.013 A 
ATOM     31  C   UNL     1     -11.425  -2.203  -6.750  0.00  0.00    +0.008 A 
ATOM     32  C   UNL     1     -11.536  -3.552  -6.811  0.00  0.00    +0.045 A 
ATOM     33  S   UNL     1     -10.344  -4.076  -5.589  0.00  0.00    -0.100 S 
ENDBRANCH  21  29
ENDBRANCH  20  21
ENDBRANCH   2  20
TORSDOF 6
