REMARK  Name = ZINC19840324
REMARK  8 active torsions:
REMARK  status: ('A' for Active; 'I' for Inactive)
REMARK    1  A    between atoms: C_1  and  C_2
REMARK    2  A    between atoms: C_2  and  C_3
REMARK    3  A    between atoms: C_3  and  O_5
REMARK    4  A    between atoms: O_5  and  C_6
REMARK    5  A    between atoms: C_7  and  C_24
REMARK    6  A    between atoms: C_8  and  C_12
REMARK    7  A    between atoms: N_14  and  C_15
REMARK    8  A    between atoms: C_19  and  N_21
REMARK                            x       y       z     vdW  Elec       q    Type
REMARK                         _______ _______ _______ _____ _____    ______ ____
ROOT
ATOM      1  C   UNL     1       1.856   9.565   0.447  0.00  0.00    +0.163 C 
ATOM      2  C   UNL     1       2.125   8.227   0.342  0.00  0.00    -0.006 C 
ATOM      3  C   UNL     1       1.060   7.341   0.235  0.00  0.00    +0.168 C 
ATOM      4  S   UNL     1      -0.347   8.438   0.269  0.00  0.00    -0.086 S 
ATOM      5  C   UNL     1       0.534   9.982   0.437  0.00  0.00    +0.132 C 
ATOM      6  N   UNL     1       0.026  11.269   0.524  0.00  0.00    -0.290 NA
ATOM      7  C   UNL     1       3.546   7.726   0.343  0.00  0.00    +0.044 C 
ATOM      8  H   UNL     1       0.711  12.126   0.616  0.00  0.00    +0.187 HD
ENDROOT
BRANCH   3   9
ATOM      9  C   UNL     1       1.085   5.930   0.122  0.00  0.00    +0.235 C 
ATOM     10  O   UNL     1       2.150   5.339   0.110  0.00  0.00    -0.274 OA
ATOM     11  N   UNL     1      -0.069   5.241   0.028  0.00  0.00    -0.284 N 
ATOM     12  H   UNL     1      -1.026   5.778  -0.049  0.00  0.00    +0.155 HD
BRANCH  11  13
ATOM     13  C   UNL     1      -0.051   3.843   0.027  0.00  0.00    +0.036 A 
ATOM     14  C   UNL     1      -0.989   3.134  -0.713  0.00  0.00    +0.023 A 
ATOM     15  C   UNL     1      -0.968   1.754  -0.711  0.00  0.00    +0.004 A 
ATOM     16  C   UNL     1      -0.014   1.076   0.026  0.00  0.00    +0.033 A 
ATOM     17  C   UNL     1       0.918   1.778   0.767  0.00  0.00    +0.128 A 
ATOM     18  C   UNL     1       0.906   3.159   0.766  0.00  0.00    +0.056 A 
BRANCH  17  19
ATOM     19  N   UNL     1       1.934   1.048   1.560  0.00  0.00    +0.056 N 
ATOM     20  O   UNL     1       1.948  -0.170   1.558  0.00  0.00    -0.126 OA
ATOM     21  O   UNL     1       2.756   1.666   2.213  0.00  0.00    -0.126 OA
ENDBRANCH  17  19
ENDBRANCH  11  13
ENDBRANCH   3   9
BRANCH   1  22
ATOM     22  O   UNL     1       2.868  10.470   0.560  0.00  0.00    -0.423 OA
BRANCH  22  23
ATOM     23  C   UNL     1       3.366  10.973  -0.581  0.00  0.00    +0.312 C 
ATOM     24  O   UNL     1       2.913  10.617  -1.647  0.00  0.00    -0.250 OA
BRANCH  23  26
ATOM     25  C   UNL     1       4.864  12.387  -1.960  0.00  0.00    +0.015 C 
ATOM     26  C   UNL     1       4.487  11.979  -0.535  0.00  0.00    +0.118 C 
ENDBRANCH  23  26
ENDBRANCH  22  23
ENDBRANCH   1  22
TORSDOF 6
