REMARK  Name = ZINC13221842
REMARK  12 active torsions:
REMARK  status: ('A' for Active; 'I' for Inactive)
REMARK    1  A    between atoms: C_1  and  C_2
REMARK    2  A    between atoms: C_3  and  C_27
REMARK    3  A    between atoms: C_4  and  C_26
REMARK    4  A    between atoms: C_9  and  S_11
REMARK    5  A    between atoms: S_11  and  C_12
REMARK    6  A    between atoms: C_12  and  C_13
REMARK    7  A    between atoms: N_15  and  C_16
REMARK    8  A    between atoms: C_21  and  C_22
REMARK    9  A    between atoms: C_22  and  C_23
REMARK   10  A    between atoms: C_22  and  C_24
REMARK   11  A    between atoms: C_22  and  C_25
REMARK   12  A    between atoms: C_27  and  C_28
REMARK                            x       y       z     vdW  Elec       q    Type
REMARK                         _______ _______ _______ _____ _____    ______ ____
ROOT
ATOM      1  S   UNL     1      -6.263  -3.377   2.221  0.00  0.00    -0.075 S 
ENDROOT
BRANCH   1  10
ATOM      2  C   UNL     1      -1.659  -0.032  -2.760  0.00  0.00    +0.066 C 
ATOM      3  C   UNL     1      -2.228  -0.470  -1.435  0.00  0.00    +0.047 A 
ATOM      4  C   UNL     1      -1.605  -0.077  -0.245  0.00  0.00    +0.006 A 
ATOM      5  C   UNL     1      -2.132  -0.474   0.942  0.00  0.00    +0.049 A 
ATOM      6  N   UNL     1      -3.248  -1.249   0.942  0.00  0.00    -0.200 N 
ATOM      7  C   UNL     1      -3.829  -1.620  -0.237  0.00  0.00    +0.254 A 
ATOM      8  N   UNL     1      -3.304  -1.223  -1.402  0.00  0.00    -0.216 NA
ATOM      9  N   UNL     1      -4.889  -2.364   0.059  0.00  0.00    -0.183 NA
ATOM     10  C   UNL     1      -5.002  -2.478   1.381  0.00  0.00    +0.211 A 
ATOM     11  N   UNL     1      -4.023  -1.815   1.963  0.00  0.00    -0.137 NA
ATOM     12  C   UNL     1      -1.488  -0.062   2.241  0.00  0.00    +0.066 C 
BRANCH   4  13
ATOM     13  C   UNL     1      -0.367   0.782  -0.280  0.00  0.00    +0.163 C 
BRANCH  13  14
ATOM     14  C   UNL     1       0.855  -0.099  -0.324  0.00  0.00    +0.360 C 
ATOM     15  O   UNL     1       0.733  -1.301  -0.326  0.00  0.00    -0.246 OA
ATOM     16  O   UNL     1       2.078   0.453  -0.365  0.00  0.00    -0.246 OA
ENDBRANCH  13  14
ENDBRANCH   4  13
ENDBRANCH   1  10
BRANCH   1  17
ATOM     17  C   UNL     1      -7.287  -4.051   0.884  0.00  0.00    +0.173 C 
BRANCH  17  18
ATOM     18  C   UNL     1      -8.418  -4.853   1.473  0.00  0.00    +0.227 C 
ATOM     19  O   UNL     1      -8.524  -4.960   2.677  0.00  0.00    -0.275 OA
ATOM     20  N   UNL     1      -9.313  -5.452   0.663  0.00  0.00    -0.285 N 
ATOM     21  H   UNL     1      -9.281  -5.297  -0.294  0.00  0.00    +0.155 HD
BRANCH  20  22
ATOM     22  C   UNL     1     -10.289  -6.298   1.202  0.00  0.00    +0.037 A 
ATOM     23  C   UNL     1     -10.405  -6.439   2.578  0.00  0.00    +0.023 A 
ATOM     24  C   UNL     1     -11.372  -7.271   3.107  0.00  0.00    +0.002 A 
ATOM     25  C   UNL     1     -12.217  -7.972   2.267  0.00  0.00    +0.000 A 
ATOM     26  C   UNL     1     -12.101  -7.839   0.896  0.00  0.00    +0.006 A 
ATOM     27  C   UNL     1     -11.139  -7.004   0.361  0.00  0.00    -0.021 A 
BRANCH  27  28
ATOM     28  C   UNL     1     -11.012  -6.861  -1.134  0.00  0.00    -0.011 C 
ATOM     29  C   UNL     1     -12.035  -7.766  -1.822  0.00  0.00    +0.015 C 
ATOM     30  C   UNL     1     -11.271  -5.406  -1.530  0.00  0.00    +0.015 C 
ATOM     31  C   UNL     1      -9.601  -7.263  -1.567  0.00  0.00    +0.015 C 
ENDBRANCH  27  28
ENDBRANCH  20  22
ENDBRANCH  17  18
ENDBRANCH   1  17
TORSDOF 7
