REMARK  Name = ZINC07185774
REMARK  5 active torsions:
REMARK  status: ('A' for Active; 'I' for Inactive)
REMARK    1  A    between atoms: C_1  and  C_2
REMARK    2  A    between atoms: C_2  and  C_4
REMARK    3  A    between atoms: C_2  and  N_9
REMARK    4  A    between atoms: C_10  and  C_12
REMARK    5  A    between atoms: C_12  and  N_13
REMARK                            x       y       z     vdW  Elec       q    Type
REMARK                         _______ _______ _______ _____ _____    ______ ____
ROOT
ATOM      1  N   UNL     1       0.347   1.978   3.223  0.00  0.00    -0.215 N 
ATOM      2  C   UNL     1      -0.135   0.952   2.493  0.00  0.00    +0.251 C 
ATOM      3  O   UNL     1      -0.096  -0.228   2.770  0.00  0.00    -0.272 OA
ATOM      4  C   UNL     1      -0.734   1.581   1.255  0.00  0.00    +0.138 C 
ATOM      5  C   UNL     1      -0.013   1.086   0.008  0.00  0.00    +0.040 C 
ATOM      6  C   UNL     1      -0.763   1.598  -1.228  0.00  0.00    +0.008 C 
ATOM      7  C   UNL     1      -2.107   0.877  -1.311  0.00  0.00    +0.035 C 
ATOM      8  C   UNL     1      -2.844   0.972  -0.001  0.00  0.00    -0.042 A 
ATOM      9  C   UNL     1      -2.212   1.294   1.181  0.00  0.00    -0.012 A 
ATOM     10  C   UNL     1      -2.948   1.361   2.357  0.00  0.00    +0.006 A 
ATOM     11  C   UNL     1      -4.305   1.111   2.350  0.00  0.00    +0.000 A 
ATOM     12  C   UNL     1      -4.939   0.791   1.164  0.00  0.00    +0.000 A 
ATOM     13  C   UNL     1      -4.209   0.722  -0.005  0.00  0.00    +0.004 A 
ATOM     14  N   UNL     1      -0.504   3.021   1.442  0.00  0.00    -0.281 N 
ATOM     15  C   UNL     1       0.135   3.155   2.620  0.00  0.00    +0.310 C 
ATOM     16  O   UNL     1       0.480   4.224   3.084  0.00  0.00    -0.252 OA
ATOM     17  H   UNL     1      -0.761   3.733   0.837  0.00  0.00    +0.152 HD
ENDROOT
BRANCH   1  18
ATOM     18  C   UNL     1       1.020   1.825   4.515  0.00  0.00    +0.213 C 
BRANCH  18  20
ATOM     19  N   UNL     1       0.393   1.768   6.907  0.00  0.00    -0.304 N 
ATOM     20  C   UNL     1       0.001   1.887   5.623  0.00  0.00    +0.232 C 
ATOM     21  O   UNL     1      -1.173   2.043   5.359  0.00  0.00    -0.274 OA
ATOM     22  H   UNL     1       1.331   1.642   7.118  0.00  0.00    +0.149 HD
BRANCH  19  24
ATOM     23  C   UNL     1      -1.208   0.440   8.194  0.00  0.00    +0.036 C 
ATOM     24  C   UNL     1      -0.599   1.828   7.984  0.00  0.00    +0.136 C 
BRANCH  24  25
ATOM     25  C   UNL     1       0.069   2.282   9.256  0.00  0.00    +0.125 A 
ATOM     26  C   UNL     1      -0.450   3.138  10.155  0.00  0.00    +0.046 A 
ATOM     27  C   UNL     1       0.506   3.278  11.187  0.00  0.00    +0.041 A 
ATOM     28  C   UNL     1       1.556   2.506  10.853  0.00  0.00    +0.195 A 
ATOM     29  O   UNL     1       1.286   1.905   9.683  0.00  0.00    -0.466 OA
ENDBRANCH  24  25
ENDBRANCH  19  24
ENDBRANCH  18  20
ENDBRANCH   1  18
TORSDOF 4
