REMARK  Name = ZINC13940606
REMARK  14 active torsions:
REMARK  status: ('A' for Active; 'I' for Inactive)
REMARK    1  A    between atoms: C_1  and  C_2
REMARK    2  A    between atoms: C_7  and  O_8
REMARK    3  A    between atoms: O_8  and  C_9
REMARK    4  A    between atoms: C_9  and  C_10
REMARK    5  A    between atoms: C_10  and  O_11
REMARK    6  A    between atoms: O_11  and  C_12
REMARK    7  A    between atoms: C_13  and  O_35
REMARK    8  A    between atoms: C_15  and  C_20
REMARK    9  A    between atoms: C_17  and  O_18
REMARK   10  A    between atoms: O_18  and  C_19
REMARK   11  A    between atoms: C_30  and  C_32
REMARK   12  A    between atoms: C_32  and  C_33
REMARK   13  A    between atoms: C_32  and  C_34
REMARK   14  A    between atoms: O_35  and  C_36
REMARK                            x       y       z     vdW  Elec       q    Type
REMARK                         _______ _______ _______ _____ _____    ______ ____
ROOT
ATOM      1  C   UNL     1      -0.564   1.526   5.994  0.00  0.00    +0.204 A 
ATOM      2  C   UNL     1      -1.560   1.315   6.946  0.00  0.00    +0.166 A 
ATOM      3  C   UNL     1      -1.849   2.295   7.875  0.00  0.00    +0.057 A 
ATOM      4  C   UNL     1      -1.138   3.504   7.859  0.00  0.00    -0.017 A 
ATOM      5  C   UNL     1      -0.137   3.711   6.899  0.00  0.00    +0.057 A 
ATOM      6  C   UNL     1       0.149   2.723   5.978  0.00  0.00    +0.166 A 
ENDROOT
BRANCH   4   7
ATOM      7  C   UNL     1      -1.442   4.547   8.841  0.00  0.00    +0.024 C 
ATOM      8  C   UNL     1      -1.367   5.874   8.481  0.00  0.00    +0.081 C 
ATOM      9  C   UNL     1      -1.167   6.294   7.065  0.00  0.00    +0.152 C 
ATOM     10  N   UNL     1      -1.642   5.629   6.046  0.00  0.00    -0.283 NA
ATOM     11  N   UNL     1      -0.415   7.481   6.934  0.00  0.00    -0.152 N 
ATOM     12  C   UNL     1      -0.389   8.340   8.011  0.00  0.00    +0.181 C 
ATOM     13  N   UNL     1      -0.907   8.149   9.198  0.00  0.00    -0.152 NA
ATOM     14  C   UNL     1      -1.487   6.964   9.482  0.00  0.00    +0.273 C 
ATOM     15  O   UNL     1      -2.089   6.791  10.530  0.00  0.00    -0.268 OA
ATOM     16  S   UNL     1       0.529   9.715   7.367  0.00  0.00    -0.038 S 
ATOM     17  C   UNL     1       0.898   9.019   5.763  0.00  0.00    +0.102 C 
ATOM     18  N   UNL     1       0.291   7.867   5.815  0.00  0.00    -0.169 NA
ATOM     19  H   UNL     1      -1.426   5.907   5.142  0.00  0.00    +0.188 HD
BRANCH  17  20
ATOM     20  C   UNL     1       1.705   9.613   4.637  0.00  0.00    +0.040 C 
ATOM     21  C   UNL     1       3.189   9.313   4.860  0.00  0.00    +0.014 C 
ATOM     22  C   UNL     1       1.255   9.000   3.309  0.00  0.00    +0.014 C 
ENDBRANCH  17  20
ENDBRANCH   4   7
BRANCH   6  23
ATOM     23  O   UNL     1       1.123   2.921   5.051  0.00  0.00    -0.491 OA
ATOM     24  C   UNL     1       1.883   4.127   5.155  0.00  0.00    +0.277 C 
ENDBRANCH   6  23
BRANCH   2  25
ATOM     25  O   UNL     1      -2.248   0.142   6.961  0.00  0.00    -0.491 OA
ATOM     26  C   UNL     1      -3.255  -0.007   7.964  0.00  0.00    +0.277 C 
ENDBRANCH   2  25
BRANCH   1  27
ATOM     27  O   UNL     1      -0.283   0.558   5.082  0.00  0.00    -0.482 OA
BRANCH  27  28
ATOM     28  C   UNL     1       0.710  -0.404   5.442  0.00  0.00    +0.270 C 
BRANCH  28  29
ATOM     29  C   UNL     1       0.888  -1.405   4.299  0.00  0.00    +0.270 C 
BRANCH  29  30
ATOM     30  O   UNL     1       1.412  -0.731   3.154  0.00  0.00    -0.488 OA
BRANCH  30  37
ATOM     31  C   UNL     1       2.448   0.582   0.877  0.00  0.00    +0.047 C 
ATOM     32  C   UNL     1       2.139  -0.893   0.894  0.00  0.00    -0.009 A 
ATOM     33  C   UNL     1       2.366  -1.661  -0.232  0.00  0.00    +0.007 A 
ATOM     34  C   UNL     1       2.082  -3.013  -0.217  0.00  0.00    +0.000 A 
ATOM     35  C   UNL     1       1.571  -3.602   0.924  0.00  0.00    +0.004 A 
ATOM     36  C   UNL     1       1.342  -2.840   2.053  0.00  0.00    +0.046 A 
ATOM     37  C   UNL     1       1.631  -1.483   2.042  0.00  0.00    +0.124 A 
ENDBRANCH  30  37
ENDBRANCH  29  30
ENDBRANCH  28  29
ENDBRANCH  27  28
ENDBRANCH   1  27
TORSDOF 9
