REMARK  Name = ZINC52840907
REMARK  8 active torsions:
REMARK  status: ('A' for Active; 'I' for Inactive)
REMARK    1  A    between atoms: C_1  and  C_2
REMARK    2  A    between atoms: C_2  and  C_4
REMARK    3  A    between atoms: C_2  and  N_9
REMARK    4  A    between atoms: N_6  and  C_7
REMARK    5  A    between atoms: N_6  and  C_8
REMARK    6  A    between atoms: N_9  and  C_10
REMARK    7  A    between atoms: C_13  and  N_17
REMARK    8  A    between atoms: C_15  and  N_16
REMARK                            x       y       z     vdW  Elec       q    Type
REMARK                         _______ _______ _______ _____ _____    ______ ____
ROOT
ATOM      1  C   UNL     1      -1.947  -0.698   1.394  0.00  0.00    +0.049 A 
ATOM      2  C   UNL     1      -1.226  -0.380   2.535  0.00  0.00    +0.027 A 
ATOM      3  C   UNL     1      -1.798  -0.544   3.783  0.00  0.00    +0.034 A 
ATOM      4  C   UNL     1      -3.089  -1.025   3.898  0.00  0.00    +0.128 A 
ATOM      5  C   UNL     1      -3.816  -1.345   2.766  0.00  0.00    +0.057 A 
ATOM      6  C   UNL     1      -3.252  -1.178   1.510  0.00  0.00    +0.048 A 
ENDROOT
BRANCH   6   7
ATOM      7  N   UNL     1      -3.988  -1.496   0.362  0.00  0.00    -0.356 N 
ATOM      8  H   UNL     1      -3.591  -1.382  -0.516  0.00  0.00    +0.142 HD
ATOM      9  H   UNL     1      -4.895  -1.829   0.444  0.00  0.00    +0.142 HD
ENDBRANCH   6   7
BRANCH   4  10
ATOM     10  N   UNL     1      -3.695  -1.199   5.237  0.00  0.00    +0.056 N 
ATOM     11  O   UNL     1      -3.061  -0.920   6.228  0.00  0.00    -0.126 OA
ATOM     12  O   UNL     1      -4.824  -1.619   5.340  0.00  0.00    -0.126 OA
ENDBRANCH   4  10
BRANCH   1  13
ATOM     13  N   UNL     1      -1.370  -0.533   0.129  0.00  0.00    -0.332 N 
ATOM     14  H   UNL     1      -1.877  -0.752  -0.668  0.00  0.00    +0.147 HD
BRANCH  13  16
ATOM     15  C   UNL     1      -0.015   1.501   0.041  0.00  0.00    +0.038 C 
ATOM     16  C   UNL     1       0.000  -0.029   0.010  0.00  0.00    +0.154 C 
BRANCH  16  17
ATOM     17  C   UNL     1       0.597  -0.498  -1.292  0.00  0.00    +0.235 C 
ATOM     18  O   UNL     1      -0.127  -0.784  -2.223  0.00  0.00    -0.274 OA
ATOM     19  N   UNL     1       1.934  -0.601  -1.423  0.00  0.00    -0.306 N 
ATOM     20  C   UNL     1       2.518  -0.961  -2.717  0.00  0.00    +0.131 C 
ATOM     21  C   UNL     1       2.804  -0.353  -0.270  0.00  0.00    +0.131 C 
ENDBRANCH  16  17
ENDBRANCH  13  16
ENDBRANCH   1  13
TORSDOF 5
