REMARK  Name = ZINC63751761
REMARK  8 active torsions:
REMARK  status: ('A' for Active; 'I' for Inactive)
REMARK    1  A    between atoms: C_1  and  C_2
REMARK    2  A    between atoms: C_7  and  O_8
REMARK    3  A    between atoms: O_8  and  C_9
REMARK    4  A    between atoms: C_9  and  C_10
REMARK    5  A    between atoms: N_12  and  C_13
REMARK    6  A    between atoms: C_16  and  S_19
REMARK    7  A    between atoms: S_19  and  C_20
REMARK    8  A    between atoms: C_20  and  C_21
REMARK                            x       y       z     vdW  Elec       q    Type
REMARK                         _______ _______ _______ _____ _____    ______ ____
ROOT
ATOM      1  C   UNL     1      -0.026   0.453   7.099  0.00  0.00    +0.034 A 
ATOM      2  C   UNL     1      -0.147   1.817   6.870  0.00  0.00    +0.024 A 
ATOM      3  C   UNL     1      -0.238   2.690   7.935  0.00  0.00    +0.016 A 
ATOM      4  C   UNL     1      -0.207   2.204   9.236  0.00  0.00    +0.008 A 
ATOM      5  C   UNL     1      -0.086   0.839   9.465  0.00  0.00    +0.016 A 
ATOM      6  C   UNL     1      -0.001  -0.034   8.399  0.00  0.00    +0.024 A 
ENDROOT
BRANCH   1   9
ATOM      7  C   UNL     1      -0.502  -1.653   6.095  0.00  0.00    +0.255 C 
ATOM      8  O   UNL     1      -1.020  -2.016   7.130  0.00  0.00    -0.272 OA
ATOM      9  N   UNL     1       0.066  -0.433   6.017  0.00  0.00    -0.283 N 
ATOM     10  H   UNL     1       0.539  -0.169   5.212  0.00  0.00    +0.155 HD
BRANCH   7  11
ATOM     11  C   UNL     1      -0.494  -2.566   4.896  0.00  0.00    +0.324 C 
BRANCH  11  12
ATOM     12  O   UNL     1      -1.152  -3.791   5.225  0.00  0.00    -0.483 OA
BRANCH  12  19
ATOM     13  C   UNL     1      -2.448  -6.221   5.857  0.00  0.00    +0.047 C 
ATOM     14  C   UNL     1      -1.857  -5.944   4.498  0.00  0.00    -0.009 A 
ATOM     15  C   UNL     1      -1.942  -6.895   3.500  0.00  0.00    +0.007 A 
ATOM     16  C   UNL     1      -1.400  -6.642   2.254  0.00  0.00    +0.000 A 
ATOM     17  C   UNL     1      -0.772  -5.436   2.003  0.00  0.00    +0.004 A 
ATOM     18  C   UNL     1      -0.684  -4.481   2.997  0.00  0.00    +0.046 A 
ATOM     19  C   UNL     1      -1.232  -4.731   4.247  0.00  0.00    +0.124 A 
ENDBRANCH  12  19
ENDBRANCH  11  12
ENDBRANCH   7  11
ENDBRANCH   1   9
BRANCH   4  20
ATOM     20  S   UNL     1      -0.322   3.318  10.597  0.00  0.00    -0.123 S 
BRANCH  20  21
ATOM     21  C   UNL     1      -0.240   2.241  12.054  0.00  0.00    +0.108 C 
BRANCH  21  22
ATOM     22  C   UNL     1      -0.330   3.092  13.323  0.00  0.00    +0.176 C 
ATOM     23  C   UNL     1      -0.033   2.194  14.502  0.00  0.00    +0.240 C 
ATOM     24  O   UNL     1       1.020   1.592  14.567  0.00  0.00    -0.273 OA
ATOM     25  N   UNL     1      -0.943   2.072  15.471  0.00  0.00    -0.282 N 
ATOM     26  C   UNL     1      -2.096   2.717  15.424  0.00  0.00    +0.057 A 
ATOM     27  C   UNL     1      -3.038   2.565  16.466  0.00  0.00    +0.025 A 
ATOM     28  C   UNL     1      -4.220   3.223  16.424  0.00  0.00    +0.002 A 
ATOM     29  C   UNL     1      -4.577   4.075  15.366  0.00  0.00    +0.002 A 
ATOM     30  C   UNL     1      -3.752   4.291  14.319  0.00  0.00    +0.027 A 
ATOM     31  C   UNL     1      -2.446   3.612  14.292  0.00  0.00    +0.057 A 
ATOM     32  N   UNL     1      -1.623   3.794  13.301  0.00  0.00    -0.372 N 
ATOM     33  H   UNL     1      -1.857   4.381  12.564  0.00  0.00    +0.160 HD
ATOM     34  H   UNL     1      -0.753   1.496  16.228  0.00  0.00    +0.155 HD
ENDBRANCH  21  22
ENDBRANCH  20  21
ENDBRANCH   4  20
TORSDOF 7
