REMARK  Name = ZINC31783243
REMARK  8 active torsions:
REMARK  status: ('A' for Active; 'I' for Inactive)
REMARK    1  A    between atoms: C_1  and  C_2
REMARK    2  A    between atoms: N_13  and  C_16
REMARK    3  A    between atoms: C_16  and  C_18
REMARK    4  A    between atoms: C_16  and  C_19
REMARK    5  A    between atoms: N_21  and  N_22
REMARK    6  A    between atoms: C_23  and  C_24
REMARK    7  A    between atoms: C_28  and  O_30
REMARK    8  A    between atoms: O_30  and  C_31
REMARK                            x       y       z     vdW  Elec       q    Type
REMARK                         _______ _______ _______ _____ _____    ______ ____
ROOT
ATOM      1  C   UNL     1      -4.874   5.111  -0.225  0.00  0.00    +0.176 C 
ATOM      2  C   UNL     1      -4.849   4.058  -1.335  0.00  0.00    +0.041 C 
ENDROOT
BRANCH   1  14
ATOM      3  C   UNL     1     -12.707   8.309   3.432  0.00  0.00    +0.008 C 
ATOM      4  C   UNL     1     -11.637   7.712   2.515  0.00  0.00    -0.009 C 
ATOM      5  C   UNL     1     -10.353   7.471   3.314  0.00  0.00    +0.008 C 
ATOM      6  C   UNL     1      -9.369   6.649   2.480  0.00  0.00    +0.037 C 
ATOM      7  C   UNL     1      -9.184   7.330   1.126  0.00  0.00    -0.023 A 
ATOM      8  C   UNL     1     -10.083   8.231   0.679  0.00  0.00    -0.004 A 
ATOM      9  S   UNL     1      -9.469   8.747  -0.902  0.00  0.00    -0.073 S 
ATOM     10  C   UNL     1      -8.003   7.749  -0.956  0.00  0.00    +0.116 A 
ATOM     11  C   UNL     1      -8.041   7.046   0.259  0.00  0.00    +0.076 A 
ATOM     12  C   UNL     1      -6.955   6.139   0.486  0.00  0.00    +0.263 A 
ATOM     13  O   UNL     1      -6.901   5.480   1.510  0.00  0.00    -0.267 OA
ATOM     14  N   UNL     1      -5.992   6.031  -0.449  0.00  0.00    -0.287 N 
ATOM     15  C   UNL     1      -6.038   6.753  -1.598  0.00  0.00    +0.204 A 
ATOM     16  N   UNL     1      -7.018   7.584  -1.835  0.00  0.00    -0.230 NA
ATOM     17  C   UNL     1     -11.329   8.691   1.372  0.00  0.00    +0.046 C 
ENDBRANCH   1  14
BRANCH   1  18
ATOM     18  C   UNL     1      -3.579   5.881  -0.234  0.00  0.00    +0.255 C 
ATOM     19  O   UNL     1      -3.589   7.081  -0.410  0.00  0.00    -0.272 OA
ATOM     20  N   UNL     1      -2.411   5.237  -0.045  0.00  0.00    -0.205 N 
ATOM     21  H   UNL     1      -2.402   4.149   0.115  0.00  0.00    +0.177 HD
BRANCH  20  22
ATOM     22  N   UNL     1      -1.207   5.954  -0.054  0.00  0.00    -0.188 NA
ATOM     23  C   UNL     1      -0.075   5.322   0.001  0.00  0.00    +0.138 C 
BRANCH  23  24
ATOM     24  C   UNL     1       0.017   3.932  -0.485  0.00  0.00    -0.002 A 
ATOM     25  C   UNL     1      -1.003   3.395  -1.274  0.00  0.00    +0.010 A 
ATOM     26  C   UNL     1      -0.910   2.097  -1.731  0.00  0.00    +0.004 A 
ATOM     27  C   UNL     1       0.185   1.320  -1.401  0.00  0.00    +0.045 A 
ATOM     28  C   UNL     1       1.204   1.844  -0.617  0.00  0.00    +0.121 A 
ATOM     29  C   UNL     1       1.125   3.148  -0.158  0.00  0.00    +0.055 A 
BRANCH  28  30
ATOM     30  O   UNL     1       2.281   1.077  -0.301  0.00  0.00    -0.495 OA
ATOM     31  C   UNL     1       2.298  -0.258  -0.809  0.00  0.00    +0.277 C 
ENDBRANCH  28  30
ENDBRANCH  23  24
ENDBRANCH  20  22
ENDBRANCH   1  18
TORSDOF 5
