REMARK  Name = ZINC67288992
REMARK  9 active torsions:
REMARK  status: ('A' for Active; 'I' for Inactive)
REMARK    1  A    between atoms: C_1  and  C_2
REMARK    2  A    between atoms: C_5  and  O_32
REMARK    3  A    between atoms: C_6  and  N_8
REMARK    4  A    between atoms: C_9  and  C_11
REMARK    5  A    between atoms: C_11  and  N_12
REMARK    6  A    between atoms: C_15  and  C_20
REMARK    7  A    between atoms: C_23  and  S_26
REMARK    8  A    between atoms: S_26  and  C_27
REMARK    9  A    between atoms: O_32  and  C_33
REMARK                            x       y       z     vdW  Elec       q    Type
REMARK                         _______ _______ _______ _____ _____    ______ ____
ROOT
ATOM      1  N   UNL     1       0.369  -1.951   5.978  0.00  0.00    -0.247 N 
ATOM      2  C   UNL     1       1.605  -1.515   6.356  0.00  0.00    +0.065 C 
ATOM      3  C   UNL     1       1.757  -0.645   7.378  0.00  0.00    +0.082 C 
ATOM      4  C   UNL     1       0.509  -0.170   8.092  0.00  0.00    +0.144 C 
ATOM      5  N   UNL     1      -0.777  -0.700   7.608  0.00  0.00    -0.288 N 
ATOM      6  C   UNL     1      -0.767  -1.559   6.569  0.00  0.00    +0.307 C 
ATOM      7  O   UNL     1      -1.825  -1.998   6.160  0.00  0.00    -0.252 OA
ATOM      8  C   UNL     1       3.123  -0.361   7.560  0.00  0.00    +0.339 C 
ATOM      9  O   UNL     1       3.564   0.391   8.409  0.00  0.00    -0.245 OA
ATOM     10  O   UNL     1       3.876  -1.033   6.669  0.00  0.00    -0.455 OA
ATOM     11  C   UNL     1       2.997  -1.808   5.845  0.00  0.00    +0.284 C 
ATOM     12  H   UNL     1      -1.612  -0.434   8.024  0.00  0.00    +0.151 HD
ENDROOT
BRANCH   4  13
ATOM     13  C   UNL     1       0.641  -0.530   9.549  0.00  0.00    -0.022 A 
ATOM     14  C   UNL     1       0.376  -1.822   9.967  0.00  0.00    +0.007 A 
ATOM     15  C   UNL     1       0.496  -2.156  11.301  0.00  0.00    +0.015 A 
ATOM     16  C   UNL     1       0.883  -1.192  12.225  0.00  0.00    +0.008 A 
ATOM     17  C   UNL     1       1.149   0.104  11.801  0.00  0.00    +0.015 A 
ATOM     18  C   UNL     1       1.032   0.430  10.464  0.00  0.00    +0.007 A 
BRANCH  16  19
ATOM     19  S   UNL     1       1.036  -1.613  13.929  0.00  0.00    -0.129 S 
ATOM     20  C   UNL     1       1.553  -0.064  14.719  0.00  0.00    +0.090 C 
ENDBRANCH  16  19
ENDBRANCH   4  13
BRANCH   1  21
ATOM     21  C   UNL     1       0.279  -2.894   4.860  0.00  0.00    +0.211 C 
BRANCH  21  23
ATOM     22  N   UNL     1       0.050  -2.795   2.399  0.00  0.00    -0.281 N 
ATOM     23  C   UNL     1       0.149  -2.130   3.568  0.00  0.00    +0.235 C 
ATOM     24  O   UNL     1       0.134  -0.917   3.579  0.00  0.00    -0.274 OA
ATOM     25  H   UNL     1      -0.002  -3.763   2.395  0.00  0.00    +0.155 HD
BRANCH  22  31
ATOM     26  C   UNL     1      -1.307   1.189  -0.143  0.00  0.00    +0.044 C 
ATOM     27  C   UNL     1      -0.627  -0.153  -0.071  0.00  0.00    -0.048 A 
ATOM     28  C   UNL     1      -0.029  -0.685  -1.199  0.00  0.00    +0.007 A 
ATOM     29  C   UNL     1       0.596  -1.917  -1.139  0.00  0.00    +0.048 A 
ATOM     30  C   UNL     1       0.625  -2.622   0.054  0.00  0.00    +0.141 A 
ATOM     31  C   UNL     1       0.024  -2.086   1.191  0.00  0.00    +0.076 A 
ATOM     32  C   UNL     1      -0.597  -0.847   1.124  0.00  0.00    +0.030 A 
BRANCH  30  33
ATOM     33  O   UNL     1       1.239  -3.834   0.115  0.00  0.00    -0.493 OA
ATOM     34  C   UNL     1       1.834  -4.321  -1.090  0.00  0.00    +0.277 C 
ENDBRANCH  30  33
ENDBRANCH  22  31
ENDBRANCH  21  23
ENDBRANCH   1  21
TORSDOF 6
