REMARK  Name = ZINC05341836
REMARK  6 active torsions:
REMARK  status: ('A' for Active; 'I' for Inactive)
REMARK    1  A    between atoms: C_1  and  C_2
REMARK    2  A    between atoms: C_2  and  C_3
REMARK    3  A    between atoms: N_8  and  C_9
REMARK    4  A    between atoms: C_11  and  C_21
REMARK    5  A    between atoms: C_12  and  C_19
REMARK    6  A    between atoms: N_15  and  C_18
REMARK                            x       y       z     vdW  Elec       q    Type
REMARK                         _______ _______ _______ _____ _____    ______ ____
ROOT
ATOM      1  C   UNL     1       2.966  -2.144   5.316  0.00  0.00    +0.087 C 
ATOM      2  C   UNL     1       3.924  -2.677   6.172  0.00  0.00    +0.055 C 
ATOM      3  C   UNL     1       3.558  -3.140   7.456  0.00  0.00    -0.015 C 
ATOM      4  C   UNL     1       4.541  -3.665   8.281  0.00  0.00    +0.118 C 
ATOM      5  C   UNL     1       5.925  -3.728   7.808  0.00  0.00    +0.263 C 
ATOM      6  O   UNL     1       6.788  -4.189   8.532  0.00  0.00    -0.269 OA
ATOM      7  N   UNL     1       6.254  -3.283   6.583  0.00  0.00    -0.237 N 
ATOM      8  C   UNL     1       5.329  -2.772   5.751  0.00  0.00    +0.254 C 
ATOM      9  O   UNL     1       5.657  -2.381   4.646  0.00  0.00    -0.270 OA
ATOM     10  C   UNL     1       7.649  -3.361   6.142  0.00  0.00    +0.142 C 
ATOM     11  C   UNL     1       2.126  -3.064   7.919  0.00  0.00    +0.046 C 
ENDROOT
BRANCH   1  17
ATOM     12  C   UNL     1       0.823  -0.205   1.305  0.00  0.00    +0.103 A 
ATOM     13  N   UNL     1       0.323  -0.725   2.410  0.00  0.00    -0.145 NA
ATOM     14  N   UNL     1       1.058  -1.174   3.332  0.00  0.00    -0.126 NA
ATOM     15  C   UNL     1       2.381  -1.150   3.247  0.00  0.00    +0.185 A 
ATOM     16  S   UNL     1       2.572  -0.393   1.635  0.00  0.00    -0.035 S 
ATOM     17  N   UNL     1       3.342  -1.591   4.146  0.00  0.00    -0.298 N 
ATOM     18  H   UNL     1       4.284  -1.500   3.933  0.00  0.00    +0.154 HD
BRANCH  12  20
ATOM     19  C   UNL     1      -0.093   1.877   0.316  0.00  0.00    +0.011 C 
ATOM     20  C   UNL     1       0.120   0.376   0.105  0.00  0.00    +0.061 C 
ENDBRANCH  12  20
ENDBRANCH   1  17
BRANCH   4  21
ATOM     21  C   UNL     1       4.205  -4.143   9.589  0.00  0.00    +0.105 C 
ATOM     22  N   UNL     1       3.938  -4.522  10.626  0.00  0.00    -0.191 NA
ENDBRANCH   4  21
TORSDOF 3
