REMARK  Name = ZINC00931050
REMARK  9 active torsions:
REMARK  status: ('A' for Active; 'I' for Inactive)
REMARK    1  A    between atoms: C_1  and  O_2
REMARK    2  A    between atoms: O_2  and  C_3
REMARK    3  A    between atoms: C_3  and  C_5
REMARK    4  A    between atoms: C_8  and  N_11
REMARK    5  A    between atoms: N_11  and  C_12
REMARK    6  A    between atoms: C_12  and  C_14
REMARK    7  A    between atoms: C_12  and  C_19
REMARK    8  A    between atoms: N_21  and  C_22
REMARK    9  A    between atoms: C_28  and  C_30
REMARK                            x       y       z     vdW  Elec       q    Type
REMARK                         _______ _______ _______ _____ _____    ______ ____
ROOT
ATOM      1  N   UNL     1      -0.708   1.173   1.242  0.00  0.00    -0.249 N 
ATOM      2  C   UNL     1      -0.871   2.349   1.881  0.00  0.00    +0.265 C 
ATOM      3  O   UNL     1      -1.315   2.370   3.009  0.00  0.00    -0.271 OA
ENDROOT
BRANCH   2   4
ATOM      4  C   UNL     1      -0.501   3.638   1.193  0.00  0.00    +0.296 C 
ATOM      5  C   UNL     1       1.027   3.776   1.139  0.00  0.00    +0.283 C 
ATOM      6  O   UNL     1       1.343   5.014   0.493  0.00  0.00    -0.484 OA
ATOM      7  C   UNL     1       0.646   6.111   0.898  0.00  0.00    +0.162 A 
ATOM      8  C   UNL     1       1.126   7.375   0.589  0.00  0.00    +0.049 A 
ATOM      9  C   UNL     1       0.428   8.498   0.990  0.00  0.00    +0.004 A 
ATOM     10  C   UNL     1      -0.751   8.366   1.700  0.00  0.00    +0.004 A 
ATOM     11  C   UNL     1      -1.234   7.109   2.012  0.00  0.00    +0.049 A 
ATOM     12  C   UNL     1      -0.538   5.978   1.613  0.00  0.00    +0.163 A 
ATOM     13  O   UNL     1      -1.026   4.747   1.930  0.00  0.00    -0.472 OA
ENDBRANCH   2   4
BRANCH   1  17
ATOM     14  C   UNL     1      -1.400  -2.405   3.259  0.00  0.00    +0.059 A 
ATOM     15  C   UNL     1      -1.395  -1.195   3.960  0.00  0.00    +0.017 A 
ATOM     16  C   UNL     1      -1.166  -0.015   3.290  0.00  0.00    +0.024 A 
ATOM     17  C   UNL     1      -0.939  -0.024   1.917  0.00  0.00    +0.038 A 
ATOM     18  C   UNL     1      -0.949  -1.226   1.215  0.00  0.00    +0.024 A 
ATOM     19  C   UNL     1      -1.172  -2.411   1.879  0.00  0.00    +0.017 A 
BRANCH  14  20
ATOM     20  C   UNL     1      -1.645  -3.672   3.973  0.00  0.00    +0.339 C 
ATOM     21  O   UNL     1      -1.842  -3.665   5.171  0.00  0.00    -0.245 OA
BRANCH  20  23
ATOM     22  C   UNL     1      -1.897  -6.044   4.063  0.00  0.00    +0.280 C 
ATOM     23  O   UNL     1      -1.649  -4.837   3.295  0.00  0.00    -0.464 OA
ENDBRANCH  20  23
ENDBRANCH  14  20
ENDBRANCH   1  17
BRANCH   1  24
ATOM     24  C   UNL     1      -0.287   1.154  -0.161  0.00  0.00    +0.233 C 
BRANCH  24  25
ATOM     25  C   UNL     1       0.933   0.281  -0.308  0.00  0.00    +0.135 A 
ATOM     26  C   UNL     1       1.977   0.518  -1.122  0.00  0.00    +0.047 A 
ATOM     27  C   UNL     1       2.889  -0.547  -0.940  0.00  0.00    +0.041 A 
ATOM     28  C   UNL     1       2.343  -1.375  -0.032  0.00  0.00    +0.195 A 
ATOM     29  O   UNL     1       1.159  -0.869   0.348  0.00  0.00    -0.465 OA
ENDBRANCH  24  25
BRANCH  24  30
ATOM     30  C   UNL     1      -1.403   0.606  -1.012  0.00  0.00    +0.242 C 
ATOM     31  O   UNL     1      -2.354   0.063  -0.490  0.00  0.00    -0.273 OA
ATOM     32  N   UNL     1      -1.344   0.717  -2.354  0.00  0.00    -0.311 N 
ATOM     33  H   UNL     1      -0.584   1.151  -2.772  0.00  0.00    +0.149 HD
BRANCH  32  34
ATOM     34  C   UNL     1      -2.429   0.184  -3.182  0.00  0.00    +0.073 C 
ATOM     35  C   UNL     1      -2.188  -1.304  -3.442  0.00  0.00    +0.022 C 
ATOM     36  C   UNL     1      -3.321  -1.861  -4.306  0.00  0.00    +0.002 C 
ATOM     37  C   UNL     1      -3.362  -1.110  -5.639  0.00  0.00    +0.000 C 
ATOM     38  C   UNL     1      -3.603   0.378  -5.379  0.00  0.00    +0.002 C 
ATOM     39  C   UNL     1      -2.470   0.935  -4.514  0.00  0.00    +0.022 C 
ENDBRANCH  32  34
ENDBRANCH  24  30
ENDBRANCH   1  24
TORSDOF 8
