REMARK  Name = ZINC43669592
REMARK  5 active torsions:
REMARK  status: ('A' for Active; 'I' for Inactive)
REMARK    1  A    between atoms: C_2  and  C_3
REMARK    2  A    between atoms: C_3  and  N_4
REMARK    3  A    between atoms: N_7  and  C_8
REMARK    4  A    between atoms: C_11  and  S_14
REMARK    5  A    between atoms: S_14  and  N_17
REMARK                            x       y       z     vdW  Elec       q    Type
REMARK                         _______ _______ _______ _____ _____    ______ ____
ROOT
ATOM      1  C   UNL     1       3.691  -4.020   2.536  0.00  0.00    +0.035 A 
ATOM      2  C   UNL     1       4.776  -3.816   1.693  0.00  0.00    +0.025 A 
ATOM      3  C   UNL     1       5.947  -4.520   1.895  0.00  0.00    +0.031 A 
ATOM      4  C   UNL     1       6.040  -5.426   2.935  0.00  0.00    +0.113 A 
ATOM      5  C   UNL     1       4.961  -5.632   3.775  0.00  0.00    +0.031 A 
ATOM      6  C   UNL     1       3.789  -4.927   3.583  0.00  0.00    +0.025 A 
ENDROOT
BRANCH   1  10
ATOM      7  N   UNL     1       0.670  -2.152   3.204  0.00  0.00    -0.296 N 
ATOM      8  C   UNL     1       1.764  -2.917   3.392  0.00  0.00    +0.304 C 
ATOM      9  O   UNL     1       2.084  -3.254   4.515  0.00  0.00    -0.253 OA
ATOM     10  N   UNL     1       2.503  -3.308   2.335  0.00  0.00    -0.269 N 
ATOM     11  H   UNL     1       0.415  -1.883   2.308  0.00  0.00    +0.151 HD
ATOM     12  H   UNL     1       2.211  -3.096   1.434  0.00  0.00    +0.156 HD
BRANCH   7  13
ATOM     13  C   UNL     1      -0.133  -1.727   4.353  0.00  0.00    +0.132 C 
BRANCH  13  15
ATOM     14  C   UNL     1      -2.515  -1.217   4.200  0.00  0.00    +0.005 C 
ATOM     15  C   UNL     1      -1.290  -0.888   3.875  0.00  0.00    -0.016 C 
ENDBRANCH  13  15
ENDBRANCH   7  13
ENDBRANCH   1  10
BRANCH   4  16
ATOM     16  S   UNL     1       7.536  -6.322   3.189  0.00  0.00    +0.100 S 
ATOM     17  O   UNL     1       7.186  -7.506   3.892  0.00  0.00    -0.146 OA
ATOM     18  O   UNL     1       8.210  -6.351   1.938  0.00  0.00    -0.146 OA
BRANCH  16  19
ATOM     19  N   UNL     1       8.477  -5.424   4.213  0.00  0.00    -0.118 NA
ATOM     20  C   UNL     1       9.643  -5.857   4.567  0.00  0.00    +0.117 C 
ATOM     21  C   UNL     1      10.156  -7.194   4.038  0.00  0.00    +0.073 C 
ATOM     22  C   UNL     1      11.293  -6.893   3.086  0.00  0.00    +0.008 C 
ATOM     23  C   UNL     1      12.657  -6.803   3.774  0.00  0.00    +0.002 C 
ATOM     24  C   UNL     1      12.613  -6.028   5.092  0.00  0.00    +0.019 C 
ATOM     25  C   UNL     1      11.775  -4.770   5.016  0.00  0.00    +0.102 C 
ATOM     26  N   UNL     1      10.393  -5.143   5.383  0.00  0.00    -0.331 N 
ATOM     27  H   UNL     1      10.035  -4.858   6.238  0.00  0.00    +0.147 HD
ENDBRANCH  16  19
ENDBRANCH   4  16
TORSDOF 5
