REMARK  Name = ZINC65365573
REMARK  7 active torsions:
REMARK  status: ('A' for Active; 'I' for Inactive)
REMARK    1  A    between atoms: C_1  and  C_2
REMARK    2  A    between atoms: C_7  and  N_8
REMARK    3  A    between atoms: N_11  and  C_12
REMARK    4  A    between atoms: C_12  and  C_13
REMARK    5  A    between atoms: C_13  and  N_14
REMARK    6  A    between atoms: C_22  and  C_27
REMARK    7  A    between atoms: C_24  and  C_26
REMARK                            x       y       z     vdW  Elec       q    Type
REMARK                         _______ _______ _______ _____ _____    ______ ____
ROOT
ATOM      1  C   UNL     1      -0.348   0.223   7.170  0.00  0.00    +0.121 C 
ENDROOT
BRANCH   1   2
ATOM      2  N   UNL     1      -0.437  -0.516   8.432  0.00  0.00    -0.326 N 
ATOM      3  C   UNL     1      -0.539   0.174   9.636  0.00  0.00    +0.141 A 
ATOM      4  C   UNL     1      -0.564   1.569   9.644  0.00  0.00    +0.049 A 
ATOM      5  C   UNL     1      -0.667   2.210  10.866  0.00  0.00    +0.053 A 
ATOM      6  C   UNL     1      -0.741   1.421  12.014  0.00  0.00    +0.176 A 
ATOM      7  N   UNL     1      -0.710   0.104  11.911  0.00  0.00    -0.128 NA
ATOM      8  N   UNL     1      -0.620  -0.492  10.778  0.00  0.00    -0.132 NA
ATOM      9  N   UNL     1      -0.845   2.024  13.273  0.00  0.00    -0.217 N 
ATOM     10  C   UNL     1      -1.380   1.461  14.388  0.00  0.00    +0.044 A 
ATOM     11  C   UNL     1      -1.290   2.368  15.388  0.00  0.00    +0.048 A 
ATOM     12  C   UNL     1      -0.684   3.520  14.873  0.00  0.00    +0.061 A 
ATOM     13  N   UNL     1      -0.412   3.313  13.610  0.00  0.00    -0.170 NA
ATOM     14  C   UNL     1      -0.389   4.781  15.644  0.00  0.00    +0.067 C 
ATOM     15  C   UNL     1      -1.967   0.077  14.491  0.00  0.00    +0.066 C 
ATOM     16  H   UNL     1      -0.424  -1.486   8.428  0.00  0.00    +0.148 HD
ENDBRANCH   1   2
BRANCH   1  17
ATOM     17  C   UNL     1      -0.245  -0.765   6.006  0.00  0.00    +0.124 C 
BRANCH  17  21
ATOM     18  N   UNL     1       0.025  -0.015   2.417  0.00  0.00    -0.269 N 
ATOM     19  C   UNL     1      -0.056  -0.694   3.578  0.00  0.00    +0.304 C 
ATOM     20  O   UNL     1      -0.040  -1.910   3.573  0.00  0.00    -0.253 OA
ATOM     21  N   UNL     1      -0.156  -0.026   4.745  0.00  0.00    -0.298 N 
ATOM     22  H   UNL     1       0.078   0.954   2.425  0.00  0.00    +0.156 HD
ATOM     23  H   UNL     1      -0.169   0.944   4.748  0.00  0.00    +0.150 HD
BRANCH  18  30
ATOM     24  C   UNL     1      -1.266   1.182   0.182  0.00  0.00    +0.045 C 
ATOM     25  C   UNL     1      -0.585  -0.158   0.085  0.00  0.00    -0.029 A 
ATOM     26  C   UNL     1      -0.570  -0.841  -1.116  0.00  0.00    +0.005 A 
ATOM     27  C   UNL     1       0.055  -2.071  -1.206  0.00  0.00    +0.000 A 
ATOM     28  C   UNL     1       0.667  -2.622  -0.095  0.00  0.00    +0.002 A 
ATOM     29  C   UNL     1       0.655  -1.945   1.108  0.00  0.00    +0.023 A 
ATOM     30  C   UNL     1       0.034  -0.706   1.200  0.00  0.00    +0.038 A 
ENDBRANCH  18  30
ENDBRANCH  17  21
ENDBRANCH   1  17
TORSDOF 4
