REMARK  Name = ZINC60391013
REMARK  16 active torsions:
REMARK  status: ('A' for Active; 'I' for Inactive)
REMARK    1  A    between atoms: C_1  and  C_2
REMARK    2  A    between atoms: C_2  and  N_3
REMARK    3  A    between atoms: N_3  and  C_4
REMARK    4  A    between atoms: N_3  and  C_6
REMARK    5  A    between atoms: C_4  and  C_5
REMARK    6  A    between atoms: C_6  and  C_8
REMARK    7  A    between atoms: C_6  and  C_30
REMARK    8  A    between atoms: C_8  and  N_9
REMARK    9  A    between atoms: C_10  and  C_12
REMARK   10  A    between atoms: C_12  and  C_14
REMARK   11  A    between atoms: C_12  and  N_18
REMARK   12  A    between atoms: C_14  and  C_15
REMARK   13  A    between atoms: C_15  and  S_16
REMARK   14  A    between atoms: S_16  and  C_17
REMARK   15  A    between atoms: C_19  and  C_21
REMARK   16  A    between atoms: C_25  and  N_27
REMARK                            x       y       z     vdW  Elec       q    Type
REMARK                         _______ _______ _______ _____ _____    ______ ____
ROOT
ATOM      1  N   UNL     1       0.148  -2.363  -1.864  0.00  0.00    -0.315 N 
ATOM      2  C   UNL     1       0.686  -3.418  -1.220  0.00  0.00    +0.233 C 
ATOM      3  O   UNL     1       1.635  -3.258  -0.482  0.00  0.00    -0.274 OA
ATOM      4  H   UNL     1      -0.655  -2.478  -2.396  0.00  0.00    +0.149 HD
ENDROOT
BRANCH   1   5
ATOM      5  C   UNL     1       0.775  -1.043  -1.760  0.00  0.00    +0.093 C 
BRANCH   5   6
ATOM      6  C   UNL     1      -0.104  -0.004  -2.459  0.00  0.00    -0.020 C 
BRANCH   6   7
ATOM      7  C   UNL     1       0.480   1.369  -2.250  0.00  0.00    -0.059 A 
ATOM      8  C   UNL     1       1.821   1.512  -1.946  0.00  0.00    +0.002 A 
ATOM      9  C   UNL     1       2.357   2.772  -1.755  0.00  0.00    +0.000 A 
ATOM     10  C   UNL     1       1.551   3.889  -1.868  0.00  0.00    +0.000 A 
ATOM     11  C   UNL     1       0.210   3.747  -2.173  0.00  0.00    +0.000 A 
ATOM     12  C   UNL     1      -0.324   2.487  -2.369  0.00  0.00    +0.002 A 
ENDBRANCH   6   7
BRANCH   6  13
ATOM     13  N   UNL     1      -1.459  -0.051  -1.895  0.00  0.00    +0.385 N 
ATOM     14  H   UNL     1      -1.678  -0.997  -1.622  0.00  0.00    -0.081 HD
BRANCH  13  16
ATOM     15  C   UNL     1      -0.470   0.404   0.298  0.00  0.00    -0.017 C 
ATOM     16  C   UNL     1      -1.531   0.827  -0.720  0.00  0.00    -0.081 C 
ENDBRANCH  13  16
BRANCH  13  17
ATOM     17  C   UNL     1      -2.425   0.403  -2.905  0.00  0.00    -0.081 C 
ATOM     18  C   UNL     1      -2.507  -0.629  -4.032  0.00  0.00    -0.017 C 
ENDBRANCH  13  17
ENDBRANCH   6  13
ENDBRANCH   5   6
ENDBRANCH   1   5
BRANCH   2  19
ATOM     19  C   UNL     1       0.108  -4.795  -1.416  0.00  0.00    +0.160 C 
BRANCH  19  20
ATOM     20  N   UNL     1       0.736  -5.727  -0.476  0.00  0.00    -0.300 N 
ATOM     21  C   UNL     1       0.084  -6.844  -0.097  0.00  0.00    +0.245 C 
ATOM     22  O   UNL     1      -1.026  -7.078  -0.535  0.00  0.00    -0.270 OA
ATOM     23  H   UNL     1       1.621  -5.540  -0.127  0.00  0.00    +0.150 HD
BRANCH  21  24
ATOM     24  C   UNL     1       0.718  -7.784   0.852  0.00  0.00    +0.039 A 
ATOM     25  C   UNL     1       1.990  -7.515   1.361  0.00  0.00    +0.013 A 
ATOM     26  C   UNL     1       2.575  -8.396   2.246  0.00  0.00    +0.003 A 
ATOM     27  C   UNL     1       1.906  -9.545   2.628  0.00  0.00    +0.033 A 
ATOM     28  C   UNL     1       0.645  -9.818   2.127  0.00  0.00    +0.127 A 
ATOM     29  C   UNL     1       0.046  -8.942   1.246  0.00  0.00    +0.045 A 
BRANCH  28  30
ATOM     30  N   UNL     1      -0.064 -11.049   2.542  0.00  0.00    +0.056 N 
ATOM     31  O   UNL     1       0.459 -11.816   3.318  0.00  0.00    -0.126 OA
ATOM     32  O   UNL     1      -1.165 -11.289   2.105  0.00  0.00    -0.126 OA
ENDBRANCH  28  30
ENDBRANCH  21  24
ENDBRANCH  19  20
BRANCH  19  33
ATOM     33  C   UNL     1       0.373  -5.260  -2.849  0.00  0.00    +0.042 C 
BRANCH  33  34
ATOM     34  C   UNL     1      -0.321  -6.604  -3.086  0.00  0.00    +0.071 C 
BRANCH  34  35
ATOM     35  S   UNL     1      -0.006  -7.155  -4.785  0.00  0.00    -0.164 S 
ATOM     36  C   UNL     1      -0.884  -8.738  -4.903  0.00  0.00    +0.084 C 
ENDBRANCH  34  35
ENDBRANCH  33  34
ENDBRANCH  19  33
ENDBRANCH   2  19
TORSDOF 13
