REMARK  Name = ZINC14835349
REMARK  10 active torsions:
REMARK  status: ('A' for Active; 'I' for Inactive)
REMARK    1  A    between atoms: C_1  and  C_2
REMARK    2  A    between atoms: C_2  and  C_4
REMARK    3  A    between atoms: C_2  and  O_19
REMARK    4  A    between atoms: N_6  and  C_7
REMARK    5  A    between atoms: C_11  and  C_13
REMARK    6  A    between atoms: N_15  and  C_16
REMARK    7  A    between atoms: C_16  and  C_17
REMARK    8  A    between atoms: C_16  and  C_18
REMARK    9  A    between atoms: O_19  and  C_20
REMARK   10  A    between atoms: C_23  and  N_26
REMARK                            x       y       z     vdW  Elec       q    Type
REMARK                         _______ _______ _______ _____ _____    ______ ____
ROOT
ATOM      1  C   UNL     1      -1.619  -0.218   2.167  0.00  0.00    +0.258 C 
ATOM      2  O   UNL     1      -2.080  -0.474   3.259  0.00  0.00    -0.271 OA
ATOM      3  N   UNL     1      -2.363  -0.407   1.059  0.00  0.00    -0.282 N 
ATOM      4  H   UNL     1      -1.970  -0.277   0.182  0.00  0.00    +0.155 HD
ENDROOT
BRANCH   3   5
ATOM      5  C   UNL     1      -3.704  -0.792   1.175  0.00  0.00    +0.034 A 
ATOM      6  C   UNL     1      -4.264  -1.651   0.236  0.00  0.00    +0.023 A 
ATOM      7  C   UNL     1      -5.587  -2.034   0.345  0.00  0.00    +0.003 A 
ATOM      8  C   UNL     1      -6.362  -1.565   1.387  0.00  0.00    +0.013 A 
ATOM      9  C   UNL     1      -5.809  -0.702   2.335  0.00  0.00    +0.038 A 
ATOM     10  C   UNL     1      -4.472  -0.321   2.228  0.00  0.00    +0.036 A 
BRANCH   9  11
ATOM     11  C   UNL     1      -6.637  -0.199   3.452  0.00  0.00    +0.244 C 
ATOM     12  O   UNL     1      -6.154   0.552   4.276  0.00  0.00    -0.270 OA
ATOM     13  N   UNL     1      -7.927  -0.573   3.556  0.00  0.00    -0.309 N 
ATOM     14  H   UNL     1      -8.313  -1.173   2.899  0.00  0.00    +0.149 HD
BRANCH  13  15
ATOM     15  C   UNL     1      -8.748  -0.075   4.663  0.00  0.00    +0.067 C 
ATOM     16  C   UNL     1      -9.327   1.292   4.293  0.00  0.00    +0.027 C 
ATOM     17  C   UNL     1      -9.890  -1.056   4.934  0.00  0.00    +0.027 C 
ENDBRANCH  13  15
ENDBRANCH   9  11
ENDBRANCH   3   5
BRANCH   1  19
ATOM     18  C   UNL     1       0.655  -0.706   1.306  0.00  0.00    +0.062 C 
ATOM     19  C   UNL     1      -0.213   0.312   2.048  0.00  0.00    +0.256 C 
BRANCH  19  20
ATOM     20  O   UNL     1       0.324   0.535   3.353  0.00  0.00    -0.480 OA
BRANCH  20  21
ATOM     21  C   UNL     1       1.315   1.458   3.464  0.00  0.00    +0.122 A 
ATOM     22  C   UNL     1       1.832   2.062   2.327  0.00  0.00    +0.048 A 
ATOM     23  C   UNL     1       2.839   3.001   2.442  0.00  0.00    +0.036 A 
ATOM     24  C   UNL     1       3.332   3.338   3.689  0.00  0.00    +0.126 A 
ATOM     25  C   UNL     1       2.819   2.737   4.823  0.00  0.00    +0.036 A 
ATOM     26  C   UNL     1       1.808   1.802   4.714  0.00  0.00    +0.048 A 
BRANCH  24  27
ATOM     27  N   UNL     1       4.411   4.344   3.809  0.00  0.00    +0.056 N 
ATOM     28  O   UNL     1       4.861   4.870   2.817  0.00  0.00    -0.126 OA
ATOM     29  O   UNL     1       4.843   4.640   4.899  0.00  0.00    -0.126 OA
ENDBRANCH  24  27
ENDBRANCH  20  21
ENDBRANCH  19  20
ENDBRANCH   1  19
TORSDOF 7
