REMARK  Name = ZINC13033455
REMARK  14 active torsions:
REMARK  status: ('A' for Active; 'I' for Inactive)
REMARK    1  A    between atoms: C_1  and  C_2
REMARK    2  A    between atoms: C_2  and  O_3
REMARK    3  A    between atoms: O_3  and  C_4
REMARK    4  A    between atoms: C_4  and  C_6
REMARK    5  A    between atoms: C_6  and  N_7
REMARK    6  A    between atoms: C_8  and  C_12
REMARK    7  A    between atoms: C_12  and  N_65
REMARK    8  A    between atoms: C_13  and  C_14
REMARK    9  A    between atoms: C_13  and  N_65
REMARK   10  A    between atoms: C_17  and  C_20
REMARK   11  A    between atoms: C_21  and  C_22
REMARK   12  A    between atoms: C_21  and  N_65
REMARK   13  A    between atoms: C_25  and  C_35
REMARK   14  A    between atoms: C_28  and  C_34
REMARK                            x       y       z     vdW  Elec       q    Type
REMARK                         _______ _______ _______ _____ _____    ______ ____
ROOT
ATOM      1  N   UNL     1       0.366   1.700   1.658  0.00  0.00    +0.390 N 
ATOM      2  H   UNL     1       0.680   2.665   1.815  0.00  0.00    -0.080 HD
ENDROOT
BRANCH   1   3
ATOM      3  C   UNL     1       0.481   1.386   0.219  0.00  0.00    +0.001 C 
BRANCH   3   5
ATOM      4  N   UNL     1      -1.116   2.829  -1.148  0.00  0.00    -0.220 N 
ATOM      5  C   UNL     1       0.080   2.603  -0.574  0.00  0.00    +0.136 A 
ATOM      6  N   UNL     1       0.829   3.645  -0.842  0.00  0.00    -0.115 NA
ATOM      7  N   UNL     1       0.128   4.470  -1.540  0.00  0.00    -0.023 NA
ATOM      8  N   UNL     1      -1.049   3.982  -1.724  0.00  0.00    -0.043 NA
BRANCH   4   9
ATOM      9  C   UNL     1      -2.277   1.936  -1.121  0.00  0.00    +0.267 C 
BRANCH   9  10
ATOM     10  C   UNL     1      -3.263   2.424  -0.091  0.00  0.00    +0.329 C 
ATOM     11  O   UNL     1      -3.036   3.435   0.531  0.00  0.00    -0.249 OA
BRANCH  10  12
ATOM     12  O   UNL     1      -4.392   1.735   0.136  0.00  0.00    -0.464 OA
BRANCH  12  14
ATOM     13  C   UNL     1      -6.518   1.351   1.261  0.00  0.00    +0.048 C 
ATOM     14  C   UNL     1      -5.295   2.264   1.143  0.00  0.00    +0.229 C 
ENDBRANCH  12  14
ENDBRANCH  10  12
ENDBRANCH   9  10
ENDBRANCH   4   9
ENDBRANCH   3   5
ENDBRANCH   1   3
BRANCH   1  15
ATOM     15  C   UNL     1      -1.042   1.576   2.091  0.00  0.00    -0.042 C 
BRANCH  15  16
ATOM     16  C   UNL     1      -1.426   0.125   2.229  0.00  0.00    -0.064 A 
ATOM     17  C   UNL     1      -1.513  -0.676   1.105  0.00  0.00    +0.002 A 
ATOM     18  C   UNL     1      -1.861  -2.007   1.232  0.00  0.00    +0.003 A 
ATOM     19  C   UNL     1      -2.131  -2.536   2.481  0.00  0.00    -0.050 A 
ATOM     20  C   UNL     1      -2.048  -1.734   3.603  0.00  0.00    +0.003 A 
ATOM     21  C   UNL     1      -1.696  -0.403   3.477  0.00  0.00    +0.002 A 
ATOM     22  C   UNL     1      -2.515  -3.987   2.618  0.00  0.00    +0.044 C 
ENDBRANCH  15  16
ENDBRANCH   1  15
BRANCH   1  23
ATOM     23  C   UNL     1       1.219   0.784   2.445  0.00  0.00    -0.036 C 
BRANCH  23  24
ATOM     24  C   UNL     1       1.484   1.408   3.791  0.00  0.00    +0.001 A 
ATOM     25  C   UNL     1       1.355   0.664   4.918  0.00  0.00    +0.017 A 
ATOM     26  C   UNL     1       1.619   1.300   6.209  0.00  0.00    +0.002 A 
ATOM     27  C   UNL     1       1.503   0.585   7.406  0.00  0.00    -0.041 A 
ATOM     28  C   UNL     1       1.756   1.207   8.595  0.00  0.00    +0.004 A 
ATOM     29  C   UNL     1       2.129   2.544   8.627  0.00  0.00    +0.005 A 
ATOM     30  C   UNL     1       2.250   3.269   7.461  0.00  0.00    -0.026 A 
ATOM     31  C   UNL     1       1.996   2.656   6.238  0.00  0.00    +0.052 A 
ATOM     32  N   UNL     1       2.110   3.357   5.056  0.00  0.00    -0.322 N 
ATOM     33  H   UNL     1       2.370   4.291   5.078  0.00  0.00    +0.169 HD
ATOM     34  C   UNL     1       1.871   2.763   3.874  0.00  0.00    +0.251 A 
ATOM     35  O   UNL     1       1.986   3.412   2.849  0.00  0.00    -0.268 OA
ATOM     36  C   UNL     1       2.656   4.719   7.511  0.00  0.00    +0.046 C 
ATOM     37  C   UNL     1       1.099  -0.867   7.382  0.00  0.00    +0.044 C 
ENDBRANCH  23  24
ENDBRANCH   1  23
TORSDOF 10
