REMARK  Name = ZINC45483616
REMARK  8 active torsions:
REMARK  status: ('A' for Active; 'I' for Inactive)
REMARK    1  A    between atoms: C_1  and  C_2
REMARK    2  A    between atoms: C_2  and  C_3
REMARK    3  A    between atoms: C_9  and  C_13
REMARK    4  A    between atoms: C_13  and  O_14
REMARK    5  A    between atoms: O_14  and  C_15
REMARK    6  A    between atoms: C_15  and  C_17
REMARK    7  A    between atoms: C_20  and  C_32
REMARK    8  A    between atoms: N_22  and  C_25
REMARK                            x       y       z     vdW  Elec       q    Type
REMARK                         _______ _______ _______ _____ _____    ______ ____
ROOT
ATOM      1  C   UNL     1      -8.347  -4.554  -1.320  0.00  0.00    +0.346 C 
ATOM      2  O   UNL     1      -9.180  -4.656  -0.439  0.00  0.00    -0.244 OA
ENDROOT
BRANCH   1   3
ATOM      3  C   UNL     1      -8.477  -5.344  -2.545  0.00  0.00    +0.099 A 
ATOM      4  C   UNL     1      -9.452  -6.235  -2.886  0.00  0.00    +0.034 A 
ATOM      5  C   UNL     1      -9.390  -6.894  -4.123  0.00  0.00    +0.031 A 
ATOM      6  C   UNL     1     -10.136  -7.857  -4.879  0.00  0.00    +0.069 A 
ATOM      7  N   UNL     1      -9.534  -8.070  -6.010  0.00  0.00    -0.170 NA
ATOM      8  N   UNL     1      -8.378  -7.281  -6.078  0.00  0.00    -0.224 N 
ATOM      9  C   UNL     1      -8.292  -6.570  -4.936  0.00  0.00    +0.113 A 
ATOM     10  S   UNL     1      -7.403  -5.376  -3.970  0.00  0.00    -0.062 S 
ATOM     11  C   UNL     1     -11.414  -8.518  -4.431  0.00  0.00    +0.068 C 
BRANCH   8  12
ATOM     12  C   UNL     1      -7.470  -7.240  -7.145  0.00  0.00    +0.085 A 
ATOM     13  C   UNL     1      -6.356  -6.413  -7.079  0.00  0.00    +0.029 A 
ATOM     14  C   UNL     1      -5.463  -6.375  -8.132  0.00  0.00    +0.002 A 
ATOM     15  C   UNL     1      -5.678  -7.158  -9.252  0.00  0.00    +0.002 A 
ATOM     16  C   UNL     1      -6.786  -7.981  -9.322  0.00  0.00    +0.022 A 
ATOM     17  C   UNL     1      -7.680  -8.029  -8.269  0.00  0.00    +0.066 A 
ATOM     18 CL   UNL     1      -9.068  -9.069  -8.354  0.00  0.00    -0.081 Cl
ENDBRANCH   8  12
ENDBRANCH   1   3
BRANCH   1  19
ATOM     19  O   UNL     1      -7.304  -3.713  -1.167  0.00  0.00    -0.454 OA
BRANCH  19  20
ATOM     20  C   UNL     1      -7.241  -2.973   0.054  0.00  0.00    +0.288 C 
BRANCH  20  27
ATOM     21  C   UNL     1      -1.412  -0.526   0.013  0.00  0.00    +0.102 A 
ATOM     22  N   UNL     1      -2.527   0.139   0.022  0.00  0.00    -0.159 NA
ATOM     23  N   UNL     1      -3.761  -0.504   0.030  0.00  0.00    -0.171 N 
ATOM     24  C   UNL     1      -4.996   0.078   0.040  0.00  0.00    +0.275 A 
ATOM     25  O   UNL     1      -5.098   1.295   0.041  0.00  0.00    -0.266 OA
ATOM     26  C   UNL     1      -6.140  -0.720   0.047  0.00  0.00    +0.099 A 
ATOM     27  C   UNL     1      -6.017  -2.093   0.045  0.00  0.00    +0.087 A 
ATOM     28  N   UNL     1      -4.799  -2.628   0.036  0.00  0.00    -0.223 NA
ATOM     29  C   UNL     1      -3.730  -1.872   0.029  0.00  0.00    +0.199 A 
ATOM     30  S   UNL     1      -1.984  -2.217   0.009  0.00  0.00    -0.033 S 
BRANCH  21  32
ATOM     31  C   UNL     1      -0.019   1.526   0.010  0.00  0.00    +0.011 C 
ATOM     32  C   UNL     1       0.002  -0.004   0.002  0.00  0.00    +0.061 C 
ENDBRANCH  21  32
ENDBRANCH  20  27
ENDBRANCH  19  20
ENDBRANCH   1  19
TORSDOF 6
