REMARK  Name = ZINC37987084
REMARK  6 active torsions:
REMARK  status: ('A' for Active; 'I' for Inactive)
REMARK    1  A    between atoms: C_1  and  O_2
REMARK    2  A    between atoms: O_2  and  C_3
REMARK    3  A    between atoms: C_6  and  N_12
REMARK    4  A    between atoms: C_7  and  N_9
REMARK    5  A    between atoms: N_12  and  C_13
REMARK    6  A    between atoms: C_13  and  C_14
REMARK                            x       y       z     vdW  Elec       q    Type
REMARK                         _______ _______ _______ _____ _____    ______ ____
ROOT
ATOM      1  C   UNL     1      -1.240  -0.611   0.259  0.00  0.00    +0.122 A 
ATOM      2  C   UNL     1      -2.399   0.102  -0.013  0.00  0.00    +0.047 A 
ATOM      3  C   UNL     1      -3.582  -0.568  -0.254  0.00  0.00    +0.029 A 
ATOM      4  C   UNL     1      -3.612  -1.956  -0.224  0.00  0.00    +0.058 A 
ATOM      5  C   UNL     1      -2.452  -2.669   0.048  0.00  0.00    +0.150 A 
ATOM      6  C   UNL     1      -1.268  -1.997   0.283  0.00  0.00    +0.080 A 
ENDROOT
BRANCH   5   7
ATOM      7  N   UNL     1      -2.482  -4.148   0.080  0.00  0.00    +0.058 N 
ATOM      8  O   UNL     1      -3.441  -4.723   0.541  0.00  0.00    -0.126 OA
ATOM      9  O   UNL     1      -1.549  -4.782  -0.356  0.00  0.00    -0.126 OA
ENDBRANCH   5   7
BRANCH   1  11
ATOM     10  C   UNL     1      -0.119   1.478   0.454  0.00  0.00    +0.277 C 
ATOM     11  O   UNL     1      -0.075   0.050   0.495  0.00  0.00    -0.495 OA
ENDBRANCH   1  11
BRANCH   4  12
ATOM     12  N   UNL     1      -4.810  -2.636  -0.467  0.00  0.00    -0.342 N 
ATOM     13  H   UNL     1      -4.815  -3.603  -0.531  0.00  0.00    +0.146 HD
BRANCH  12  14
ATOM     14  C   UNL     1      -6.059  -1.885  -0.626  0.00  0.00    +0.106 C 
BRANCH  14  15
ATOM     15  C   UNL     1      -7.210  -2.860  -0.881  0.00  0.00    +0.028 C 
ATOM     16  C   UNL     1      -7.014  -3.552  -2.240  0.00  0.00    +0.029 C 
ATOM     17  C   UNL     1      -8.314  -4.286  -2.651  0.00  0.00    +0.166 C 
ATOM     18  S   UNL     1      -9.619  -3.295  -1.816  0.00  0.00    -0.031 S 
ATOM     19  O   UNL     1     -10.284  -4.115  -0.865  0.00  0.00    -0.174 OA
ATOM     20  O   UNL     1     -10.379  -2.608  -2.800  0.00  0.00    -0.174 OA
ATOM     21  C   UNL     1      -8.557  -2.082  -0.923  0.00  0.00    +0.171 C 
ENDBRANCH  14  15
ENDBRANCH  12  14
ENDBRANCH   4  12
TORSDOF 5
