REMARK  Name = ZINC53862793
REMARK  6 active torsions:
REMARK  status: ('A' for Active; 'I' for Inactive)
REMARK    1  A    between atoms: C_1  and  N_2
REMARK    2  A    between atoms: N_2  and  C_3
REMARK    3  A    between atoms: N_2  and  C_14
REMARK    4  A    between atoms: C_3  and  C_4
REMARK    5  A    between atoms: C_11  and  N_13
REMARK    6  A    between atoms: C_17  and  O_20
REMARK                            x       y       z     vdW  Elec       q    Type
REMARK                         _______ _______ _______ _____ _____    ______ ____
ROOT
ATOM      1  C   UNL     1       0.012  -0.851   1.215  0.00  0.00    +0.106 C 
ENDROOT
BRANCH   1   2
ATOM      2  C   UNL     1      -1.424  -1.054   1.705  0.00  0.00    -0.008 C 
ATOM      3  C   UNL     1      -2.179  -1.929   0.687  0.00  0.00    +0.003 C 
ATOM      4  C   UNL     1      -3.466  -2.546   1.267  0.00  0.00    +0.000 C 
ATOM      5  C   UNL     1      -4.240  -1.572   2.114  0.00  0.00    -0.000 C 
ATOM      6  C   UNL     1      -3.825  -1.765   3.586  0.00  0.00    -0.002 C 
ATOM      7  C   UNL     1      -2.566  -1.105   3.899  0.00  0.00    -0.016 C 
ATOM      8  C   UNL     1      -1.387  -1.671   3.077  0.00  0.00    -0.071 C 
BRANCH   8   9
ATOM      9  N   UNL     1      -0.119  -1.333   3.737  0.00  0.00    +0.380 N 
ATOM     10  H   UNL     1      -0.039  -0.331   3.818  0.00  0.00    -0.090 HD
ATOM     11  H   UNL     1      -0.097  -1.748   4.656  0.00  0.00    -0.090 HD
ATOM     12  H   UNL     1       0.650  -1.689   3.189  0.00  0.00    -0.090 HD
ENDBRANCH   8   9
ENDBRANCH   1   2
BRANCH   1  14
ATOM     13  C   UNL     1       0.070  -0.957  -1.319  0.00  0.00    +0.129 C 
ATOM     14  N   UNL     1      -0.006  -0.174  -0.083  0.00  0.00    -0.333 N 
BRANCH  14  15
ATOM     15  C   UNL     1      -0.097   1.221  -0.143  0.00  0.00    +0.030 A 
ATOM     16  C   UNL     1      -0.051   1.972   1.024  0.00  0.00    +0.026 A 
ATOM     17  C   UNL     1      -0.139   3.348   0.964  0.00  0.00    +0.047 A 
ATOM     18  C   UNL     1      -0.274   3.982  -0.262  0.00  0.00    +0.117 A 
ATOM     19  C   UNL     1      -0.321   3.234  -1.429  0.00  0.00    +0.047 A 
ATOM     20  C   UNL     1      -0.227   1.857  -1.371  0.00  0.00    +0.026 A 
BRANCH  18  21
ATOM     21  O   UNL     1      -0.362   5.338  -0.321  0.00  0.00    -0.507 OA
ATOM     22  H   UNL     1       0.492   5.784  -0.407  0.00  0.00    +0.292 HD
ENDBRANCH  18  21
ENDBRANCH  14  15
ENDBRANCH   1  14
TORSDOF 5
