REMARK  Name = ZINC04481933
REMARK  5 active torsions:
REMARK  status: ('A' for Active; 'I' for Inactive)
REMARK    1  A    between atoms: C_1  and  O_2
REMARK    2  A    between atoms: O_2  and  C_3
REMARK    3  A    between atoms: C_6  and  N_22
REMARK    4  A    between atoms: C_8  and  C_9
REMARK    5  A    between atoms: C_12  and  C_14
REMARK                            x       y       z     vdW  Elec       q    Type
REMARK                         _______ _______ _______ _____ _____    ______ ____
ROOT
ATOM      1  C   UNL     1       6.679  -0.395  -0.060  0.00  0.00    +0.139 A 
ATOM      2  C   UNL     1       7.809   0.454  -0.067  0.00  0.00    +0.050 A 
ATOM      3  C   UNL     1       7.358   1.737  -0.056  0.00  0.00    +0.050 A 
ATOM      4  C   UNL     1       5.894   1.659  -0.043  0.00  0.00    +0.130 A 
ATOM      5  O   UNL     1       5.560   0.350  -0.040  0.00  0.00    -0.455 OA
ENDROOT
BRANCH   4   6
ATOM      6  C   UNL     1       5.015   2.731  -0.029  0.00  0.00    +0.066 C 
ATOM      7  C   UNL     1       3.630   2.502  -0.018  0.00  0.00    +0.081 C 
ATOM      8  C   UNL     1       2.515   3.494  -0.003  0.00  0.00    +0.257 C 
ATOM      9  O   UNL     1       2.724   4.690   0.002  0.00  0.00    -0.269 OA
ATOM     10  N   UNL     1       1.287   3.001   0.006  0.00  0.00    -0.261 N 
ATOM     11  C   UNL     1       1.107   1.632   0.000  0.00  0.00    +0.158 C 
ATOM     12  N   UNL     1      -0.011   0.966   0.007  0.00  0.00    -0.279 NA
ATOM     13  S   UNL     1       2.772   0.994  -0.011  0.00  0.00    -0.049 S 
ATOM     14  H   UNL     1       0.520   3.595   0.016  0.00  0.00    +0.157 HD
ATOM     15  H   UNL     1       0.002  -0.004   0.002  0.00  0.00    +0.189 HD
ENDBRANCH   4   6
BRANCH   1  21
ATOM     16  C   UNL     1       5.963  -2.549   0.873  0.00  0.00    +0.131 A 
ATOM     17  C   UNL     1       6.017  -3.934   0.850  0.00  0.00    +0.048 A 
ATOM     18  C   UNL     1       6.803  -4.581  -0.083  0.00  0.00    +0.036 A 
ATOM     19  C   UNL     1       7.546  -3.855  -1.007  0.00  0.00    +0.127 A 
ATOM     20  C   UNL     1       7.508  -2.492  -1.012  0.00  0.00    +0.048 A 
ATOM     21  C   UNL     1       6.720  -1.809  -0.067  0.00  0.00    +0.061 A 
BRANCH  19  22
ATOM     22  N   UNL     1       8.383  -4.568  -1.998  0.00  0.00    +0.056 N 
ATOM     23  O   UNL     1       8.420  -5.885  -2.003  0.00  0.00    -0.126 OA
ATOM     24  O   UNL     1       9.089  -3.887  -2.876  0.00  0.00    -0.126 OA
ENDBRANCH  19  22
BRANCH  16  26
ATOM     25  C   UNL     1       4.461  -2.726   2.701  0.00  0.00    +0.277 C 
ATOM     26  O   UNL     1       5.195  -1.910   1.786  0.00  0.00    -0.494 OA
ENDBRANCH  16  26
ENDBRANCH   1  21
TORSDOF 4
