REMARK  Name = ZINC38685615
REMARK  11 active torsions:
REMARK  status: ('A' for Active; 'I' for Inactive)
REMARK    1  A    between atoms: C_1  and  C_2
REMARK    2  A    between atoms: C_2  and  O_3
REMARK    3  A    between atoms: O_3  and  C_4
REMARK    4  A    between atoms: C_9  and  C_31
REMARK    5  A    between atoms: C_11  and  N_14
REMARK    6  A    between atoms: C_15  and  C_17
REMARK    7  A    between atoms: C_17  and  N_18
REMARK    8  A    between atoms: N_21  and  C_24
REMARK    9  A    between atoms: C_31  and  O_33
REMARK   10  A    between atoms: O_33  and  C_34
REMARK   11  A    between atoms: C_34  and  C_35
REMARK                            x       y       z     vdW  Elec       q    Type
REMARK                         _______ _______ _______ _____ _____    ______ ____
ROOT
ATOM      1  N   UNL     1      -5.328  -5.038   0.140  0.00  0.00    -0.288 N 
ATOM      2  C   UNL     1      -5.930  -3.864   0.415  0.00  0.00    +0.200 C 
ATOM      3  O   UNL     1      -5.415  -2.823   0.068  0.00  0.00    -0.278 OA
ATOM      4  H   UNL     1      -5.770  -5.873   0.361  0.00  0.00    +0.155 HD
ENDROOT
BRANCH   1  11
ATOM      5  C   UNL     1      -2.795  -8.430  -1.386  0.00  0.00    +0.121 A 
ATOM      6  C   UNL     1      -1.574  -8.005  -1.928  0.00  0.00    +0.047 A 
ATOM      7  C   UNL     1      -1.228  -6.697  -1.971  0.00  0.00    +0.029 A 
ATOM      8  C   UNL     1      -2.112  -5.713  -1.457  0.00  0.00    +0.045 A 
ATOM      9  N   UNL     1      -2.009  -4.401  -1.383  0.00  0.00    -0.367 N 
ATOM     10  C   UNL     1      -3.219  -3.860  -0.756  0.00  0.00    +0.234 C 
ATOM     11  C   UNL     1      -4.098  -5.053  -0.448  0.00  0.00    +0.053 C 
ATOM     12  C   UNL     1      -3.395  -6.160  -0.887  0.00  0.00    +0.021 A 
ATOM     13  C   UNL     1      -3.694  -7.545  -0.880  0.00  0.00    +0.057 A 
ATOM     14  H   UNL     1      -1.254  -3.877  -1.694  0.00  0.00    +0.161 HD
BRANCH  10  15
ATOM     15  C   UNL     1      -2.864  -3.134   0.516  0.00  0.00    +0.336 C 
ATOM     16  O   UNL     1      -2.043  -3.601   1.270  0.00  0.00    -0.248 OA
BRANCH  15  17
ATOM     17  O   UNL     1      -3.459  -1.968   0.812  0.00  0.00    -0.463 OA
BRANCH  17  18
ATOM     18  C   UNL     1      -3.047  -1.316   2.015  0.00  0.00    +0.229 C 
ATOM     19  C   UNL     1      -3.809   0.002   2.167  0.00  0.00    +0.048 C 
ENDBRANCH  17  18
ENDBRANCH  15  17
ENDBRANCH  10  15
BRANCH   5  20
ATOM     20  O   UNL     1      -3.088  -9.758  -1.370  0.00  0.00    -0.492 OA
BRANCH  20  22
ATOM     21  C   UNL     1      -2.613 -12.086  -1.808  0.00  0.00    +0.048 C 
ATOM     22  C   UNL     1      -2.109 -10.646  -1.913  0.00  0.00    +0.225 C 
ENDBRANCH  20  22
ENDBRANCH   5  20
ENDBRANCH   1  11
BRANCH   2  23
ATOM     23  C   UNL     1      -7.243  -3.845   1.154  0.00  0.00    +0.019 C 
BRANCH  23  24
ATOM     24  N   UNL     1      -7.749  -2.468   1.219  0.00  0.00    +0.387 N 
ATOM     25  C   UNL     1      -6.901  -1.679   2.123  0.00  0.00    -0.059 C 
ATOM     26  C   UNL     1      -7.358  -0.217   2.103  0.00  0.00    +0.086 C 
ATOM     27  N   UNL     1      -8.793  -0.172   2.423  0.00  0.00    -0.331 N 
ATOM     28  C   UNL     1      -9.698  -1.056   1.673  0.00  0.00    +0.086 C 
ATOM     29  C   UNL     1      -9.131  -2.479   1.713  0.00  0.00    -0.059 C 
ATOM     30  H   UNL     1      -7.725  -2.058   0.298  0.00  0.00    -0.081 HD
BRANCH  27  31
ATOM     31  C   UNL     1      -9.282   0.686   3.413  0.00  0.00    +0.065 A 
ATOM     32  C   UNL     1      -9.688   1.972   3.080  0.00  0.00    +0.026 A 
ATOM     33  C   UNL     1     -10.172   2.818   4.060  0.00  0.00    +0.002 A 
ATOM     34  C   UNL     1     -10.252   2.386   5.371  0.00  0.00    +0.003 A 
ATOM     35  C   UNL     1      -9.849   1.107   5.707  0.00  0.00    +0.040 A 
ATOM     36  C   UNL     1      -9.369   0.253   4.731  0.00  0.00    +0.144 A 
ATOM     37  F   UNL     1      -8.981  -0.999   5.059  0.00  0.00    -0.204 F 
ENDBRANCH  27  31
ENDBRANCH  23  24
ENDBRANCH   2  23
TORSDOF 9
