REMARK  Name = ZINC13209954
REMARK  10 active torsions:
REMARK  status: ('A' for Active; 'I' for Inactive)
REMARK    1  A    between atoms: C_1  and  C_2
REMARK    2  A    between atoms: C_7  and  N_8
REMARK    3  A    between atoms: C_9  and  C_11
REMARK    4  A    between atoms: C_11  and  S_12
REMARK    5  A    between atoms: S_12  and  C_13
REMARK    6  A    between atoms: C_17  and  C_27
REMARK    7  A    between atoms: C_18  and  C_23
REMARK    8  A    between atoms: C_19  and  C_22
REMARK    9  A    between atoms: C_23  and  C_24
REMARK   10  A    between atoms: C_24  and  C_25
REMARK                            x       y       z     vdW  Elec       q    Type
REMARK                         _______ _______ _______ _____ _____    ______ ____
ROOT
ATOM      1  C   UNL     1       2.878  -2.047  -0.004  0.00  0.00    +0.211 A 
ATOM      2  N   UNL     1       3.365  -0.809   0.004  0.00  0.00    -0.183 NA
ATOM      3  C   UNL     1       2.365   0.067   0.028  0.00  0.00    +0.254 A 
ATOM      4  N   UNL     1       2.339   1.404   0.044  0.00  0.00    -0.216 NA
ATOM      5  C   UNL     1       1.198   2.055   0.068  0.00  0.00    +0.047 A 
ATOM      6  C   UNL     1      -0.015   1.356   0.075  0.00  0.00    -0.005 A 
ATOM      7  C   UNL     1       0.004  -0.003   0.058  0.00  0.00    +0.048 A 
ATOM      8  N   UNL     1       1.200  -0.646   0.034  0.00  0.00    -0.200 N 
ATOM      9  N   UNL     1       1.560  -2.000   0.013  0.00  0.00    -0.137 NA
ATOM     10  C   UNL     1      -1.285  -0.784   0.064  0.00  0.00    +0.066 C 
ATOM     11  C   UNL     1       1.194   3.562   0.087  0.00  0.00    +0.066 C 
ENDROOT
BRANCH   1  12
ATOM     12  S   UNL     1       3.843  -3.521  -0.035  0.00  0.00    -0.075 S 
BRANCH  12  13
ATOM     13  C   UNL     1       5.556  -2.924  -0.049  0.00  0.00    +0.173 C 
BRANCH  13  15
ATOM     14  N   UNL     1       7.830  -3.896  -0.090  0.00  0.00    -0.285 N 
ATOM     15  C   UNL     1       6.498  -4.100  -0.075  0.00  0.00    +0.227 C 
ATOM     16  O   UNL     1       6.057  -5.230  -0.084  0.00  0.00    -0.275 OA
ATOM     17  H   UNL     1       8.182  -2.995  -0.164  0.00  0.00    +0.155 HD
BRANCH  14  24
ATOM     18  C   UNL     1      10.444  -3.613  -1.176  0.00  0.00    +0.046 C 
ATOM     19  C   UNL     1       9.990  -4.889  -0.515  0.00  0.00    -0.028 A 
ATOM     20  C   UNL     1      10.854  -5.962  -0.418  0.00  0.00    +0.025 A 
ATOM     21  C   UNL     1      10.436  -7.136   0.184  0.00  0.00    +0.041 A 
ATOM     22  C   UNL     1       9.154  -7.235   0.696  0.00  0.00    +0.022 A 
ATOM     23  C   UNL     1       8.288  -6.163   0.607  0.00  0.00    +0.025 A 
ATOM     24  C   UNL     1       8.705  -4.984   0.002  0.00  0.00    +0.036 A 
ATOM     25 CL   UNL     1      11.522  -8.486   0.298  0.00  0.00    -0.084 Cl
ENDBRANCH  14  24
ENDBRANCH  13  15
ENDBRANCH  12  13
ENDBRANCH   1  12
BRANCH   6  26
ATOM     26  C   UNL     1      -1.324   2.100   0.096  0.00  0.00    +0.050 C 
BRANCH  26  27
ATOM     27  C   UNL     1      -1.756   2.334   1.545  0.00  0.00    +0.130 C 
BRANCH  27  28
ATOM     28  C   UNL     1      -3.066   3.079   1.565  0.00  0.00    +0.356 C 
ATOM     29  O   UNL     1      -3.600   3.391   0.527  0.00  0.00    -0.246 OA
ATOM     30  O   UNL     1      -3.639   3.396   2.736  0.00  0.00    -0.246 OA
ENDBRANCH  27  28
ENDBRANCH  26  27
ENDBRANCH   6  26
TORSDOF 7
