REMARK  Name = ZINC63985848
REMARK  13 active torsions:
REMARK  status: ('A' for Active; 'I' for Inactive)
REMARK    1  A    between atoms: C_1  and  O_2
REMARK    2  A    between atoms: O_2  and  C_3
REMARK    3  A    between atoms: C_3  and  C_4
REMARK    4  A    between atoms: C_4  and  C_5
REMARK    5  A    between atoms: N_7  and  C_8
REMARK    6  A    between atoms: C_12  and  N_34
REMARK    7  A    between atoms: N_16  and  C_23
REMARK    8  A    between atoms: C_17  and  C_19
REMARK    9  A    between atoms: C_19  and  O_21
REMARK   10  A    between atoms: O_21  and  C_22
REMARK   11  A    between atoms: C_23  and  C_24
REMARK   12  A    between atoms: C_24  and  C_25
REMARK   13  A    between atoms: N_34  and  C_35
REMARK                            x       y       z     vdW  Elec       q    Type
REMARK                         _______ _______ _______ _____ _____    ______ ____
ROOT
ATOM      1  C   UNL     1       2.119  -4.651   3.456  0.00  0.00    +0.138 C 
ATOM      2  C   UNL     1       1.157  -4.842   4.606  0.00  0.00    +0.015 A 
ATOM      3  C   UNL     1       0.410  -3.933   5.331  0.00  0.00    +0.033 A 
ATOM      4  C   UNL     1      -0.405  -4.410   6.356  0.00  0.00    +0.044 A 
ATOM      5  C   UNL     1      -0.434  -5.774   6.605  0.00  0.00    +0.107 A 
ATOM      6  N   UNL     1       0.292  -6.610   5.892  0.00  0.00    -0.348 N 
ATOM      7  C   UNL     1       1.085  -6.196   4.904  0.00  0.00    +0.105 A 
ATOM      8  N   UNL     1       1.906  -6.947   4.066  0.00  0.00    -0.301 N 
ATOM      9  C   UNL     1       2.604  -6.070   3.118  0.00  0.00    +0.208 C 
ATOM     10  H   UNL     1       0.249  -7.558   6.092  0.00  0.00    +0.167 HD
ENDROOT
BRANCH   1  13
ATOM     11  C   UNL     1       1.341  -2.718   2.193  0.00  0.00    +0.216 C 
ATOM     12  O   UNL     1       1.830  -2.003   3.042  0.00  0.00    -0.276 OA
ATOM     13  N   UNL     1       1.430  -4.058   2.307  0.00  0.00    -0.306 N 
ATOM     14  H   UNL     1       1.039  -4.629   1.628  0.00  0.00    +0.149 HD
BRANCH  11  15
ATOM     15  C   UNL     1       0.633  -2.108   1.011  0.00  0.00    +0.124 C 
BRANCH  15  16
ATOM     16  C   UNL     1       0.673  -0.582   1.123  0.00  0.00    +0.168 C 
BRANCH  16  18
ATOM     17  C   UNL     1      -0.017   1.425   0.010  0.00  0.00    +0.194 C 
ATOM     18  O   UNL     1       0.002  -0.004   0.002  0.00  0.00    -0.382 OA
ENDBRANCH  16  18
ENDBRANCH  15  16
ENDBRANCH  11  15
ENDBRANCH   1  13
BRANCH   9  19
ATOM     19  C   UNL     1       4.096  -6.172   3.308  0.00  0.00    +0.330 C 
ATOM     20  O   UNL     1       4.544  -6.670   4.314  0.00  0.00    -0.249 OA
BRANCH  19  21
ATOM     21  O   UNL     1       4.926  -5.709   2.361  0.00  0.00    -0.467 OA
ATOM     22  C   UNL     1       6.328  -5.838   2.607  0.00  0.00    +0.280 C 
ENDBRANCH  19  21
ENDBRANCH   9  19
BRANCH   4  23
ATOM     23  N   UNL     1      -1.180  -3.529   7.120  0.00  0.00    -0.340 N 
ATOM     24  H   UNL     1      -1.153  -2.577   6.938  0.00  0.00    +0.146 HD
BRANCH  23  25
ATOM     25  C   UNL     1      -2.033  -4.046   8.193  0.00  0.00    +0.070 C 
ATOM     26  C   UNL     1      -3.534  -4.006   7.861  0.00  0.00    +0.022 C 
ATOM     27  C   UNL     1      -3.764  -3.567   9.317  0.00  0.00    +0.004 C 
ATOM     28  C   UNL     1      -2.329  -3.014   9.295  0.00  0.00    +0.022 C 
ENDBRANCH  23  25
ENDBRANCH   4  23
BRANCH   8  29
ATOM     29  C   UNL     1       2.055  -8.404   4.124  0.00  0.00    +0.112 C 
BRANCH  29  30
ATOM     30  C   UNL     1       1.018  -9.059   3.209  0.00  0.00    +0.052 C 
BRANCH  30  31
ATOM     31  C   UNL     1       1.171 -10.557   3.269  0.00  0.00    -0.040 C 
ATOM     32  C   UNL     1       0.480 -11.414   4.055  0.00  0.00    -0.001 A 
ATOM     33  C   UNL     1      -0.579 -11.215   5.052  0.00  0.00    +0.010 A 
ATOM     34  C   UNL     1      -1.087 -12.293   5.693  0.00  0.00    +0.001 A 
ATOM     35  C   UNL     1      -0.629 -13.591   5.430  0.00  0.00    +0.002 A 
ATOM     36  C   UNL     1       0.341 -13.853   4.528  0.00  0.00    +0.026 A 
ATOM     37  C   UNL     1       0.946 -12.795   3.795  0.00  0.00    +0.043 A 
ATOM     38  N   UNL     1       1.889 -12.791   2.884  0.00  0.00    -0.380 N 
ATOM     39  C   UNL     1       2.123 -11.407   2.458  0.00  0.00    +0.144 C 
ATOM     40  H   UNL     1       2.351 -13.574   2.545  0.00  0.00    +0.160 HD
ENDBRANCH  30  31
ENDBRANCH  29  30
ENDBRANCH   8  29
TORSDOF 11
