REMARK  Name = ZINC18155583
REMARK  3 active torsions:
REMARK  status: ('A' for Active; 'I' for Inactive)
REMARK    1  A    between atoms: C_4  and  C_7
REMARK    2  A    between atoms: C_7  and  N_8
REMARK    3  A    between atoms: N_16  and  N_17
REMARK                            x       y       z     vdW  Elec       q    Type
REMARK                         _______ _______ _______ _____ _____    ______ ____
ROOT
ATOM      1  N   UNL     1       4.083  -0.904   1.374  0.00  0.00    -0.261 N 
ATOM      2  C   UNL     1       5.094  -0.180   1.998  0.00  0.00    +0.046 A 
ATOM      3  C   UNL     1       5.799   0.951   1.601  0.00  0.00    +0.025 A 
ATOM      4  C   UNL     1       6.774   1.482   2.421  0.00  0.00    +0.017 A 
ATOM      5  C   UNL     1       7.062   0.899   3.644  0.00  0.00    +0.019 A 
ATOM      6  C   UNL     1       6.372  -0.225   4.054  0.00  0.00    +0.027 A 
ATOM      7  C   UNL     1       5.388  -0.767   3.235  0.00  0.00    +0.029 A 
ATOM      8  C   UNL     1       4.485  -1.934   3.370  0.00  0.00    +0.153 C 
ATOM      9  N   UNL     1       4.413  -2.776   4.372  0.00  0.00    -0.173 NA
ATOM     10  C   UNL     1       3.682  -1.939   2.131  0.00  0.00    +0.272 C 
ATOM     11  O   UNL     1       2.812  -2.741   1.845  0.00  0.00    -0.268 OA
ATOM     12 BR   UNL     1       8.403   1.641   4.752  0.00  0.00    -0.050 Br
ENDROOT
BRANCH   9  13
ATOM     13  N   UNL     1       5.157  -2.544   5.537  0.00  0.00    -0.190 N 
ATOM     14  C   UNL     1       5.179  -3.468   6.517  0.00  0.00    +0.317 C 
ATOM     15  O   UNL     1       5.824  -3.267   7.527  0.00  0.00    -0.251 OA
ATOM     16  N   UNL     1       4.486  -4.615   6.378  0.00  0.00    -0.312 N 
ATOM     17  H   UNL     1       5.656  -1.718   5.637  0.00  0.00    +0.179 HD
ATOM     18  H   UNL     1       3.970  -4.776   5.572  0.00  0.00    +0.147 HD
ATOM     19  H   UNL     1       4.502  -5.280   7.083  0.00  0.00    +0.147 HD
ENDBRANCH   9  13
BRANCH   1  20
ATOM     20  C   UNL     1       3.521  -0.575   0.062  0.00  0.00    +0.149 C 
BRANCH  20  24
ATOM     21  C   UNL     1       0.225   2.098   0.549  0.00  0.00    +0.000 A 
ATOM     22  C   UNL     1       1.503   2.599   0.386  0.00  0.00    +0.000 A 
ATOM     23  C   UNL     1       2.570   1.734   0.229  0.00  0.00    +0.005 A 
ATOM     24  C   UNL     1       2.359   0.368   0.234  0.00  0.00    -0.030 A 
ATOM     25  C   UNL     1       1.081  -0.133   0.398  0.00  0.00    +0.005 A 
ATOM     26  C   UNL     1       0.014   0.732   0.553  0.00  0.00    +0.000 A 
ENDBRANCH  20  24
ENDBRANCH   1  20
TORSDOF 3
