REMARK  Name = ZINC00914460
REMARK  8 active torsions:
REMARK  status: ('A' for Active; 'I' for Inactive)
REMARK    1  A    between atoms: C_1  and  C_2
REMARK    2  A    between atoms: C_4  and  C_33
REMARK    3  A    between atoms: C_9  and  C_14
REMARK    4  A    between atoms: C_14  and  N_15
REMARK    5  A    between atoms: N_15  and  C_16
REMARK    6  A    between atoms: N_15  and  S_21
REMARK    7  A    between atoms: S_21  and  C_24
REMARK    8  A    between atoms: C_27  and  N_30
REMARK                            x       y       z     vdW  Elec       q    Type
REMARK                         _______ _______ _______ _____ _____    ______ ____
ROOT
ATOM      1  N   UNL     1      -0.705   1.362  -1.236  0.00  0.00    -0.169 NA
ENDROOT
BRANCH   1   2
ATOM      2  C   UNL     1      -0.533   2.662  -1.890  0.00  0.00    +0.080 C 
ATOM      3  C   UNL     1       0.944   2.861  -2.288  0.00  0.00    +0.020 C 
ATOM      4  C   UNL     1       1.205   4.367  -2.038  0.00  0.00    +0.002 C 
ATOM      5  C   UNL     1       0.397   4.644  -0.746  0.00  0.00    +0.002 C 
ATOM      6  C   UNL     1      -0.881   3.795  -0.909  0.00  0.00    +0.020 C 
ENDBRANCH   1   2
BRANCH   1   7
ATOM      7  S   UNL     1      -1.623   0.188  -1.956  0.00  0.00    +0.061 S 
ATOM      8  O   UNL     1      -1.631   0.475  -3.348  0.00  0.00    -0.153 OA
ATOM      9  O   UNL     1      -1.172  -1.056  -1.438  0.00  0.00    -0.153 OA
BRANCH   7  10
ATOM     10  C   UNL     1      -3.278   0.399  -1.389  0.00  0.00    +0.106 A 
ATOM     11  C   UNL     1      -3.708  -0.259  -0.251  0.00  0.00    +0.031 A 
ATOM     12  C   UNL     1      -5.005  -0.090   0.196  0.00  0.00    +0.034 A 
ATOM     13  C   UNL     1      -5.875   0.730  -0.499  0.00  0.00    +0.126 A 
ATOM     14  C   UNL     1      -5.446   1.383  -1.639  0.00  0.00    +0.034 A 
ATOM     15  C   UNL     1      -4.148   1.218  -2.084  0.00  0.00    +0.031 A 
BRANCH  13  16
ATOM     16  N   UNL     1      -7.265   0.908  -0.022  0.00  0.00    +0.056 N 
ATOM     17  O   UNL     1      -8.031   1.630  -0.634  0.00  0.00    -0.126 OA
ATOM     18  O   UNL     1      -7.642   0.332   0.983  0.00  0.00    -0.126 OA
ENDBRANCH  13  16
ENDBRANCH   7  10
ENDBRANCH   1   7
BRANCH   1  19
ATOM     19  C   UNL     1      -0.065   1.102   0.056  0.00  0.00    +0.150 C 
BRANCH  19  28
ATOM     20  C   UNL     1       6.935   3.572   0.779  0.00  0.00    +0.044 C 
ATOM     21  C   UNL     1       5.950   2.530   0.315  0.00  0.00    -0.050 A 
ATOM     22  C   UNL     1       6.410   1.383  -0.320  0.00  0.00    +0.008 A 
ATOM     23  C   UNL     1       5.527   0.417  -0.752  0.00  0.00    -0.026 A 
ATOM     24  C   UNL     1       4.162   0.590  -0.553  0.00  0.00    +0.052 A 
ATOM     25  C   UNL     1       3.700   1.754   0.091  0.00  0.00    -0.001 A 
ATOM     26  C   UNL     1       4.614   2.721   0.522  0.00  0.00    +0.013 A 
ATOM     27  C   UNL     1       2.261   1.926   0.298  0.00  0.00    +0.020 A 
ATOM     28  C   UNL     1       1.422   0.955  -0.141  0.00  0.00    +0.033 A 
ATOM     29  C   UNL     1       1.937  -0.195  -0.776  0.00  0.00    +0.254 A 
ATOM     30  O   UNL     1       1.166  -1.058  -1.158  0.00  0.00    -0.268 OA
ATOM     31  N   UNL     1       3.257  -0.360  -0.975  0.00  0.00    -0.322 N 
ATOM     32  H   UNL     1       3.587  -1.184  -1.435  0.00  0.00    +0.169 HD
ATOM     33  C   UNL     1       6.040  -0.822  -1.440  0.00  0.00    +0.046 C 
ENDBRANCH  19  28
ENDBRANCH   1  19
TORSDOF 6
