REMARK  Name = ZINC21653008
REMARK  10 active torsions:
REMARK  status: ('A' for Active; 'I' for Inactive)
REMARK    1  A    between atoms: C_1  and  C_2
REMARK    2  A    between atoms: C_2  and  C_3
REMARK    3  A    between atoms: C_3  and  C_4
REMARK    4  A    between atoms: C_4  and  C_6
REMARK    5  A    between atoms: C_4  and  N_7
REMARK    6  A    between atoms: C_13  and  C_15
REMARK    7  A    between atoms: C_15  and  N_16
REMARK    8  A    between atoms: N_16  and  C_17
REMARK    9  A    between atoms: N_16  and  S_18
REMARK   10  A    between atoms: S_18  and  C_21
REMARK                            x       y       z     vdW  Elec       q    Type
REMARK                         _______ _______ _______ _____ _____    ______ ____
ROOT
ATOM      1  N   UNL     1       3.055   0.929   0.823  0.00  0.00    -0.171 NA
ATOM      2  C   UNL     1       3.369   1.809   1.951  0.00  0.00    +0.132 C 
ENDROOT
BRANCH   1   3
ATOM      3  S   UNL     1       3.266   1.467  -0.729  0.00  0.00    +0.063 S 
ATOM      4  O   UNL     1       3.591   0.327  -1.513  0.00  0.00    -0.153 OA
ATOM      5  O   UNL     1       4.113   2.606  -0.653  0.00  0.00    -0.153 OA
BRANCH   3   6
ATOM      6  C   UNL     1       1.701   2.041  -1.300  0.00  0.00    +0.127 A 
ATOM      7  C   UNL     1       1.052   1.370  -2.321  0.00  0.00    +0.077 A 
ATOM      8  C   UNL     1      -0.177   1.821  -2.770  0.00  0.00    +0.144 A 
ATOM      9  C   UNL     1      -0.757   2.949  -2.191  0.00  0.00    +0.077 A 
ATOM     10  C   UNL     1      -0.106   3.612  -1.165  0.00  0.00    +0.049 A 
ATOM     11  C   UNL     1       1.126   3.159  -0.724  0.00  0.00    +0.069 A 
ATOM     12 CL   UNL     1       1.947   3.993   0.558  0.00  0.00    -0.081 Cl
ATOM     13  N   UNL     1      -2.002   3.395  -2.657  0.00  0.00    -0.280 N 
ATOM     14  C   UNL     1      -2.752   2.568  -3.417  0.00  0.00    +0.255 C 
ATOM     15  O   UNL     1      -3.818   2.943  -3.856  0.00  0.00    -0.272 OA
ATOM     16  C   UNL     1      -2.258   1.175  -3.716  0.00  0.00    +0.325 C 
ATOM     17  O   UNL     1      -0.829   1.173  -3.773  0.00  0.00    -0.481 OA
ATOM     18  H   UNL     1      -2.354   4.406  -2.402  0.00  0.00    +0.155 HD
ENDBRANCH   3   6
ENDBRANCH   1   3
BRANCH   1  19
ATOM     19  C   UNL     1       2.553  -0.425   1.067  0.00  0.00    +0.205 C 
BRANCH  19  26
ATOM     20  N   UNL     1       3.081  -5.379   0.991  0.00  0.00    +0.383 N 
ATOM     21  C   UNL     1       4.414  -4.805   0.765  0.00  0.00    -0.059 C 
ATOM     22  C   UNL     1       4.614  -3.604   1.696  0.00  0.00    +0.089 C 
ATOM     23  N   UNL     1       3.494  -2.671   1.502  0.00  0.00    -0.304 N 
ATOM     24  C   UNL     1       2.124  -3.201   1.584  0.00  0.00    +0.089 C 
ATOM     25  C   UNL     1       2.022  -4.419   0.651  0.00  0.00    -0.059 C 
ATOM     26  C   UNL     1       3.716  -1.364   1.262  0.00  0.00    +0.231 C 
ATOM     27  O   UNL     1       4.852  -0.943   1.203  0.00  0.00    -0.274 OA
ATOM     28  H   UNL     1       2.993  -5.609   2.063  0.00  0.00    -0.081 HD
BRANCH  20  29
ATOM     29  C   UNL     1       2.914  -6.633   0.243  0.00  0.00    -0.072 C 
ATOM     30  C   UNL     1       2.778  -6.322  -1.249  0.00  0.00    -0.013 C 
BRANCH  29  31
ATOM     31  C   UNL     1       1.656  -7.354   0.731  0.00  0.00    -0.016 C 
BRANCH  31  33
ATOM     32  C   UNL     1       0.583  -8.492   2.679  0.00  0.00    +0.004 C 
ATOM     33  C   UNL     1       1.841  -7.771   2.191  0.00  0.00    -0.005 C 
ENDBRANCH  31  33
ENDBRANCH  29  31
ENDBRANCH  20  29
ENDBRANCH  19  26
ENDBRANCH   1  19
TORSDOF 7
