REMARK  Name = ZINC52636760
REMARK  8 active torsions:
REMARK  status: ('A' for Active; 'I' for Inactive)
REMARK    1  A    between atoms: C_1  and  C_2
REMARK    2  A    between atoms: N_8  and  S_9
REMARK    3  A    between atoms: S_9  and  C_12
REMARK    4  A    between atoms: C_23  and  C_26
REMARK    5  A    between atoms: C_26  and  N_27
REMARK    6  A    between atoms: N_27  and  C_28
REMARK    7  A    between atoms: N_27  and  C_29
REMARK    8  A    between atoms: C_30  and  C_32
REMARK                            x       y       z     vdW  Elec       q    Type
REMARK                         _______ _______ _______ _____ _____    ______ ____
ROOT
ATOM      1  C   UNL     1      -0.348  -0.099   3.901  0.00  0.00    +0.111 C 
ATOM      2  C   UNL     1      -0.159  -0.708   5.090  0.00  0.00    +0.027 A 
ATOM      3  C   UNL     1       0.994  -1.355   5.730  0.00  0.00    +0.031 A 
ATOM      4  C   UNL     1       0.841  -1.882   6.966  0.00  0.00    +0.114 A 
ATOM      5  N   UNL     1      -0.304  -1.848   7.640  0.00  0.00    -0.234 NA
ATOM      6  C   UNL     1      -1.408  -1.306   7.195  0.00  0.00    +0.179 A 
ATOM      7  C   UNL     1      -1.427  -0.680   5.858  0.00  0.00    +0.089 A 
ATOM      8  N   UNL     1      -2.358  -0.079   5.173  0.00  0.00    -0.376 N 
ATOM      9  C   UNL     1      -1.793   0.352   3.889  0.00  0.00    +0.170 C 
ATOM     10  N   UNL     1      -2.561  -1.320   7.978  0.00  0.00    -0.200 N 
ATOM     11  C   UNL     1      -2.867  -2.209   8.967  0.00  0.00    +0.139 A 
ATOM     12  C   UNL     1      -4.073  -1.848   9.454  0.00  0.00    +0.067 A 
ATOM     13  N   UNL     1      -4.505  -0.772   8.794  0.00  0.00    -0.136 NA
ATOM     14  N   UNL     1      -3.635  -0.420   7.912  0.00  0.00    -0.059 NA
ATOM     15  H   UNL     1      -3.272   0.064   5.465  0.00  0.00    +0.160 HD
ENDROOT
BRANCH   1  16
ATOM     16  S   UNL     1       0.845   0.132   2.625  0.00  0.00    +0.060 S 
ATOM     17  O   UNL     1       2.076  -0.376   3.123  0.00  0.00    -0.153 OA
ATOM     18  O   UNL     1       0.701   1.470   2.171  0.00  0.00    -0.153 OA
BRANCH  16  25
ATOM     19  C   UNL     1      -1.056   1.015   0.726  0.00  0.00    +0.027 C 
ATOM     20  C   UNL     1      -0.627  -0.419   0.409  0.00  0.00    +0.094 C 
ATOM     21  C   UNL     1      -0.047  -0.481  -1.009  0.00  0.00    +0.128 C 
ATOM     22  N   UNL     1       0.592  -1.791  -1.198  0.00  0.00    -0.295 N 
ATOM     23  C   UNL     1       1.629  -2.217  -0.248  0.00  0.00    +0.125 C 
ATOM     24  C   UNL     1       1.049  -2.154   1.171  0.00  0.00    +0.129 C 
ATOM     25  N   UNL     1       0.407  -0.846   1.362  0.00  0.00    -0.171 NA
ATOM     26  C   UNL     1       0.233  -2.587  -2.225  0.00  0.00    +0.247 C 
ATOM     27  O   UNL     1       0.715  -3.699  -2.329  0.00  0.00    -0.270 OA
BRANCH  26  28
ATOM     28  C   UNL     1      -0.746  -2.110  -3.224  0.00  0.00    +0.037 A 
ATOM     29  C   UNL     1      -0.757  -0.768  -3.608  0.00  0.00    +0.013 A 
ATOM     30  C   UNL     1      -1.673  -0.328  -4.542  0.00  0.00    +0.001 A 
ATOM     31  C   UNL     1      -2.579  -1.214  -5.097  0.00  0.00    +0.000 A 
ATOM     32  C   UNL     1      -2.573  -2.546  -4.720  0.00  0.00    +0.001 A 
ATOM     33  C   UNL     1      -1.659  -2.999  -3.792  0.00  0.00    +0.013 A 
ENDBRANCH  26  28
ENDBRANCH  16  25
ENDBRANCH   1  16
BRANCH  12  34
ATOM     34  C   UNL     1      -4.812  -2.547  10.566  0.00  0.00    -0.020 C 
BRANCH  34  35
ATOM     35  N   UNL     1      -4.524  -1.879  11.842  0.00  0.00    +0.380 N 
ATOM     36  C   UNL     1      -5.336  -2.485  12.906  0.00  0.00    -0.096 C 
ATOM     37  C   UNL     1      -3.099  -2.034  12.165  0.00  0.00    -0.096 C 
ATOM     38  H   UNL     1      -4.747  -0.898  11.766  0.00  0.00    -0.082 HD
ENDBRANCH  34  35
ENDBRANCH  12  34
TORSDOF 5
