REMARK  Name = ZINC39886247
REMARK  7 active torsions:
REMARK  status: ('A' for Active; 'I' for Inactive)
REMARK    1  A    between atoms: C_1  and  C_2
REMARK    2  A    between atoms: C_7  and  N_8
REMARK    3  A    between atoms: C_11  and  C_12
REMARK    4  A    between atoms: C_15  and  C_18
REMARK    5  A    between atoms: C_18  and  C_19
REMARK    6  A    between atoms: C_18  and  C_20
REMARK    7  A    between atoms: C_18  and  C_21
REMARK                            x       y       z     vdW  Elec       q    Type
REMARK                         _______ _______ _______ _____ _____    ______ ____
ROOT
ATOM      1  N   UNL     1       0.290   0.080   2.376  0.00  0.00    -0.231 NA
ATOM      2  C   UNL     1       0.410  -0.591   3.501  0.00  0.00    +0.140 C 
ATOM      3  C   UNL     1       0.157   0.034   4.816  0.00  0.00    +0.058 C 
ATOM      4  C   UNL     1      -0.215   1.305   5.108  0.00  0.00    +0.026 C 
ATOM      5  S   UNL     1       0.474  -1.337   5.916  0.00  0.00    -0.028 S 
ATOM      6  C   UNL     1       0.889  -2.564   4.689  0.00  0.00    +0.282 C 
ATOM      7  O   UNL     1       1.202  -3.726   4.865  0.00  0.00    -0.262 OA
ATOM      8  N   UNL     1       0.768  -1.901   3.523  0.00  0.00    -0.260 N 
ATOM      9  H   UNL     1       0.942  -2.364   2.688  0.00  0.00    +0.157 HD
ENDROOT
BRANCH   1  16
ATOM     10  C   UNL     1       2.119   1.243   0.538  0.00  0.00    +0.046 C 
ATOM     11  C   UNL     1       1.363  -0.026   0.238  0.00  0.00    -0.025 A 
ATOM     12  C   UNL     1       1.550  -0.674  -0.965  0.00  0.00    +0.005 A 
ATOM     13  C   UNL     1       0.857  -1.839  -1.243  0.00  0.00    +0.000 A 
ATOM     14  C   UNL     1      -0.028  -2.363  -0.317  0.00  0.00    +0.002 A 
ATOM     15  C   UNL     1      -0.225  -1.727   0.891  0.00  0.00    +0.028 A 
ATOM     16  C   UNL     1       0.476  -0.553   1.181  0.00  0.00    +0.069 A 
ENDBRANCH   1  16
BRANCH   4  17
ATOM     17  C   UNL     1      -0.223   1.766   6.504  0.00  0.00    -0.024 A 
ATOM     18  C   UNL     1       0.327   0.967   7.512  0.00  0.00    +0.008 A 
ATOM     19  C   UNL     1       0.316   1.406   8.819  0.00  0.00    +0.005 A 
ATOM     20  C   UNL     1      -0.238   2.635   9.135  0.00  0.00    -0.042 A 
ATOM     21  C   UNL     1      -0.785   3.432   8.144  0.00  0.00    +0.005 A 
ATOM     22  C   UNL     1      -0.776   3.009   6.831  0.00  0.00    +0.008 A 
BRANCH  20  23
ATOM     23  C   UNL     1      -0.246   3.107  10.566  0.00  0.00    -0.013 C 
ATOM     24  C   UNL     1       1.192   3.204  11.079  0.00  0.00    +0.015 C 
ATOM     25  C   UNL     1      -0.909   4.484  10.645  0.00  0.00    +0.015 C 
ATOM     26  C   UNL     1      -1.028   2.114  11.427  0.00  0.00    +0.015 C 
ENDBRANCH  20  23
ENDBRANCH   4  17
TORSDOF 3
