REMARK  Name = ZINC36207354
REMARK  17 active torsions:
REMARK  status: ('A' for Active; 'I' for Inactive)
REMARK    1  A    between atoms: C_1  and  C_2
REMARK    2  A    between atoms: C_7  and  O_8
REMARK    3  A    between atoms: O_8  and  C_9
REMARK    4  A    between atoms: C_9  and  C_10
REMARK    5  A    between atoms: C_10  and  C_12
REMARK    6  A    between atoms: C_10  and  O_36
REMARK    7  A    between atoms: C_12  and  N_13
REMARK    8  A    between atoms: N_13  and  C_14
REMARK    9  A    between atoms: N_13  and  C_33
REMARK   10  A    between atoms: C_14  and  C_15
REMARK   11  A    between atoms: C_21  and  C_32
REMARK   12  A    between atoms: C_22  and  C_26
REMARK   13  A    between atoms: C_26  and  O_28
REMARK   14  A    between atoms: O_28  and  C_29
REMARK   15  A    between atoms: C_29  and  C_30
REMARK   16  A    between atoms: C_33  and  C_34
REMARK   17  A    between atoms: C_33  and  C_35
REMARK                            x       y       z     vdW  Elec       q    Type
REMARK                         _______ _______ _______ _____ _____    ______ ____
ROOT
ATOM      1  C   UNL     1      -0.046  -0.247   8.631  0.00  0.00    -0.003 C 
ENDROOT
BRANCH   1   2
ATOM      2  C   UNL     1      -0.015   0.903   9.604  0.00  0.00    +0.094 A 
ATOM      3  N   UNL     1       0.208   0.649  10.916  0.00  0.00    -0.312 N 
ATOM      4  H   UNL     1       0.343  -0.266  11.207  0.00  0.00    +0.170 HD
ATOM      5  C   UNL     1       0.247   1.642  11.826  0.00  0.00    +0.260 A 
ATOM      6  O   UNL     1       0.449   1.404  13.004  0.00  0.00    -0.267 OA
ATOM      7  C   UNL     1       0.039   3.032  11.358  0.00  0.00    +0.076 A 
ATOM      8  C   UNL     1       0.032   4.219  12.092  0.00  0.00    -0.015 A 
ATOM      9  C   UNL     1      -0.181   5.409  11.458  0.00  0.00    +0.102 A 
ATOM     10  S   UNL     1      -0.390   4.916   9.755  0.00  0.00    -0.062 S 
ATOM     11  C   UNL     1      -0.185   3.166   9.968  0.00  0.00    +0.116 A 
ATOM     12  N   UNL     1      -0.197   2.116   9.156  0.00  0.00    -0.229 NA
ATOM     13  C   UNL     1       0.260   4.187  13.582  0.00  0.00    +0.046 C 
BRANCH   9  14
ATOM     14  C   UNL     1      -0.228   6.755  12.032  0.00  0.00    +0.347 C 
ATOM     15  O   UNL     1      -0.063   6.913  13.227  0.00  0.00    -0.244 OA
BRANCH  14  16
ATOM     16  O   UNL     1      -0.453   7.821  11.236  0.00  0.00    -0.457 OA
BRANCH  16  17
ATOM     17  C   UNL     1      -0.485   9.104  11.864  0.00  0.00    +0.259 C 
BRANCH  17  18
ATOM     18  C   UNL     1      -0.747  10.164  10.825  0.00  0.00    +0.006 C 
ATOM     19  C   UNL     1      -1.620  11.112  11.062  0.00  0.00    +0.007 C 
ENDBRANCH  17  18
ENDBRANCH  16  17
ENDBRANCH  14  16
ENDBRANCH   9  14
ENDBRANCH   1   2
BRANCH   1  20
ATOM     20  N   UNL     1      -0.473   0.238   7.312  0.00  0.00    +0.388 N 
ATOM     21  H   UNL     1      -0.140   1.181   7.177  0.00  0.00    -0.081 HD
BRANCH  20  22
ATOM     22  C   UNL     1      -1.940   0.220   7.234  0.00  0.00    -0.074 C 
ATOM     23  C   UNL     1      -2.439  -1.220   7.363  0.00  0.00    -0.014 C 
ATOM     24  C   UNL     1      -2.521   1.066   8.368  0.00  0.00    -0.014 C 
ENDBRANCH  20  22
BRANCH  20  25
ATOM     25  C   UNL     1       0.084  -0.631   6.266  0.00  0.00    -0.043 C 
BRANCH  25  26
ATOM     26  C   UNL     1      -0.273  -0.066   4.890  0.00  0.00    +0.135 C 
BRANCH  26  27
ATOM     27  O   UNL     1       0.285   1.242   4.753  0.00  0.00    -0.390 OA
ATOM     28  H   UNL     1       1.248   1.269   4.831  0.00  0.00    +0.210 HD
ENDBRANCH  26  27
BRANCH  26  29
ATOM     29  C   UNL     1       0.295  -0.980   3.801  0.00  0.00    +0.258 C 
BRANCH  29  30
ATOM     30  O   UNL     1      -0.136  -0.517   2.520  0.00  0.00    -0.489 OA
BRANCH  30  37
ATOM     31  C   UNL     1      -0.977   0.379  -0.024  0.00  0.00    +0.047 C 
ATOM     32  C   UNL     1      -0.097  -0.830   0.162  0.00  0.00    -0.009 A 
ATOM     33  C   UNL     1       0.336  -1.546  -0.938  0.00  0.00    +0.007 A 
ATOM     34  C   UNL     1       1.143  -2.655  -0.769  0.00  0.00    +0.000 A 
ATOM     35  C   UNL     1       1.519  -3.052   0.501  0.00  0.00    +0.004 A 
ATOM     36  C   UNL     1       1.089  -2.340   1.604  0.00  0.00    +0.046 A 
ATOM     37  C   UNL     1       0.284  -1.223   1.437  0.00  0.00    +0.124 A 
ENDBRANCH  30  37
ENDBRANCH  29  30
ENDBRANCH  26  29
ENDBRANCH  25  26
ENDBRANCH  20  25
ENDBRANCH   1  20
TORSDOF 13
