REMARK  Name = ZINC33265335
REMARK  11 active torsions:
REMARK  status: ('A' for Active; 'I' for Inactive)
REMARK    1  A    between atoms: C_1  and  C_2
REMARK    2  A    between atoms: C_5  and  N_9
REMARK    3  A    between atoms: C_10  and  C_12
REMARK    4  A    between atoms: C_12  and  S_13
REMARK    5  A    between atoms: S_13  and  C_14
REMARK    6  A    between atoms: N_18  and  C_29
REMARK    7  A    between atoms: N_23  and  C_24
REMARK    8  A    between atoms: C_24  and  C_25
REMARK    9  A    between atoms: C_25  and  C_26
REMARK   10  A    between atoms: C_26  and  C_27
REMARK   11  A    between atoms: C_26  and  C_28
REMARK                            x       y       z     vdW  Elec       q    Type
REMARK                         _______ _______ _______ _____ _____    ______ ____
ROOT
ATOM      1  C   UNL     1       0.194   0.993   2.735  0.00  0.00    +0.173 A 
ATOM      2  N   UNL     1       1.221   0.283   2.348  0.00  0.00    -0.220 NA
ATOM      3  C   UNL     1       2.068  -0.279   3.249  0.00  0.00    +0.117 A 
ATOM      4  C   UNL     1       3.193  -1.045   3.208  0.00  0.00    +0.136 A 
ATOM      5  N   UNL     1       3.560  -1.282   4.487  0.00  0.00    -0.272 N 
ATOM      6  N   UNL     1       2.755  -0.725   5.322  0.00  0.00    -0.164 NA
ATOM      7  C   UNL     1       1.805  -0.085   4.685  0.00  0.00    +0.175 A 
ATOM      8  C   UNL     1       0.631   0.718   5.051  0.00  0.00    +0.283 A 
ATOM      9  O   UNL     1       0.346   0.924   6.216  0.00  0.00    -0.265 OA
ATOM     10  N   UNL     1      -0.122   1.221   4.046  0.00  0.00    -0.286 N 
ATOM     11  C   UNL     1       4.730  -2.074   4.875  0.00  0.00    +0.172 C 
ENDROOT
BRANCH   1  12
ATOM     12  S   UNL     1      -0.847   1.691   1.497  0.00  0.00    -0.078 S 
BRANCH  12  13
ATOM     13  C   UNL     1      -0.003   1.101   0.008  0.00  0.00    +0.173 C 
BRANCH  13  15
ATOM     14  N   UNL     1      -0.288   1.272  -2.443  0.00  0.00    -0.284 N 
ATOM     15  C   UNL     1      -0.738   1.591  -1.213  0.00  0.00    +0.228 C 
ATOM     16  O   UNL     1      -1.735   2.271  -1.089  0.00  0.00    -0.275 OA
ATOM     17  H   UNL     1       0.655   0.719  -2.557  0.00  0.00    +0.155 HD
BRANCH  14  22
ATOM     18  C   UNL     1      -3.260   2.791  -7.032  0.00  0.00    +0.044 C 
ATOM     19  C   UNL     1      -2.471   2.387  -5.814  0.00  0.00    -0.049 A 
ATOM     20  C   UNL     1      -2.445   3.212  -4.704  0.00  0.00    +0.005 A 
ATOM     21  C   UNL     1      -1.723   2.845  -3.585  0.00  0.00    +0.025 A 
ATOM     22  C   UNL     1      -1.022   1.647  -3.575  0.00  0.00    +0.052 A 
ATOM     23  C   UNL     1      -1.045   0.822  -4.693  0.00  0.00    +0.062 A 
ATOM     24  C   UNL     1      -1.775   1.193  -5.808  0.00  0.00    +0.025 A 
ATOM     25 CL   UNL     1      -0.166  -0.674  -4.689  0.00  0.00    -0.082 Cl
ENDBRANCH  14  22
ENDBRANCH  13  15
ENDBRANCH  12  13
ENDBRANCH   1  12
BRANCH  10  26
ATOM     26  C   UNL     1      -1.302   2.028   4.369  0.00  0.00    +0.128 C 
BRANCH  26  27
ATOM     27  C   UNL     1      -2.524   1.117   4.492  0.00  0.00    +0.025 C 
BRANCH  27  28
ATOM     28  C   UNL     1      -3.756   1.959   4.830  0.00  0.00    -0.016 C 
ATOM     29  C   UNL     1      -4.999   1.067   4.831  0.00  0.00    +0.007 C 
ATOM     30  C   UNL     1      -3.580   2.590   6.212  0.00  0.00    +0.007 C 
ENDBRANCH  27  28
ENDBRANCH  26  27
ENDBRANCH  10  26
TORSDOF 7
