REMARK  Name = ZINC07108697
REMARK  7 active torsions:
REMARK  status: ('A' for Active; 'I' for Inactive)
REMARK    1  A    between atoms: C_1  and  C_2
REMARK    2  A    between atoms: C_6  and  N_23
REMARK    3  A    between atoms: C_7  and  N_8
REMARK    4  A    between atoms: C_9  and  C_11
REMARK    5  A    between atoms: C_11  and  O_12
REMARK    6  A    between atoms: O_12  and  C_13
REMARK    7  A    between atoms: C_13  and  C_15
REMARK                            x       y       z     vdW  Elec       q    Type
REMARK                         _______ _______ _______ _____ _____    ______ ____
ROOT
ATOM      1  N   UNL     1       1.195   1.967   0.478  0.00  0.00    -0.281 N 
ATOM      2  C   UNL     1       0.137   1.682  -0.308  0.00  0.00    +0.255 C 
ATOM      3  O   UNL     1       0.241   0.855  -1.189  0.00  0.00    -0.272 OA
ATOM      4  H   UNL     1       1.128   2.666   1.146  0.00  0.00    +0.155 HD
ENDROOT
BRANCH   1  11
ATOM      5  C   UNL     1       1.089  -0.873   0.623  0.00  0.00    +0.046 C 
ATOM      6  C   UNL     1       2.383  -0.134   0.393  0.00  0.00    -0.027 A 
ATOM      7  C   UNL     1       3.562  -0.837   0.239  0.00  0.00    +0.005 A 
ATOM      8  C   UNL     1       4.750  -0.159   0.034  0.00  0.00    +0.003 A 
ATOM      9  C   UNL     1       4.760   1.222  -0.024  0.00  0.00    +0.034 A 
ATOM     10  C   UNL     1       3.584   1.930   0.122  0.00  0.00    +0.148 A 
ATOM     11  C   UNL     1       2.389   1.253   0.329  0.00  0.00    +0.067 A 
BRANCH  10  12
ATOM     12  N   UNL     1       3.595   3.409   0.059  0.00  0.00    +0.058 N 
ATOM     13  O   UNL     1       4.624   3.998  -0.220  0.00  0.00    -0.126 OA
ATOM     14  O   UNL     1       2.577   4.036   0.286  0.00  0.00    -0.126 OA
ENDBRANCH  10  12
ENDBRANCH   1  11
BRANCH   2  15
ATOM     15  C   UNL     1      -1.173   2.397  -0.096  0.00  0.00    +0.328 C 
BRANCH  15  16
ATOM     16  O   UNL     1      -2.145   1.923  -1.065  0.00  0.00    -0.452 OA
BRANCH  16  17
ATOM     17  C   UNL     1      -3.377   2.466  -1.010  0.00  0.00    +0.342 C 
ATOM     18  O   UNL     1      -3.632   3.311  -0.176  0.00  0.00    -0.245 OA
BRANCH  17  19
ATOM     19  C   UNL     1      -4.417   2.032  -1.964  0.00  0.00    +0.095 A 
ATOM     20  C   UNL     1      -5.255   0.958  -1.649  0.00  0.00    +0.056 A 
ATOM     21  C   UNL     1      -6.229   0.562  -2.544  0.00  0.00    +0.021 A 
ATOM     22  C   UNL     1      -6.369   1.219  -3.754  0.00  0.00    +0.003 A 
ATOM     23  C   UNL     1      -5.540   2.279  -4.075  0.00  0.00    +0.021 A 
ATOM     24  C   UNL     1      -4.565   2.690  -3.188  0.00  0.00    +0.056 A 
ATOM     25 CL   UNL     1      -3.526   4.020  -3.593  0.00  0.00    -0.083 Cl
ATOM     26 CL   UNL     1      -5.075   0.129  -0.135  0.00  0.00    -0.083 Cl
ENDBRANCH  17  19
ENDBRANCH  16  17
ENDBRANCH  15  16
ENDBRANCH   2  15
TORSDOF 6
