REMARK  Name = ZINC02533047
REMARK  10 active torsions:
REMARK  status: ('A' for Active; 'I' for Inactive)
REMARK    1  A    between atoms: C_1  and  C_2
REMARK    2  A    between atoms: C_2  and  O_3
REMARK    3  A    between atoms: O_3  and  C_4
REMARK    4  A    between atoms: C_7  and  C_13
REMARK    5  A    between atoms: C_9  and  N_10
REMARK    6  A    between atoms: C_14  and  C_24
REMARK    7  A    between atoms: N_16  and  C_18
REMARK    8  A    between atoms: N_28  and  C_32
REMARK    9  A    between atoms: C_32  and  C_33
REMARK   10  A    between atoms: C_32  and  C_34
REMARK                            x       y       z     vdW  Elec       q    Type
REMARK                         _______ _______ _______ _____ _____    ______ ____
ROOT
ATOM      1  C   UNL     1       1.416  -0.398  -0.014  0.00  0.00    +0.100 A 
ATOM      2  C   UNL     1       0.002  -0.004   0.002  0.00  0.00    +0.022 A 
ATOM      3  C   UNL     1      -0.017   1.379   0.010  0.00  0.00    +0.123 A 
ATOM      4  N   UNL     1       1.260   1.807  -0.000  0.00  0.00    -0.239 N 
ATOM      5  N   UNL     1       2.124   0.709  -0.014  0.00  0.00    -0.166 NA
ENDROOT
BRANCH   2   6
ATOM      6  C   UNL     1      -1.160  -0.899   0.009  0.00  0.00    +0.032 C 
ATOM      7  C   UNL     1      -2.416  -0.382   0.024  0.00  0.00    +0.077 C 
ATOM      8  C   UNL     1      -3.717  -1.074   0.026  0.00  0.00    +0.259 C 
ATOM      9  O   UNL     1      -3.795  -2.289   0.015  0.00  0.00    -0.269 OA
ATOM     10  N   UNL     1      -4.796  -0.310   0.046  0.00  0.00    -0.253 N 
ATOM     11  C   UNL     1      -4.707   1.036   0.052  0.00  0.00    +0.121 C 
ATOM     12  S   UNL     1      -5.974   2.187   0.069  0.00  0.00    -0.027 S 
ATOM     13  S   UNL     1      -2.945   1.326   0.036  0.00  0.00    -0.061 S 
BRANCH  10  14
ATOM     14  C   UNL     1      -6.119  -0.939   0.055  0.00  0.00    +0.077 C 
ATOM     15  C   UNL     1      -6.878  -0.513   1.314  0.00  0.00    +0.028 C 
ATOM     16  C   UNL     1      -6.901  -0.501  -1.185  0.00  0.00    +0.028 C 
ENDBRANCH  10  14
ENDBRANCH   2   6
BRANCH   1  20
ATOM     17  C   UNL     1       2.934  -4.370  -0.048  0.00  0.00    +0.151 A 
ATOM     18  C   UNL     1       1.773  -4.078   0.655  0.00  0.00    +0.048 A 
ATOM     19  C   UNL     1       1.281  -2.790   0.673  0.00  0.00    +0.014 A 
ATOM     20  C   UNL     1       1.945  -1.782  -0.026  0.00  0.00    +0.005 A 
ATOM     21  C   UNL     1       3.111  -2.078  -0.731  0.00  0.00    +0.046 A 
ATOM     22  C   UNL     1       3.601  -3.368  -0.740  0.00  0.00    +0.168 A 
BRANCH  22  23
ATOM     23  N   UNL     1       4.838  -3.683  -1.488  0.00  0.00    +0.060 N 
ATOM     24  O   UNL     1       5.423  -2.804  -2.095  0.00  0.00    -0.126 OA
ATOM     25  O   UNL     1       5.271  -4.821  -1.497  0.00  0.00    -0.126 OA
ENDBRANCH  22  23
BRANCH  17  26
ATOM     26  O   UNL     1       3.419  -5.639  -0.059  0.00  0.00    -0.490 OA
BRANCH  26  28
ATOM     27  C   UNL     1       3.377  -7.979   0.545  0.00  0.00    +0.048 C 
ATOM     28  C   UNL     1       2.683  -6.621   0.673  0.00  0.00    +0.226 C 
ENDBRANCH  26  28
ENDBRANCH  17  26
ENDBRANCH   1  20
BRANCH   4  29
ATOM     29  C   UNL     1       1.660   3.150   0.003  0.00  0.00    +0.065 A 
ATOM     30  C   UNL     1       0.707   4.160   0.011  0.00  0.00    +0.028 A 
ATOM     31  C   UNL     1       1.105   5.482   0.018  0.00  0.00    +0.002 A 
ATOM     32  C   UNL     1       2.450   5.801   0.007  0.00  0.00    +0.000 A 
ATOM     33  C   UNL     1       3.402   4.797  -0.006  0.00  0.00    +0.002 A 
ATOM     34  C   UNL     1       3.010   3.473  -0.008  0.00  0.00    +0.028 A 
ENDBRANCH   4  29
TORSDOF 7
