REMARK  Name = ZINC06743263
REMARK  12 active torsions:
REMARK  status: ('A' for Active; 'I' for Inactive)
REMARK    1  A    between atoms: C_1  and  C_2
REMARK    2  A    between atoms: C_2  and  C_3
REMARK    3  A    between atoms: C_3  and  O_4
REMARK    4  A    between atoms: O_4  and  C_5
REMARK    5  A    between atoms: C_8  and  C_11
REMARK    6  A    between atoms: C_14  and  C_25
REMARK    7  A    between atoms: N_21  and  C_22
REMARK    8  A    between atoms: C_22  and  C_23
REMARK    9  A    between atoms: C_23  and  O_24
REMARK   10  A    between atoms: C_26  and  C_33
REMARK   11  A    between atoms: C_28  and  C_32
REMARK   12  A    between atoms: C_30  and  O_31
REMARK                            x       y       z     vdW  Elec       q    Type
REMARK                         _______ _______ _______ _____ _____    ______ ____
ROOT
ATOM      1  C   UNL     1       3.228  -4.370   5.673  0.00  0.00    +0.141 C 
ATOM      2  C   UNL     1       4.581  -4.740   5.131  0.00  0.00    +0.035 A 
ATOM      3  C   UNL     1       5.796  -4.301   4.593  0.00  0.00    +0.102 A 
ATOM      4  N   UNL     1       6.531  -5.370   4.356  0.00  0.00    -0.173 NA
ATOM      5  N   UNL     1       5.901  -6.439   4.691  0.00  0.00    -0.272 N 
ATOM      6  H   UNL     1       6.249  -7.340   4.606  0.00  0.00    +0.189 HD
ATOM      7  C   UNL     1       4.669  -6.117   5.186  0.00  0.00    +0.126 A 
ATOM      8  C   UNL     1       3.419  -6.643   5.745  0.00  0.00    +0.266 C 
ATOM      9  O   UNL     1       3.180  -7.822   5.924  0.00  0.00    -0.268 OA
ATOM     10  N   UNL     1       2.573  -5.635   6.033  0.00  0.00    -0.283 N 
ENDROOT
BRANCH   3  11
ATOM     11  C   UNL     1       6.185  -2.892   4.335  0.00  0.00    +0.047 A 
ATOM     12  C   UNL     1       6.710  -2.527   3.098  0.00  0.00    -0.037 A 
ATOM     13  C   UNL     1       7.070  -1.215   2.863  0.00  0.00    +0.007 A 
ATOM     14  C   UNL     1       6.912  -0.261   3.853  0.00  0.00    -0.047 A 
ATOM     15  C   UNL     1       6.392  -0.614   5.084  0.00  0.00    +0.049 A 
ATOM     16  C   UNL     1       6.021  -1.925   5.331  0.00  0.00    +0.127 A 
ATOM     17  C   UNL     1       7.308   1.168   3.587  0.00  0.00    +0.044 C 
ATOM     18  C   UNL     1       6.885  -3.562   2.017  0.00  0.00    +0.044 C 
BRANCH  16  19
ATOM     19  O   UNL     1       5.504  -2.272   6.538  0.00  0.00    -0.506 OA
ATOM     20  H   UNL     1       6.171  -2.468   7.210  0.00  0.00    +0.292 HD
ENDBRANCH  16  19
ENDBRANCH   3  11
BRANCH   1  24
ATOM     21  C   UNL     1       0.951  -2.334   2.684  0.00  0.00    +0.121 A 
ATOM     22  C   UNL     1       1.394  -1.649   3.807  0.00  0.00    +0.046 A 
ATOM     23  C   UNL     1       2.130  -2.310   4.771  0.00  0.00    +0.009 A 
ATOM     24  C   UNL     1       2.425  -3.652   4.619  0.00  0.00    -0.022 A 
ATOM     25  C   UNL     1       1.985  -4.337   3.501  0.00  0.00    +0.009 A 
ATOM     26  C   UNL     1       1.244  -3.682   2.536  0.00  0.00    +0.046 A 
BRANCH  21  27
ATOM     27  O   UNL     1       0.227  -1.687   1.734  0.00  0.00    -0.492 OA
BRANCH  27  28
ATOM     28  C   UNL     1      -0.036  -0.299   1.952  0.00  0.00    +0.229 C 
BRANCH  28  30
ATOM     29  C   UNL     1      -1.139   1.740   1.019  0.00  0.00    +0.007 C 
ATOM     30  C   UNL     1      -0.857   0.254   0.785  0.00  0.00    +0.038 C 
ENDBRANCH  28  30
ENDBRANCH  27  28
ENDBRANCH  21  27
ENDBRANCH   1  24
BRANCH  10  31
ATOM     31  C   UNL     1       1.232  -5.775   6.605  0.00  0.00    +0.137 C 
BRANCH  31  32
ATOM     32  C   UNL     1       0.226  -6.053   5.486  0.00  0.00    +0.175 C 
BRANCH  32  33
ATOM     33  O   UNL     1       0.508  -7.324   4.897  0.00  0.00    -0.393 OA
ATOM     34  H   UNL     1      -0.092  -7.566   4.178  0.00  0.00    +0.209 HD
ENDBRANCH  32  33
ENDBRANCH  31  32
ENDBRANCH  10  31
TORSDOF 9
