REMARK  Name = ZINC50440145
REMARK  5 active torsions:
REMARK  status: ('A' for Active; 'I' for Inactive)
REMARK    1  A    between atoms: C_6  and  O_7
REMARK    2  A    between atoms: O_7  and  C_8
REMARK    3  A    between atoms: C_11  and  N_18
REMARK    4  A    between atoms: C_13  and  C_14
REMARK    5  A    between atoms: N_15  and  O_16
REMARK                            x       y       z     vdW  Elec       q    Type
REMARK                         _______ _______ _______ _____ _____    ______ ____
ROOT
ATOM      1  C   UNL     1      -1.099  -2.090  -0.219  0.00  0.00    +0.139 A 
ATOM      2  C   UNL     1       0.120  -2.751  -0.210  0.00  0.00    +0.049 A 
ATOM      3  C   UNL     1       0.159  -4.131  -0.175  0.00  0.00    +0.036 A 
ATOM      4  C   UNL     1      -1.015  -4.864  -0.149  0.00  0.00    +0.127 A 
ATOM      5  C   UNL     1      -2.236  -4.221  -0.158  0.00  0.00    +0.047 A 
ATOM      6  C   UNL     1      -2.288  -2.828  -0.187  0.00  0.00    +0.062 A 
ENDROOT
BRANCH   6   7
ATOM      7  C   UNL     1      -3.594  -2.133  -0.191  0.00  0.00    +0.166 C 
ATOM      8  N   UNL     1      -4.471  -2.402  -1.113  0.00  0.00    -0.071 NA
ATOM      9  N   UNL     1      -3.882  -1.196   0.787  0.00  0.00    -0.340 N 
ATOM     10  H   UNL     1      -3.228  -0.995   1.475  0.00  0.00    +0.144 HD
ATOM     11  H   UNL     1      -4.738  -0.740   0.785  0.00  0.00    +0.144 HD
BRANCH   8  12
ATOM     12  O   UNL     1      -4.129  -3.257  -2.189  0.00  0.00    -0.408 OA
ATOM     13  H   UNL     1      -4.845  -3.397  -2.823  0.00  0.00    +0.328 HD
ENDBRANCH   8  12
ENDBRANCH   6   7
BRANCH   4  14
ATOM     14  N   UNL     1      -0.961  -6.343  -0.112  0.00  0.00    +0.056 N 
ATOM     15  O   UNL     1       0.107  -6.908  -0.104  0.00  0.00    -0.126 OA
ATOM     16  O   UNL     1      -1.985  -6.985  -0.089  0.00  0.00    -0.126 OA
ENDBRANCH   4  14
BRANCH   1  17
ATOM     17  O   UNL     1      -1.138  -0.734  -0.254  0.00  0.00    -0.455 OA
BRANCH  17  23
ATOM     18  C   UNL     1       0.738   0.009  -1.515  0.00  0.00    +0.047 A 
ATOM     19  C   UNL     1       1.937   0.693  -1.577  0.00  0.00    +0.019 A 
ATOM     20  C   UNL     1       2.443   1.305  -0.445  0.00  0.00    +0.018 A 
ATOM     21  C   UNL     1       1.751   1.235   0.751  0.00  0.00    +0.019 A 
ATOM     22  C   UNL     1       0.552   0.552   0.817  0.00  0.00    +0.047 A 
ATOM     23  C   UNL     1       0.042  -0.062  -0.317  0.00  0.00    +0.129 A 
ATOM     24 BR   UNL     1       4.085   2.240  -0.532  0.00  0.00    -0.050 Br
ENDBRANCH  17  23
ENDBRANCH   1  17
TORSDOF 5
