REMARK  Name = ZINC12775926
REMARK  8 active torsions:
REMARK  status: ('A' for Active; 'I' for Inactive)
REMARK    1  A    between atoms: C_1  and  S_2
REMARK    2  A    between atoms: S_2  and  N_5
REMARK    3  A    between atoms: C_11  and  C_12
REMARK    4  A    between atoms: C_11  and  N_57
REMARK    5  A    between atoms: N_14  and  C_15
REMARK    6  A    between atoms: C_15  and  C_16
REMARK    7  A    between atoms: C_16  and  N_17
REMARK    8  A    between atoms: C_21  and  C_22
REMARK                            x       y       z     vdW  Elec       q    Type
REMARK                         _______ _______ _______ _____ _____    ______ ____
ROOT
ATOM      1  C   UNL     1      -1.148   3.538   6.440  0.00  0.00    +0.196 C 
ATOM      2  O   UNL     1      -0.785   4.665   6.180  0.00  0.00    -0.278 OA
ATOM      3  N   UNL     1      -1.611   3.245   7.672  0.00  0.00    -0.315 N 
ATOM      4  H   UNL     1      -1.901   2.343   7.879  0.00  0.00    +0.149 HD
ENDROOT
BRANCH   1   5
ATOM      5  C   UNL     1      -1.080   2.463   5.386  0.00  0.00    +0.019 C 
BRANCH   5  12
ATOM      6  N   UNL     1       0.257   3.891   1.524  0.00  0.00    -0.183 NA
ATOM      7  C   UNL     1       1.302   4.726   2.208  0.00  0.00    +0.107 C 
ATOM      8  C   UNL     1       0.935   4.794   3.626  0.00  0.00    -0.001 C 
ATOM      9  C   UNL     1       0.827   3.434   4.308  0.00  0.00    -0.077 C 
ATOM     10  C   UNL     1      -0.714   2.083   3.007  0.00  0.00    -0.061 C 
ATOM     11  C   UNL     1       0.185   2.488   1.823  0.00  0.00    +0.090 C 
ATOM     12  N   UNL     1      -0.564   3.058   4.129  0.00  0.00    +0.386 N 
ATOM     13  H   UNL     1      -1.108   3.900   3.909  0.00  0.00    -0.081 HD
BRANCH   6  15
ATOM     14  C   UNL     1       0.026   4.441  -1.163  0.00  0.00    +0.215 C 
ATOM     15  S   UNL     1      -0.797   4.577   0.447  0.00  0.00    +0.029 S 
ATOM     16  O   UNL     1      -0.881   5.940   0.840  0.00  0.00    -0.158 OA
ATOM     17  O   UNL     1      -1.946   3.741   0.482  0.00  0.00    -0.158 OA
ENDBRANCH   6  15
ENDBRANCH   5  12
ENDBRANCH   1   5
BRANCH   3  18
ATOM     18  C   UNL     1      -1.677   4.290   8.696  0.00  0.00    +0.123 C 
BRANCH  18  19
ATOM     19  C   UNL     1      -2.235   3.699   9.992  0.00  0.00    +0.136 C 
BRANCH  19  20
ATOM     20  N   UNL     1      -2.301   4.744  11.017  0.00  0.00    -0.227 N 
ATOM     21  C   UNL     1      -3.400   5.470  11.130  0.00  0.00    +0.260 C 
ATOM     22  O   UNL     1      -4.360   5.294  10.403  0.00  0.00    -0.269 OA
ATOM     23  C   UNL     1      -3.404   6.507  12.182  0.00  0.00    +0.080 C 
ATOM     24  C   UNL     1      -4.376   7.388  12.524  0.00  0.00    +0.031 C 
ATOM     25  S   UNL     1      -1.774   6.280  12.880  0.00  0.00    -0.026 S 
ATOM     26  C   UNL     1      -1.241   4.939  11.828  0.00  0.00    +0.286 C 
ATOM     27  O   UNL     1      -0.179   4.346  11.839  0.00  0.00    -0.262 OA
BRANCH  24  28
ATOM     28  C   UNL     1      -4.097   8.445  13.507  0.00  0.00    +0.011 A 
ATOM     29  C   UNL     1      -2.776   8.796  13.807  0.00  0.00    +0.011 A 
ATOM     30  C   UNL     1      -2.523   9.792  14.725  0.00  0.00    +0.001 A 
ATOM     31  C   UNL     1      -3.570  10.438  15.360  0.00  0.00    +0.003 A 
ATOM     32  C   UNL     1      -4.879  10.096  15.075  0.00  0.00    +0.039 A 
ATOM     33  C   UNL     1      -5.152   9.104  14.152  0.00  0.00    +0.131 A 
ATOM     34  F   UNL     1      -6.431   8.769  13.875  0.00  0.00    -0.205 F 
ENDBRANCH  24  28
ENDBRANCH  19  20
ENDBRANCH  18  19
ENDBRANCH   3  18
TORSDOF 7
