REMARK  Name = ZINC49418399
REMARK  5 active torsions:
REMARK  status: ('A' for Active; 'I' for Inactive)
REMARK    1  A    between atoms: C_1  and  C_2
REMARK    2  A    between atoms: C_8  and  C_10
REMARK    3  A    between atoms: C_10  and  S_11
REMARK    4  A    between atoms: S_11  and  C_12
REMARK    5  A    between atoms: C_13  and  N_18
REMARK                            x       y       z     vdW  Elec       q    Type
REMARK                         _______ _______ _______ _____ _____    ______ ____
ROOT
ATOM      1  C   UNL     1       0.089  -5.172   3.144  0.00  0.00    +0.172 C 
ENDROOT
BRANCH   1   9
ATOM      2  C   UNL     1      -0.018   1.503   0.010  0.00  0.00    +0.066 C 
ATOM      3  C   UNL     1       0.002  -0.004   0.002  0.00  0.00    +0.047 A 
ATOM      4  C   UNL     1       0.006  -0.706  -1.158  0.00  0.00    +0.071 A 
ATOM      5  S   UNL     1       0.032  -2.379  -0.535  0.00  0.00    -0.060 S 
ATOM      6  C   UNL     1       0.036  -2.015   1.108  0.00  0.00    +0.165 A 
ATOM      7  N   UNL     1       0.023  -0.700   1.124  0.00  0.00    -0.230 NA
ATOM      8  N   UNL     1       0.053  -2.891   2.187  0.00  0.00    -0.264 N 
ATOM      9  C   UNL     1       0.071  -4.222   1.974  0.00  0.00    +0.229 C 
ATOM     10  O   UNL     1       0.071  -4.655   0.841  0.00  0.00    -0.275 OA
ATOM     11  H   UNL     1       0.053  -2.545   3.093  0.00  0.00    +0.157 HD
ENDBRANCH   1   9
BRANCH   1  12
ATOM     12  S   UNL     1       0.110  -6.881   2.534  0.00  0.00    -0.094 S 
BRANCH  12  13
ATOM     13  C   UNL     1       0.131  -7.856   4.002  0.00  0.00    +0.128 A 
ATOM     14  C   UNL     1       0.156  -9.245   3.906  0.00  0.00    +0.158 A 
ATOM     15  C   UNL     1       0.172  -9.998   5.066  0.00  0.00    +0.037 A 
ATOM     16  C   UNL     1       0.162  -9.335   6.287  0.00  0.00    +0.022 A 
ATOM     17  C   UNL     1       0.138  -7.956   6.308  0.00  0.00    +0.112 A 
ATOM     18  N   UNL     1       0.128  -7.262   5.185  0.00  0.00    -0.246 NA
BRANCH  14  19
ATOM     19  N   UNL     1       0.164  -9.906   2.582  0.00  0.00    +0.059 N 
ATOM     20  O   UNL     1       0.185 -11.113   2.509  0.00  0.00    -0.126 OA
ATOM     21  O   UNL     1       0.149  -9.239   1.574  0.00  0.00    -0.126 OA
ENDBRANCH  14  19
ENDBRANCH  12  13
ENDBRANCH   1  12
TORSDOF 4
