REMARK  Name = ZINC41471672
REMARK  6 active torsions:
REMARK  status: ('A' for Active; 'I' for Inactive)
REMARK    1  A    between atoms: C_1  and  C_2
REMARK    2  A    between atoms: C_3  and  C_9
REMARK    3  A    between atoms: C_4  and  C_8
REMARK    4  A    between atoms: C_9  and  N_10
REMARK    5  A    between atoms: C_13  and  C_21
REMARK    6  A    between atoms: N_15  and  C_20
REMARK                            x       y       z     vdW  Elec       q    Type
REMARK                         _______ _______ _______ _____ _____    ______ ____
ROOT
ATOM      1  N   UNL     1       1.478  -0.684  -3.173  0.00  0.00    -0.324 N 
ATOM      2  C   UNL     1       1.700  -0.170  -4.436  0.00  0.00    +0.133 A 
ATOM      3  C   UNL     1       2.962   0.343  -4.794  0.00  0.00    +0.081 A 
ATOM      4  C   UNL     1       4.199   0.488  -4.131  0.00  0.00    +0.073 A 
ATOM      5  N   UNL     1       5.046   1.038  -4.953  0.00  0.00    -0.174 NA
ATOM      6  N   UNL     1       4.421   1.280  -6.183  0.00  0.00    -0.249 N 
ATOM      7  C   UNL     1       3.129   0.854  -6.096  0.00  0.00    +0.163 A 
ATOM      8  N   UNL     1       2.093   0.832  -6.933  0.00  0.00    -0.216 NA
ATOM      9  C   UNL     1       0.934   0.342  -6.552  0.00  0.00    +0.225 A 
ATOM     10  N   UNL     1       0.731  -0.153  -5.344  0.00  0.00    -0.220 NA
ATOM     11  C   UNL     1       5.047   1.889  -7.359  0.00  0.00    +0.174 C 
ATOM     12  C   UNL     1       4.491   0.077  -2.711  0.00  0.00    +0.068 C 
ATOM     13  H   UNL     1       2.214  -0.766  -2.546  0.00  0.00    +0.148 HD
ENDROOT
BRANCH   1  14
ATOM     14  C   UNL     1       0.131  -1.105  -2.781  0.00  0.00    +0.142 C 
BRANCH  14  17
ATOM     15  C   UNL     1      -0.311   0.589  -0.189  0.00  0.00    +0.065 C 
ATOM     16  C   UNL     1      -0.032  -0.891  -0.245  0.00  0.00    +0.038 A 
ATOM     17  C   UNL     1       0.159  -1.624  -1.366  0.00  0.00    +0.013 A 
ATOM     18  C   UNL     1       0.388  -2.949  -0.980  0.00  0.00    +0.065 A 
ATOM     19  N   UNL     1       0.335  -3.009   0.326  0.00  0.00    -0.179 NA
ATOM     20  N   UNL     1       0.077  -1.721   0.813  0.00  0.00    -0.281 N 
ATOM     21  H   UNL     1      -0.011  -1.470   1.746  0.00  0.00    +0.189 HD
ATOM     22  C   UNL     1       0.648  -4.107  -1.908  0.00  0.00    +0.068 C 
ENDBRANCH  14  17
ENDBRANCH   1  14
TORSDOF 2
