REMARK  Name = ZINC62323597
REMARK  1 active torsions:
REMARK  status: ('A' for Active; 'I' for Inactive)
REMARK    1  A    between atoms: N_13  and  C_14
REMARK                            x       y       z     vdW  Elec       q    Type
REMARK                         _______ _______ _______ _____ _____    ______ ____
ROOT
ATOM      1  C   UNL     1      -0.017   1.385   0.010  0.00  0.00    +0.045 A 
ATOM      2  C   UNL     1       1.172   2.091   0.002  0.00  0.00    +0.044 A 
ATOM      3  C   UNL     1       2.382   1.421  -0.012  0.00  0.00    +0.042 A 
ATOM      4  C   UNL     1       2.406   0.036  -0.018  0.00  0.00    +0.071 A 
ATOM      5  C   UNL     1       1.223  -0.670  -0.010  0.00  0.00    +0.152 A 
ATOM      6  C   UNL     1       0.002  -0.004   0.002  0.00  0.00    +0.063 A 
ATOM      7  N   UNL     1      -1.188  -0.726   0.001  0.00  0.00    -0.284 N 
ATOM      8  C   UNL     1      -1.294  -2.036   0.356  0.00  0.00    +0.205 C 
ATOM      9  N   UNL     1      -0.322  -2.888   0.387  0.00  0.00    -0.097 NA
ATOM     10  S   UNL     1       1.222  -2.434  -0.013  0.00  0.00    +0.105 S 
ATOM     11  O   UNL     1       1.434  -2.841  -1.358  0.00  0.00    -0.146 OA
ATOM     12  O   UNL     1       2.062  -2.847   1.056  0.00  0.00    -0.146 OA
ATOM     13  N   UNL     1      -2.542  -2.492   0.712  0.00  0.00    -0.313 N 
ATOM     14 CL   UNL     1       3.923  -0.808  -0.035  0.00  0.00    -0.081 Cl
ATOM     15 CL   UNL     1       1.145   3.827   0.010  0.00  0.00    -0.083 Cl
ATOM     16  H   UNL     1      -1.997  -0.265  -0.270  0.00  0.00    +0.155 HD
ATOM     17  H   UNL     1      -3.300  -1.888   0.703  0.00  0.00    +0.149 HD
ENDROOT
BRANCH  13  18
ATOM     18  C   UNL     1      -2.725  -3.892   1.104  0.00  0.00    +0.073 C 
ATOM     19  C   UNL     1      -3.943  -4.629   0.543  0.00  0.00    +0.024 C 
ATOM     20  C   UNL     1      -3.908  -4.220   2.017  0.00  0.00    +0.024 C 
ENDBRANCH  13  18
TORSDOF 1
