REMARK  Name = ZINC57869697
REMARK  7 active torsions:
REMARK  status: ('A' for Active; 'I' for Inactive)
REMARK    1  A    between atoms: C_1  and  C_2
REMARK    2  A    between atoms: C_2  and  N_3
REMARK    3  A    between atoms: C_7  and  N_10
REMARK    4  A    between atoms: C_19  and  C_21
REMARK    5  A    between atoms: C_21  and  C_22
REMARK    6  A    between atoms: C_21  and  C_23
REMARK    7  A    between atoms: C_21  and  C_24
REMARK                            x       y       z     vdW  Elec       q    Type
REMARK                         _______ _______ _______ _____ _____    ______ ____
ROOT
ATOM      1  N   UNL     1      -3.603  -3.518   1.431  0.00  0.00    -0.298 N 
ATOM      2  C   UNL     1      -4.493  -4.367   1.982  0.00  0.00    +0.302 C 
ATOM      3  O   UNL     1      -5.376  -3.940   2.700  0.00  0.00    -0.253 OA
ATOM      4  N   UNL     1      -4.404  -5.689   1.737  0.00  0.00    -0.283 N 
ATOM      5  C   UNL     1      -3.272  -6.234   0.975  0.00  0.00    +0.128 C 
ATOM      6  C   UNL     1      -2.597  -7.326   1.815  0.00  0.00    +0.127 C 
ATOM      7  N   UNL     1      -3.631  -8.248   2.305  0.00  0.00    -0.298 N 
ATOM      8  C   UNL     1      -4.763  -7.703   3.066  0.00  0.00    +0.127 C 
ATOM      9  C   UNL     1      -5.435  -6.612   2.231  0.00  0.00    +0.128 C 
ATOM     10  C   UNL     1      -3.542  -9.570   2.060  0.00  0.00    +0.221 C 
ATOM     11  O   UNL     1      -2.562 -10.020   1.504  0.00  0.00    -0.275 OA
ATOM     12  H   UNL     1      -2.856  -3.864   0.917  0.00  0.00    +0.150 HD
ENDROOT
BRANCH   1  17
ATOM     13  N   UNL     1      -2.563   0.063   1.637  0.00  0.00    +0.381 N 
ATOM     14  C   UNL     1      -3.421   0.602   0.574  0.00  0.00    -0.079 C 
ATOM     15  C   UNL     1      -4.819  -0.009   0.684  0.00  0.00    -0.017 C 
ATOM     16  C   UNL     1      -4.719  -1.530   0.540  0.00  0.00    +0.018 C 
ATOM     17  C   UNL     1      -3.763  -2.072   1.607  0.00  0.00    +0.058 C 
ATOM     18  C   UNL     1      -2.404  -1.385   1.462  0.00  0.00    -0.056 C 
ATOM     19  H   UNL     1      -2.986   0.249   2.534  0.00  0.00    -0.082 HD
BRANCH  13  21
ATOM     20  C   UNL     1      -1.394   2.202   1.880  0.00  0.00    -0.017 C 
ATOM     21  C   UNL     1      -1.245   0.710   1.575  0.00  0.00    -0.082 C 
ENDBRANCH  13  21
ENDBRANCH   1  17
BRANCH  10  22
ATOM     22  C   UNL     1      -4.660 -10.491   2.477  0.00  0.00    +0.039 C 
ATOM     23  C   UNL     1      -4.345 -11.916   2.019  0.00  0.00    +0.020 C 
ATOM     24  C   UNL     1      -4.801 -10.464   4.000  0.00  0.00    +0.020 C 
ATOM     25  C   UNL     1      -5.969 -10.027   1.835  0.00  0.00    +0.020 C 
ENDBRANCH  10  22
TORSDOF 3
