REMARK  Name = ZINC08890452
REMARK  7 active torsions:
REMARK  status: ('A' for Active; 'I' for Inactive)
REMARK    1  A    between atoms: C_1  and  C_2
REMARK    2  A    between atoms: C_8  and  C_10
REMARK    3  A    between atoms: C_10  and  O_11
REMARK    4  A    between atoms: O_11  and  C_12
REMARK    5  A    between atoms: C_12  and  C_14
REMARK    6  A    between atoms: C_25  and  C_35
REMARK    7  A    between atoms: C_29  and  C_30
REMARK                            x       y       z     vdW  Elec       q    Type
REMARK                         _______ _______ _______ _____ _____    ______ ____
ROOT
ATOM      1  C   UNL     1      -7.359  -4.182  -0.042  0.00  0.00    +0.073 A 
ATOM      2  C   UNL     1      -8.083  -3.711  -1.224  0.00  0.00    +0.015 A 
ATOM      3  C   UNL     1      -7.450  -3.575  -2.463  0.00  0.00    +0.011 A 
ATOM      4  C   UNL     1      -8.162  -3.131  -3.538  0.00  0.00    +0.001 A 
ATOM      5  C   UNL     1      -9.513  -2.812  -3.417  0.00  0.00    +0.002 A 
ATOM      6  C   UNL     1     -10.159  -2.934  -2.226  0.00  0.00    +0.028 A 
ATOM      7  C   UNL     1      -9.457  -3.389  -1.094  0.00  0.00    +0.072 A 
ATOM      8  N   UNL     1     -10.063  -3.521   0.085  0.00  0.00    -0.247 NA
ATOM      9  C   UNL     1      -9.431  -3.945   1.169  0.00  0.00    +0.072 A 
ATOM     10  C   UNL     1      -8.067  -4.290   1.147  0.00  0.00    -0.007 A 
ATOM     11  C   UNL     1      -7.348  -4.763   2.379  0.00  0.00    +0.041 C 
ATOM     12  C   UNL     1      -8.323  -5.335   3.405  0.00  0.00    -0.005 C 
ATOM     13  C   UNL     1      -9.411  -4.296   3.704  0.00  0.00    +0.041 C 
ATOM     14  C   UNL     1     -10.191  -4.065   2.430  0.00  0.00    -0.018 C 
ATOM     15  C   UNL     1     -11.538  -3.983   2.444  0.00  0.00    +0.052 C 
ATOM     16  C   UNL     1      -7.570  -5.674   4.692  0.00  0.00    +0.008 C 
ENDROOT
BRANCH  15  17
ATOM     17  C   UNL     1     -12.255  -3.937   3.719  0.00  0.00    +0.128 A 
ATOM     18  C   UNL     1     -13.612  -3.978   3.879  0.00  0.00    +0.049 A 
ATOM     19  C   UNL     1     -13.857  -3.908   5.261  0.00  0.00    +0.042 A 
ATOM     20  C   UNL     1     -12.658  -3.828   5.874  0.00  0.00    +0.195 A 
ATOM     21  O   UNL     1     -11.693  -3.851   4.941  0.00  0.00    -0.464 OA
ENDBRANCH  15  17
BRANCH   1  22
ATOM     22  C   UNL     1      -5.926  -4.536  -0.114  0.00  0.00    +0.341 C 
ATOM     23  O   UNL     1      -5.593  -5.672  -0.386  0.00  0.00    -0.245 OA
BRANCH  22  24
ATOM     24  O   UNL     1      -4.988  -3.599   0.123  0.00  0.00    -0.452 OA
BRANCH  24  25
ATOM     25  C   UNL     1      -3.622  -4.011   0.037  0.00  0.00    +0.328 C 
BRANCH  25  33
ATOM     26  C   UNL     1       0.134   1.627   1.442  0.00  0.00    +0.089 C 
ATOM     27  C   UNL     1       0.121   0.162   1.087  0.00  0.00    +0.136 A 
ATOM     28  C   UNL     1      -0.974  -0.593   0.893  0.00  0.00    +0.091 A 
ATOM     29  C   UNL     1      -0.553  -1.904   0.579  0.00  0.00    +0.168 A 
ATOM     30  N   UNL     1       0.755  -1.919   0.588  0.00  0.00    -0.063 NA
ATOM     31  O   UNL     1       1.202  -0.613   0.904  0.00  0.00    -0.358 OA
ATOM     32  N   UNL     1      -1.385  -2.991   0.307  0.00  0.00    -0.265 N 
ATOM     33  C   UNL     1      -2.724  -2.837   0.331  0.00  0.00    +0.256 C 
ATOM     34  O   UNL     1      -3.205  -1.754   0.589  0.00  0.00    -0.272 OA
ATOM     35  H   UNL     1      -1.000  -3.857   0.101  0.00  0.00    +0.156 HD
ENDBRANCH  25  33
ENDBRANCH  24  25
ENDBRANCH  22  24
ENDBRANCH   1  22
TORSDOF 5
