REMARK  Name = ZINC10047897
REMARK  7 active torsions:
REMARK  status: ('A' for Active; 'I' for Inactive)
REMARK    1  A    between atoms: C_1  and  C_2
REMARK    2  A    between atoms: N_4  and  C_25
REMARK    3  A    between atoms: N_13  and  C_18
REMARK    4  A    between atoms: N_16  and  C_17
REMARK    5  A    between atoms: C_18  and  C_19
REMARK    6  A    between atoms: C_19  and  N_67
REMARK    7  A    between atoms: C_25  and  C_26
REMARK                            x       y       z     vdW  Elec       q    Type
REMARK                         _______ _______ _______ _____ _____    ______ ____
ROOT
ATOM      1  C   UNL     1      -0.369   0.984  -2.545  0.00  0.00    +0.064 C 
ATOM      2  C   UNL     1      -0.738   1.583  -1.212  0.00  0.00    +0.054 C 
ATOM      3  N   UNL     1      -1.641   2.475  -1.190  0.00  0.00    -0.184 NA
ATOM      4  N   UNL     1      -2.069   3.094  -0.005  0.00  0.00    -0.188 N 
ATOM      5  C   UNL     1      -1.671   2.520   1.186  0.00  0.00    +0.221 A 
ATOM      6  N   UNL     1      -2.096   2.750   2.405  0.00  0.00    -0.195 NA
ATOM      7  C   UNL     1      -1.449   1.973   3.256  0.00  0.00    +0.170 A 
ATOM      8  C   UNL     1      -0.541   1.193   2.522  0.00  0.00    +0.153 A 
ATOM      9  N   UNL     1      -0.695   1.556   1.213  0.00  0.00    -0.299 N 
ATOM     10  C   UNL     1      -0.013   1.086   0.008  0.00  0.00    +0.177 C 
ATOM     11  C   UNL     1       0.291   0.262   3.175  0.00  0.00    +0.282 A 
ATOM     12  O   UNL     1       1.087  -0.427   2.562  0.00  0.00    -0.265 OA
ATOM     13  N   UNL     1       0.162   0.176   4.522  0.00  0.00    -0.261 N 
ATOM     14  C   UNL     1      -0.708   0.926   5.213  0.00  0.00    +0.333 A 
ATOM     15  O   UNL     1      -0.761   0.786   6.420  0.00  0.00    -0.246 OA
ATOM     16  N   UNL     1      -1.530   1.832   4.635  0.00  0.00    -0.280 N 
ATOM     17  C   UNL     1      -2.466   2.631   5.430  0.00  0.00    +0.155 C 
ENDROOT
BRANCH  13  18
ATOM     18  C   UNL     1       1.005  -0.776   5.250  0.00  0.00    +0.111 C 
BRANCH  18  19
ATOM     19  C   UNL     1       0.290  -2.125   5.340  0.00  0.00    -0.057 C 
BRANCH  19  25
ATOM     20  C   UNL     1       2.362  -3.377   5.320  0.00  0.00    -0.079 C 
ATOM     21  C   UNL     1       3.282  -4.256   6.171  0.00  0.00    -0.019 C 
ATOM     22  C   UNL     1       2.553  -5.553   6.529  0.00  0.00    -0.004 C 
ATOM     23  C   UNL     1       1.255  -5.213   7.267  0.00  0.00    -0.019 C 
ATOM     24  C   UNL     1       0.394  -4.307   6.384  0.00  0.00    -0.079 C 
ATOM     25  N   UNL     1       1.143  -3.066   6.096  0.00  0.00    +0.381 N 
ATOM     26  H   UNL     1       1.417  -2.628   6.984  0.00  0.00    -0.082 HD
ENDBRANCH  19  25
ENDBRANCH  18  19
ENDBRANCH  13  18
BRANCH   4  27
ATOM     27  C   UNL     1      -2.903   4.298  -0.031  0.00  0.00    +0.170 C 
BRANCH  27  28
ATOM     28  C   UNL     1      -2.021   5.520  -0.040  0.00  0.00    -0.020 A 
ATOM     29  C   UNL     1      -1.802   6.215   1.110  0.00  0.00    +0.006 A 
ATOM     30  C   UNL     1      -0.984   7.343   1.122  0.00  0.00    +0.001 A 
ATOM     31  C   UNL     1      -0.391   7.790  -0.018  0.00  0.00    +0.008 A 
ATOM     32  C   UNL     1      -0.599   7.103  -1.226  0.00  0.00    -0.018 A 
ATOM     33  C   UNL     1      -1.425   5.952  -1.237  0.00  0.00    -0.013 A 
ATOM     34  C   UNL     1      -1.633   5.265  -2.446  0.00  0.00    +0.009 A 
ATOM     35  C   UNL     1      -1.040   5.713  -3.586  0.00  0.00    +0.001 A 
ATOM     36  C   UNL     1      -0.228   6.845  -3.575  0.00  0.00    +0.001 A 
ATOM     37  C   UNL     1      -0.003   7.536  -2.424  0.00  0.00    +0.008 A 
ENDBRANCH  27  28
ENDBRANCH   4  27
TORSDOF 5
