REMARK  Name = ZINC40477173
REMARK  6 active torsions:
REMARK  status: ('A' for Active; 'I' for Inactive)
REMARK    1  A    between atoms: C_3  and  C_11
REMARK    2  A    between atoms: C_5  and  C_7
REMARK    3  A    between atoms: C_11  and  N_12
REMARK    4  A    between atoms: N_17  and  C_20
REMARK    5  A    between atoms: C_20  and  C_21
REMARK    6  A    between atoms: N_23  and  C_24
REMARK                            x       y       z     vdW  Elec       q    Type
REMARK                         _______ _______ _______ _____ _____    ______ ____
ROOT
ATOM      1  N   UNL     1       4.109   2.421   1.362  0.00  0.00    -0.222 N 
ATOM      2  C   UNL     1       3.785   3.495   2.136  0.00  0.00    +0.186 A 
ATOM      3  C   UNL     1       4.417   3.289   3.368  0.00  0.00    +0.196 A 
ATOM      4  C   UNL     1       4.237   4.307   4.406  0.00  0.00    +0.284 A 
ATOM      5  O   UNL     1       4.759   4.191   5.501  0.00  0.00    -0.265 OA
ATOM      6  N   UNL     1       3.470   5.380   4.106  0.00  0.00    -0.288 N 
ATOM      7  C   UNL     1       2.897   5.492   2.882  0.00  0.00    +0.205 A 
ATOM      8  N   UNL     1       3.046   4.598   1.948  0.00  0.00    -0.216 NA
ATOM      9  N   UNL     1       5.086   2.129   3.304  0.00  0.00    -0.122 NA
ATOM     10  N   UNL     1       4.924   1.591   2.146  0.00  0.00    -0.063 NA
ENDROOT
BRANCH   1  11
ATOM     11  C   UNL     1       3.683   2.178  -0.019  0.00  0.00    +0.182 C 
BRANCH  11  14
ATOM     12  C   UNL     1      -0.009   1.388  -0.009  0.00  0.00    +0.001 A 
ATOM     13  C   UNL     1       1.182   2.091  -0.010  0.00  0.00    +0.005 A 
ATOM     14  C   UNL     1       2.385   1.412  -0.017  0.00  0.00    -0.025 A 
ATOM     15  C   UNL     1       2.398   0.029  -0.022  0.00  0.00    +0.017 A 
ATOM     16  C   UNL     1       1.208  -0.673  -0.020  0.00  0.00    +0.055 A 
ATOM     17  C   UNL     1       0.004   0.006  -0.015  0.00  0.00    +0.012 A 
BRANCH  16  18
ATOM     18  C   UNL     1       1.223  -2.180  -0.027  0.00  0.00    +0.417 C 
ATOM     19  F   UNL     1       1.233  -2.653   1.290  0.00  0.00    -0.166 F 
ATOM     20  F   UNL     1       0.082  -2.655  -0.684  0.00  0.00    -0.166 F 
ATOM     21  F   UNL     1       2.367  -2.633  -0.693  0.00  0.00    -0.166 F 
ENDBRANCH  16  18
ENDBRANCH  11  14
ENDBRANCH   1  11
BRANCH   6  22
ATOM     22  C   UNL     1       3.257   6.427   5.108  0.00  0.00    +0.222 C 
BRANCH  22  23
ATOM     23  C   UNL     1       4.333   7.474   4.978  0.00  0.00    +0.237 C 
ATOM     24  O   UNL     1       5.193   7.358   4.130  0.00  0.00    -0.274 OA
ATOM     25  N   UNL     1       4.339   8.540   5.802  0.00  0.00    -0.284 N 
ATOM     26  H   UNL     1       3.615   8.669   6.434  0.00  0.00    +0.155 HD
BRANCH  25  27
ATOM     27  C   UNL     1       5.391   9.463   5.746  0.00  0.00    +0.036 A 
ATOM     28  C   UNL     1       5.843  10.074   6.908  0.00  0.00    +0.026 A 
ATOM     29  C   UNL     1       6.880  10.984   6.852  0.00  0.00    +0.043 A 
ATOM     30  C   UNL     1       7.472  11.287   5.638  0.00  0.00    +0.159 A 
ATOM     31  C   UNL     1       7.023  10.679   4.475  0.00  0.00    +0.160 A 
ATOM     32  C   UNL     1       5.988   9.763   4.529  0.00  0.00    +0.064 A 
ATOM     33  F   UNL     1       7.601  10.976   3.291  0.00  0.00    -0.202 F 
ATOM     34  F   UNL     1       8.486  12.178   5.585  0.00  0.00    -0.202 F 
ENDBRANCH  25  27
ENDBRANCH  22  23
ENDBRANCH   6  22
TORSDOF 6
