REMARK  Name = ZINC20340031
REMARK  5 active torsions:
REMARK  status: ('A' for Active; 'I' for Inactive)
REMARK    1  A    between atoms: C_1  and  C_2
REMARK    2  A    between atoms: C_2  and  C_3
REMARK    3  A    between atoms: C_6  and  C_9
REMARK    4  A    between atoms: N_13  and  C_22
REMARK    5  A    between atoms: C_16  and  N_21
REMARK                            x       y       z     vdW  Elec       q    Type
REMARK                         _______ _______ _______ _____ _____    ______ ____
ROOT
ATOM      1  C   UNL     1      -5.391  -1.995   0.043  0.00  0.00    +0.059 C 
ATOM      2  C   UNL     1      -5.978  -2.331   1.213  0.00  0.00    +0.191 C 
ATOM      3  C   UNL     1      -5.303  -2.104   2.509  0.00  0.00    +0.286 C 
ATOM      4  O   UNL     1      -4.090  -2.052   2.588  0.00  0.00    -0.266 OA
ATOM      5  N   UNL     1      -6.091  -1.952   3.603  0.00  0.00    -0.265 N 
ATOM      6  C   UNL     1      -7.482  -2.013   3.449  0.00  0.00    +0.081 A 
ATOM      7  C   UNL     1      -8.312  -1.596   4.479  0.00  0.00    +0.050 A 
ATOM      8  C   UNL     1      -9.690  -1.655   4.324  0.00  0.00    +0.027 A 
ATOM      9  C   UNL     1     -10.238  -2.132   3.139  0.00  0.00    +0.026 A 
ATOM     10  C   UNL     1      -9.412  -2.547   2.112  0.00  0.00    +0.050 A 
ATOM     11  C   UNL     1      -8.036  -2.491   2.262  0.00  0.00    +0.150 A 
ATOM     12  O   UNL     1      -7.221  -2.902   1.250  0.00  0.00    -0.449 OA
ATOM     13  C   UNL     1      -5.496  -1.733   4.924  0.00  0.00    +0.139 C 
ENDROOT
BRANCH   1  17
ATOM     14  C   UNL     1      -1.796   0.258   0.044  0.00  0.00    -0.048 A 
ATOM     15  C   UNL     1      -1.983  -0.741  -0.896  0.00  0.00    +0.004 A 
ATOM     16  C   UNL     1      -3.146  -1.481  -0.899  0.00  0.00    +0.008 A 
ATOM     17  C   UNL     1      -4.144  -1.214   0.043  0.00  0.00    -0.021 A 
ATOM     18  C   UNL     1      -3.950  -0.199   0.987  0.00  0.00    +0.008 A 
ATOM     19  C   UNL     1      -2.779   0.529   0.981  0.00  0.00    +0.004 A 
BRANCH  14  21
ATOM     20  C   UNL     1       0.510   0.376   0.948  0.00  0.00    +0.009 C 
ATOM     21  C   UNL     1      -0.520   1.058   0.045  0.00  0.00    +0.032 C 
ENDBRANCH  14  21
ENDBRANCH   1  17
BRANCH   8  22
ATOM     22  N   UNL     1     -10.529  -1.235   5.362  0.00  0.00    -0.358 N 
ATOM     23  H   UNL     1     -11.621  -1.281   5.240  0.00  0.00    +0.142 HD
ATOM     24  H   UNL     1     -10.096  -0.857   6.300  0.00  0.00    +0.142 HD
ENDBRANCH   8  22
TORSDOF 3
