REMARK  Name = ZINC02350992
REMARK  6 active torsions:
REMARK  status: ('A' for Active; 'I' for Inactive)
REMARK    1  A    between atoms: C_1  and  C_2
REMARK    2  A    between atoms: N_8  and  C_9
REMARK    3  A    between atoms: C_9  and  C_10
REMARK    4  A    between atoms: C_15  and  C_23
REMARK    5  A    between atoms: C_17  and  C_21
REMARK    6  A    between atoms: C_18  and  N_20
REMARK                            x       y       z     vdW  Elec       q    Type
REMARK                         _______ _______ _______ _____ _____    ______ ____
ROOT
ATOM      1  C   UNL     1      -3.978   3.521   1.263  0.00  0.00    +0.064 C 
ATOM      2  C   UNL     1      -3.005   4.380   2.029  0.00  0.00    +0.023 A 
ATOM      3  C   UNL     1      -3.367   4.893   3.224  0.00  0.00    +0.068 A 
ATOM      4  C   UNL     1      -2.463   5.702   3.942  0.00  0.00    +0.141 A 
ATOM      5  C   UNL     1      -1.217   5.949   3.406  0.00  0.00    +0.075 A 
ATOM      6  C   UNL     1      -0.883   5.392   2.165  0.00  0.00    +0.260 A 
ATOM      7  O   UNL     1       0.216   5.603   1.677  0.00  0.00    -0.267 OA
ATOM      8  N   UNL     1      -1.774   4.625   1.509  0.00  0.00    -0.305 N 
ATOM      9  C   UNL     1      -0.221   6.806   4.138  0.00  0.00    +0.139 C 
ATOM     10  C   UNL     1      -0.912   7.601   5.211  0.00  0.00    +0.101 C 
ATOM     11  C   UNL     1      -2.152   7.271   5.641  0.00  0.00    +0.199 C 
ATOM     12  O   UNL     1      -2.824   6.222   5.135  0.00  0.00    -0.441 OA
ENDROOT
BRANCH   9  13
ATOM     13  C   UNL     1       0.439   7.748   3.165  0.00  0.00    +0.118 A 
ATOM     14  C   UNL     1       1.756   7.807   2.897  0.00  0.00    +0.045 A 
ATOM     15  C   UNL     1       1.933   8.825   1.932  0.00  0.00    +0.041 A 
ATOM     16  C   UNL     1       0.714   9.327   1.667  0.00  0.00    +0.195 A 
ATOM     17  O   UNL     1      -0.188   8.667   2.413  0.00  0.00    -0.467 OA
ENDBRANCH   9  13
BRANCH  11  18
ATOM     18  N   UNL     1      -2.741   8.028   6.623  0.00  0.00    -0.328 N 
ATOM     19  H   UNL     1      -2.269   8.788   6.998  0.00  0.00    +0.145 HD
ATOM     20  H   UNL     1      -3.629   7.804   6.941  0.00  0.00    +0.145 HD
ENDBRANCH  11  18
BRANCH  10  21
ATOM     21  C   UNL     1      -0.246   8.730   5.787  0.00  0.00    +0.101 C 
ATOM     22  N   UNL     1       0.282   9.626   6.245  0.00  0.00    -0.191 NA
ENDBRANCH  10  21
BRANCH   8  23
ATOM     23  C   UNL     1      -1.412   4.050   0.211  0.00  0.00    +0.199 C 
BRANCH  23  24
ATOM     24  C   UNL     1      -1.740   5.033  -0.883  0.00  0.00    +0.125 A 
ATOM     25  C   UNL     1      -0.911   5.973  -1.371  0.00  0.00    +0.046 A 
ATOM     26  C   UNL     1      -1.625   6.667  -2.375  0.00  0.00    +0.041 A 
ATOM     27  C   UNL     1      -2.844   6.104  -2.447  0.00  0.00    +0.195 A 
ATOM     28  O   UNL     1      -2.909   5.115  -1.541  0.00  0.00    -0.466 OA
ENDBRANCH  23  24
ENDBRANCH   8  23
TORSDOF 5
