REMARK  Name = ZINC44075589
REMARK  7 active torsions:
REMARK  status: ('A' for Active; 'I' for Inactive)
REMARK    1  A    between atoms: C_1  and  C_2
REMARK    2  A    between atoms: C_13  and  C_15
REMARK    3  A    between atoms: N_17  and  C_18
REMARK    4  A    between atoms: C_18  and  C_19
REMARK    5  A    between atoms: C_18  and  C_20
REMARK    6  A    between atoms: C_18  and  C_21
REMARK    7  A    between atoms: C_26  and  C_32
REMARK                            x       y       z     vdW  Elec       q    Type
REMARK                         _______ _______ _______ _____ _____    ______ ____
ROOT
ATOM      1  C   UNL     1      -0.349   1.713   0.106  0.00  0.00    +0.012 C 
ATOM      2  C   UNL     1      -0.106   0.206   0.000  0.00  0.00    -0.018 C 
ATOM      3  C   UNL     1       0.522  -0.175  -1.342  0.00  0.00    +0.008 C 
ATOM      4  C   UNL     1       1.976   0.287  -1.408  0.00  0.00    +0.005 C 
ATOM      5  C   UNL     1       2.769  -0.436  -0.314  0.00  0.00    +0.004 C 
ATOM      6  C   UNL     1       2.211  -0.019   1.045  0.00  0.00    -0.003 C 
ATOM      7  C   UNL     1       0.747  -0.320   1.168  0.00  0.00    -0.001 C 
ATOM      8  C   UNL     1       0.462  -1.833   1.169  0.00  0.00    +0.005 C 
ATOM      9  C   UNL     1      -1.050  -1.915   0.857  0.00  0.00    +0.013 C 
ATOM     10  C   UNL     1      -1.423  -0.605   0.136  0.00  0.00    +0.081 C 
ATOM     11  C   UNL     1       2.998  -0.723   2.154  0.00  0.00    +0.006 C 
ATOM     12  C   UNL     1       4.468  -0.307   2.069  0.00  0.00    +0.023 C 
ATOM     13  C   UNL     1       5.039  -0.694   0.709  0.00  0.00    +0.083 C 
ATOM     14  C   UNL     1       4.245  -0.045  -0.425  0.00  0.00    +0.008 C 
ATOM     15  C   UNL     1       4.775  -0.534  -1.753  0.00  0.00    -0.013 C 
ATOM     16  C   UNL     1       5.167  -1.802  -1.868  0.00  0.00    +0.063 C 
ATOM     17  C   UNL     1       5.060  -2.695  -0.699  0.00  0.00    +0.237 C 
ATOM     18  O   UNL     1       5.007  -3.901  -0.849  0.00  0.00    -0.271 OA
ATOM     19  N   UNL     1       5.012  -2.145   0.533  0.00  0.00    -0.308 N 
ATOM     20  C   UNL     1       4.384   1.476  -0.329  0.00  0.00    +0.017 C 
ATOM     21  H   UNL     1       4.962  -2.729   1.306  0.00  0.00    +0.149 HD
ENDROOT
BRANCH  10  22
ATOM     22  C   UNL     1      -1.988  -0.907  -1.228  0.00  0.00    +0.217 C 
ATOM     23  O   UNL     1      -1.728  -1.959  -1.772  0.00  0.00    -0.275 OA
ATOM     24  N   UNL     1      -2.781  -0.008  -1.842  0.00  0.00    -0.310 N 
ATOM     25  H   UNL     1      -2.989   0.834  -1.407  0.00  0.00    +0.149 HD
BRANCH  24  26
ATOM     26  C   UNL     1      -3.331  -0.301  -3.168  0.00  0.00    +0.026 C 
ATOM     27  C   UNL     1      -4.191  -1.565  -3.096  0.00  0.00    +0.031 C 
ATOM     28  C   UNL     1      -4.191   0.875  -3.636  0.00  0.00    +0.031 C 
ATOM     29  C   UNL     1      -2.185  -0.521  -4.158  0.00  0.00    +0.031 C 
ENDBRANCH  24  26
ENDBRANCH  10  22
TORSDOF 2
