REMARK  Name = ZINC17096914
REMARK  7 active torsions:
REMARK  status: ('A' for Active; 'I' for Inactive)
REMARK    1  A    between atoms: C_1  and  C_2
REMARK    2  A    between atoms: C_3  and  C_30
REMARK    3  A    between atoms: C_4  and  N_12
REMARK    4  A    between atoms: C_6  and  C_7
REMARK    5  A    between atoms: N_9  and  C_10
REMARK    6  A    between atoms: N_9  and  C_11
REMARK    7  A    between atoms: C_13  and  C_15
REMARK                            x       y       z     vdW  Elec       q    Type
REMARK                         _______ _______ _______ _____ _____    ______ ____
ROOT
ATOM      1  N   UNL     1      -3.884   2.062   0.573  0.00  0.00    -0.275 N 
ATOM      2  C   UNL     1      -2.889   1.718  -0.268  0.00  0.00    +0.254 C 
ATOM      3  O   UNL     1      -2.984   0.711  -0.944  0.00  0.00    -0.270 OA
ATOM      4  H   UNL     1      -3.798   2.972   1.184  0.00  0.00    +0.156 HD
ENDROOT
BRANCH   2   5
ATOM      5  C   UNL     1      -1.688   2.558  -0.368  0.00  0.00    +0.097 A 
ATOM      6  C   UNL     1      -1.561   3.706   0.398  0.00  0.00    +0.030 A 
ATOM      7  C   UNL     1      -0.393   4.487   0.266  0.00  0.00    +0.026 A 
ATOM      8  C   UNL     1      -0.224   5.710   1.054  0.00  0.00    -0.007 A 
ATOM      9  C   UNL     1      -1.203   6.141   1.954  0.00  0.00    +0.009 A 
ATOM     10  C   UNL     1      -1.005   7.287   2.668  0.00  0.00    +0.001 A 
ATOM     11  C   UNL     1       0.160   8.033   2.513  0.00  0.00    +0.001 A 
ATOM     12  C   UNL     1       1.133   7.639   1.644  0.00  0.00    +0.008 A 
ATOM     13  C   UNL     1       0.961   6.465   0.893  0.00  0.00    -0.017 A 
ATOM     14  C   UNL     1       1.945   6.026  -0.015  0.00  0.00    +0.012 A 
ATOM     15  C   UNL     1       1.774   4.891  -0.738  0.00  0.00    +0.047 A 
ATOM     16  C   UNL     1       0.622   4.105  -0.620  0.00  0.00    +0.138 A 
ATOM     17  O   UNL     1       0.502   2.984  -1.364  0.00  0.00    -0.439 OA
ATOM     18  C   UNL     1      -0.591   2.198  -1.281  0.00  0.00    +0.205 A 
ATOM     19  N   UNL     1      -0.677   1.119  -2.014  0.00  0.00    -0.369 N 
ATOM     20  H   UNL     1       0.143   0.851  -2.696  0.00  0.00    +0.159 HD
ATOM     21  H   UNL     1      -1.571   0.481  -1.949  0.00  0.00    +0.159 HD
ENDBRANCH   2   5
BRANCH   1  25
ATOM     22  C   UNL     1      -8.406   0.641   2.220  0.00  0.00    +0.046 C 
ATOM     23  C   UNL     1      -7.156   0.517   1.387  0.00  0.00    -0.012 A 
ATOM     24  C   UNL     1      -6.142   1.457   1.471  0.00  0.00    +0.084 A 
ATOM     25  C   UNL     1      -5.013   1.272   0.667  0.00  0.00    +0.090 A 
ATOM     26  S   UNL     1      -5.382  -0.190  -0.188  0.00  0.00    -0.067 S 
ATOM     27  C   UNL     1      -6.982  -0.530   0.522  0.00  0.00    +0.080 A 
BRANCH  27  28
ATOM     28  C   UNL     1      -7.887  -1.647   0.244  0.00  0.00    +0.253 C 
ATOM     29  O   UNL     1      -9.091  -1.484   0.307  0.00  0.00    -0.269 OA
ATOM     30  N   UNL     1      -7.386  -2.855  -0.082  0.00  0.00    -0.303 N 
ATOM     31  C   UNL     1      -8.291  -3.954  -0.429  0.00  0.00    +0.132 C 
ATOM     32  C   UNL     1      -5.937  -3.070  -0.089  0.00  0.00    +0.132 C 
ENDBRANCH  27  28
BRANCH  24  33
ATOM     33  C   UNL     1      -6.246   2.581   2.352  0.00  0.00    +0.102 C 
ATOM     34  N   UNL     1      -6.329   3.473   3.051  0.00  0.00    -0.191 NA
ENDBRANCH  24  33
ENDBRANCH   1  25
TORSDOF 4
