REMARK  Name = ZINC38827732
REMARK  9 active torsions:
REMARK  status: ('A' for Active; 'I' for Inactive)
REMARK    1  A    between atoms: C_1  and  C_2
REMARK    2  A    between atoms: C_2  and  O_3
REMARK    3  A    between atoms: O_3  and  C_4
REMARK    4  A    between atoms: C_4  and  C_6
REMARK    5  A    between atoms: C_10  and  N_11
REMARK    6  A    between atoms: C_12  and  C_14
REMARK    7  A    between atoms: C_14  and  C_16
REMARK    8  A    between atoms: C_14  and  N_17
REMARK    9  A    between atoms: C_22  and  C_24
REMARK                            x       y       z     vdW  Elec       q    Type
REMARK                         _______ _______ _______ _____ _____    ______ ____
ROOT
ATOM      1  N   UNL     1      -3.030  -2.521   2.497  0.00  0.00    -0.278 N 
ATOM      2  C   UNL     1      -3.804  -2.864   3.546  0.00  0.00    +0.242 C 
ATOM      3  O   UNL     1      -4.905  -3.336   3.358  0.00  0.00    -0.273 OA
ATOM      4  H   UNL     1      -2.149  -2.144   2.648  0.00  0.00    +0.155 HD
ENDROOT
BRANCH   1   9
ATOM      5  C   UNL     1      -2.842  -2.416   0.016  0.00  0.00    +0.091 A 
ATOM      6  C   UNL     1      -3.548  -2.714  -1.223  0.00  0.00    -0.021 A 
ATOM      7  C   UNL     1      -4.778  -3.237  -1.040  0.00  0.00    -0.004 A 
ATOM      8  S   UNL     1      -4.971  -3.335   0.717  0.00  0.00    -0.077 S 
ATOM      9  C   UNL     1      -3.493  -2.707   1.204  0.00  0.00    +0.086 A 
ATOM     10  C   UNL     1      -5.768  -3.635  -2.090  0.00  0.00    +0.043 C 
ATOM     11  C   UNL     1      -5.064  -4.501  -3.143  0.00  0.00    +0.005 C 
ATOM     12  C   UNL     1      -4.498  -3.587  -4.226  0.00  0.00    +0.001 C 
ATOM     13  C   UNL     1      -4.064  -2.255  -3.619  0.00  0.00    +0.005 C 
ATOM     14  C   UNL     1      -2.949  -2.471  -2.601  0.00  0.00    +0.037 C 
BRANCH   5  15
ATOM     15  C   UNL     1      -1.497  -1.838   0.006  0.00  0.00    +0.342 C 
ATOM     16  O   UNL     1      -0.523  -2.566  -0.007  0.00  0.00    -0.245 OA
BRANCH  15  17
ATOM     17  O   UNL     1      -1.339  -0.499   0.012  0.00  0.00    -0.461 OA
BRANCH  17  19
ATOM     18  C   UNL     1      -0.019   1.526   0.010  0.00  0.00    +0.048 C 
ATOM     19  C   UNL     1       0.002  -0.004   0.002  0.00  0.00    +0.229 C 
ENDBRANCH  17  19
ENDBRANCH  15  17
ENDBRANCH   5  15
ENDBRANCH   1   9
BRANCH   2  20
ATOM     20  C   UNL     1      -3.300  -2.661   4.952  0.00  0.00    +0.194 C 
ATOM     21  C   UNL     1      -2.019  -3.473   5.157  0.00  0.00    +0.043 C 
BRANCH  20  22
ATOM     22  N   UNL     1      -4.319  -3.109   5.905  0.00  0.00    -0.217 N 
ATOM     23  C   UNL     1      -4.828  -2.224   6.783  0.00  0.00    +0.268 A 
ATOM     24  O   UNL     1      -4.443  -1.066   6.782  0.00  0.00    -0.266 OA
ATOM     25  C   UNL     1      -5.811  -2.646   7.705  0.00  0.00    +0.074 A 
ATOM     26  C   UNL     1      -6.207  -3.950   7.664  0.00  0.00    +0.035 A 
ATOM     27  C   UNL     1      -5.612  -4.801   6.703  0.00  0.00    +0.092 A 
ATOM     28  N   UNL     1      -4.707  -4.332   5.876  0.00  0.00    -0.168 NA
BRANCH  27  29
ATOM     29  C   UNL     1      -6.015  -6.226   6.627  0.00  0.00    +0.006 A 
ATOM     30  C   UNL     1      -5.426  -7.069   5.686  0.00  0.00    +0.014 A 
ATOM     31  C   UNL     1      -5.802  -8.394   5.615  0.00  0.00    +0.050 A 
ATOM     32  C   UNL     1      -6.766  -8.893   6.479  0.00  0.00    +0.166 A 
ATOM     33  C   UNL     1      -7.357  -8.055   7.423  0.00  0.00    +0.167 A 
ATOM     34  C   UNL     1      -6.979  -6.726   7.500  0.00  0.00    +0.059 A 
ATOM     35  O   UNL     1      -8.263  -8.779   8.143  0.00  0.00    -0.453 OA
ATOM     36  C   UNL     1      -8.515  -9.963   7.363  0.00  0.00    +0.466 C 
ATOM     37  O   UNL     1      -7.301 -10.142   6.610  0.00  0.00    -0.453 OA
ENDBRANCH  27  29
ENDBRANCH  20  22
ENDBRANCH   2  20
TORSDOF 7
