REMARK  Name = ZINC39779645
REMARK  4 active torsions:
REMARK  status: ('A' for Active; 'I' for Inactive)
REMARK    1  A    between atoms: C_8  and  C_13
REMARK    2  A    between atoms: C_13  and  C_14
REMARK    3  A    between atoms: C_14  and  C_15
REMARK    4  A    between atoms: C_23  and  C_25
REMARK                            x       y       z     vdW  Elec       q    Type
REMARK                         _______ _______ _______ _____ _____    ______ ____
ROOT
ATOM      1  C   UNL     1       1.776  -5.604  -2.420  0.00  0.00    +0.216 C 
ATOM      2  O   UNL     1       2.654  -5.440  -3.241  0.00  0.00    -0.276 OA
ATOM      3  N   UNL     1       0.823  -6.534  -2.628  0.00  0.00    -0.298 N 
ATOM      4  C   UNL     1      -0.249  -6.739  -1.645  0.00  0.00    +0.126 C 
ATOM      5  C   UNL     1      -1.601  -6.590  -2.355  0.00  0.00    +0.127 C 
ATOM      6  N   UNL     1      -1.586  -7.417  -3.570  0.00  0.00    -0.295 N 
ATOM      7  C   UNL     1      -0.513  -7.212  -4.553  0.00  0.00    +0.127 C 
ATOM      8  C   UNL     1       0.835  -7.357  -3.845  0.00  0.00    +0.126 C 
ATOM      9  C   UNL     1      -2.539  -8.348  -3.778  0.00  0.00    +0.260 C 
ATOM     10  O   UNL     1      -2.566  -8.966  -4.821  0.00  0.00    -0.271 OA
ENDROOT
BRANCH   9  11
ATOM     11  C   UNL     1      -3.571  -8.620  -2.714  0.00  0.00    +0.296 C 
ATOM     12  C   UNL     1      -4.573  -7.458  -2.656  0.00  0.00    +0.283 C 
ATOM     13  O   UNL     1      -5.545  -7.755  -1.648  0.00  0.00    -0.484 OA
ATOM     14  C   UNL     1      -6.071  -9.010  -1.656  0.00  0.00    +0.162 A 
ATOM     15  C   UNL     1      -7.249  -9.259  -0.968  0.00  0.00    +0.049 A 
ATOM     16  C   UNL     1      -7.794 -10.530  -0.965  0.00  0.00    +0.004 A 
ATOM     17  C   UNL     1      -7.166 -11.555  -1.647  0.00  0.00    +0.004 A 
ATOM     18  C   UNL     1      -5.992 -11.314  -2.335  0.00  0.00    +0.049 A 
ATOM     19  C   UNL     1      -5.441 -10.041  -2.344  0.00  0.00    +0.163 A 
ATOM     20  O   UNL     1      -4.289  -9.817  -3.033  0.00  0.00    -0.473 OA
ENDBRANCH   9  11
BRANCH   1  21
ATOM     21  C   UNL     1       1.752  -4.767  -1.167  0.00  0.00    +0.098 C 
BRANCH  21  22
ATOM     22  C   UNL     1       2.934  -3.797  -1.178  0.00  0.00    +0.043 C 
BRANCH  22  30
ATOM     23  C   UNL     1       0.340   1.118   0.322  0.00  0.00    +0.002 A 
ATOM     24  C   UNL     1       1.548   1.834   0.326  0.00  0.00    +0.002 A 
ATOM     25  C   UNL     1       2.758   1.228   0.274  0.00  0.00    +0.025 A 
ATOM     26  C   UNL     1       2.851  -0.180   0.212  0.00  0.00    +0.057 A 
ATOM     27  N   UNL     1       4.035  -0.766   0.162  0.00  0.00    -0.282 N 
ATOM     28  C   UNL     1       4.157  -2.094   0.103  0.00  0.00    +0.240 C 
ATOM     29  O   UNL     1       5.256  -2.610   0.058  0.00  0.00    -0.273 OA
ATOM     30  C   UNL     1       2.909  -2.948   0.094  0.00  0.00    +0.166 C 
ATOM     31  N   UNL     1       1.607  -2.265   0.151  0.00  0.00    -0.372 N 
ATOM     32  C   UNL     1       1.590  -0.964   0.207  0.00  0.00    +0.057 A 
ATOM     33  C   UNL     1       0.315  -0.232   0.266  0.00  0.00    +0.027 A 
ATOM     34  H   UNL     1       0.781  -2.772   0.148  0.00  0.00    +0.160 HD
ATOM     35  H   UNL     1       4.835  -0.217   0.168  0.00  0.00    +0.155 HD
ENDBRANCH  22  30
ENDBRANCH  21  22
ENDBRANCH   1  21
TORSDOF 4
