REMARK  Name = ZINC39396472
REMARK  7 active torsions:
REMARK  status: ('A' for Active; 'I' for Inactive)
REMARK    1  A    between atoms: C_1  and  C_2
REMARK    2  A    between atoms: C_2  and  C_3
REMARK    3  A    between atoms: C_2  and  C_4
REMARK    4  A    between atoms: C_2  and  C_5
REMARK    5  A    between atoms: C_8  and  C_12
REMARK    6  A    between atoms: N_14  and  N_15
REMARK    7  A    between atoms: C_16  and  C_17
REMARK                            x       y       z     vdW  Elec       q    Type
REMARK                         _______ _______ _______ _____ _____    ______ ____
ROOT
ATOM      1  C   UNL     1       2.913  -3.391  -1.172  0.00  0.00    +0.259 C 
ATOM      2  O   UNL     1       3.723  -3.176  -0.295  0.00  0.00    -0.272 OA
ATOM      3  N   UNL     1       2.638  -4.658  -1.539  0.00  0.00    -0.205 N 
ATOM      4  H   UNL     1       1.990  -4.830  -2.240  0.00  0.00    +0.177 HD
ENDROOT
BRANCH   1   7
ATOM      5  C   UNL     1       0.718  -0.497  -1.257  0.00  0.00    +0.136 C 
ATOM      6  C   UNL     1       0.796  -2.045  -1.266  0.00  0.00    +0.067 C 
ATOM      7  C   UNL     1       2.216  -2.241  -1.852  0.00  0.00    +0.217 C 
ATOM      8  N   UNL     1       2.900  -0.975  -1.559  0.00  0.00    -0.179 NA
ATOM      9  N   UNL     1       2.123  -0.068  -1.252  0.00  0.00    -0.188 NA
BRANCH   5  11
ATOM     10  C   UNL     1      -0.019   1.526   0.010  0.00  0.00    +0.013 C 
ATOM     11  C   UNL     1       0.002  -0.004   0.002  0.00  0.00    -0.014 C 
ATOM     12  C   UNL     1       0.742  -0.511   1.242  0.00  0.00    +0.013 C 
ATOM     13  C   UNL     1      -1.433  -0.534   0.013  0.00  0.00    +0.013 C 
ENDBRANCH   5  11
ENDBRANCH   1   7
BRANCH   3  14
ATOM     14  N   UNL     1       3.286  -5.728  -0.907  0.00  0.00    -0.188 NA
ATOM     15  C   UNL     1       3.018  -6.958  -1.263  0.00  0.00    +0.136 C 
BRANCH  15  16
ATOM     16  C   UNL     1       3.666  -8.029  -0.630  0.00  0.00    +0.000 C 
ATOM     17  C   UNL     1       3.501  -9.387  -0.892  0.00  0.00    +0.004 A 
ATOM     18  C   UNL     1       2.690 -10.090  -1.809  0.00  0.00    +0.010 A 
ATOM     19  C   UNL     1       2.734 -11.446  -1.845  0.00  0.00    +0.001 A 
ATOM     20  C   UNL     1       3.568 -12.174  -0.991  0.00  0.00    +0.002 A 
ATOM     21  C   UNL     1       4.373 -11.567  -0.087  0.00  0.00    +0.026 A 
ATOM     22  C   UNL     1       4.382 -10.150   0.010  0.00  0.00    +0.043 A 
ATOM     23  N   UNL     1       5.060  -9.334   0.790  0.00  0.00    -0.380 N 
ATOM     24  C   UNL     1       4.697  -7.949   0.474  0.00  0.00    +0.150 C 
ATOM     25  H   UNL     1       5.701  -9.607   1.465  0.00  0.00    +0.160 HD
ENDBRANCH  15  16
ENDBRANCH   3  14
TORSDOF 4
