REMARK  Name = ZINC32093315
REMARK  7 active torsions:
REMARK  status: ('A' for Active; 'I' for Inactive)
REMARK    1  A    between atoms: C_1  and  C_2
REMARK    2  A    between atoms: C_15  and  O_29
REMARK    3  A    between atoms: C_17  and  C_19
REMARK    4  A    between atoms: C_22  and  O_25
REMARK    5  A    between atoms: O_25  and  C_26
REMARK    6  A    between atoms: C_26  and  C_27
REMARK    7  A    between atoms: C_26  and  C_28
REMARK                            x       y       z     vdW  Elec       q    Type
REMARK                         _______ _______ _______ _____ _____    ______ ____
ROOT
ATOM      1  C   UNL     1      -0.711   1.978   0.565  0.00  0.00    +0.068 C 
ATOM      2  C   UNL     1      -0.703   0.478   0.713  0.00  0.00    +0.066 A 
ATOM      3  C   UNL     1      -0.538  -0.434  -0.312  0.00  0.00    +0.027 A 
ATOM      4  C   UNL     1      -0.588  -1.708   0.238  0.00  0.00    +0.165 A 
ATOM      5  N   UNL     1      -0.785  -1.560   1.569  0.00  0.00    -0.194 N 
ATOM      6  N   UNL     1      -0.845  -0.183   1.839  0.00  0.00    -0.168 NA
ATOM      7  C   UNL     1      -0.903  -2.591   2.505  0.00  0.00    +0.178 A 
ATOM      8  C   UNL     1      -0.594  -2.358   3.844  0.00  0.00    +0.053 A 
ATOM      9  C   UNL     1      -0.728  -3.413   4.734  0.00  0.00    +0.045 A 
ATOM     10  C   UNL     1      -1.162  -4.635   4.236  0.00  0.00    +0.152 A 
ATOM     11  N   UNL     1      -1.433  -4.765   2.951  0.00  0.00    -0.136 NA
ATOM     12  N   UNL     1      -1.315  -3.790   2.125  0.00  0.00    -0.128 NA
ATOM     13 CL   UNL     1      -1.347  -5.991   5.304  0.00  0.00    -0.060 Cl
ATOM     14  N   UNL     1      -0.440  -2.824  -0.531  0.00  0.00    -0.197 NA
ATOM     15  C   UNL     1       0.029  -2.703  -1.737  0.00  0.00    +0.190 C 
ATOM     16  C   UNL     1       0.484  -1.400  -2.325  0.00  0.00    +0.108 C 
ATOM     17  C   UNL     1      -0.339  -0.221  -1.792  0.00  0.00    +0.063 C 
ENDROOT
BRANCH  17  18
ATOM     18  C   UNL     1      -1.675  -0.175  -2.486  0.00  0.00    -0.039 A 
ATOM     19  C   UNL     1      -2.527  -1.263  -2.417  0.00  0.00    +0.008 A 
ATOM     20  C   UNL     1      -3.752  -1.223  -3.053  0.00  0.00    +0.046 A 
ATOM     21  C   UNL     1      -4.129  -0.091  -3.761  0.00  0.00    +0.121 A 
ATOM     22  C   UNL     1      -3.273   0.999  -3.829  0.00  0.00    +0.046 A 
ATOM     23  C   UNL     1      -2.051   0.956  -3.187  0.00  0.00    +0.008 A 
BRANCH  21  24
ATOM     24  O   UNL     1      -5.334  -0.050  -4.388  0.00  0.00    -0.489 OA
BRANCH  24  25
ATOM     25  C   UNL     1      -6.112  -1.249  -4.377  0.00  0.00    +0.167 C 
ATOM     26  C   UNL     1      -6.921  -1.319  -3.080  0.00  0.00    +0.051 C 
ATOM     27  C   UNL     1      -7.066  -1.248  -5.573  0.00  0.00    +0.051 C 
ENDBRANCH  24  25
ENDBRANCH  21  24
ENDBRANCH  17  18
BRANCH  15  28
ATOM     28  O   UNL     1       0.112  -3.811  -2.502  0.00  0.00    -0.495 OA
ATOM     29  H   UNL     1      -0.197  -4.616  -2.064  0.00  0.00    +0.293 HD
ENDBRANCH  15  28
TORSDOF 4
