REMARK  Name = ZINC39484947
REMARK  3 active torsions:
REMARK  status: ('A' for Active; 'I' for Inactive)
REMARK    1  A    between atoms: C_10  and  C_13
REMARK    2  A    between atoms: C_13  and  C_14
REMARK    3  A    between atoms: N_16  and  C_17
REMARK                            x       y       z     vdW  Elec       q    Type
REMARK                         _______ _______ _______ _____ _____    ______ ____
ROOT
ATOM      1  C   UNL     1       4.760  -1.680  -2.944  0.00  0.00    +0.219 C 
ATOM      2  O   UNL     1       5.720  -1.615  -2.205  0.00  0.00    -0.275 OA
ATOM      3  N   UNL     1       4.896  -1.388  -4.252  0.00  0.00    -0.285 N 
ATOM      4  H   UNL     1       4.146  -1.505  -4.856  0.00  0.00    +0.155 HD
ENDROOT
BRANCH   3   5
ATOM      5  C   UNL     1       6.122  -0.917  -4.741  0.00  0.00    +0.035 A 
ATOM      6  C   UNL     1       7.311  -1.393  -4.205  0.00  0.00    +0.027 A 
ATOM      7  C   UNL     1       8.523  -0.931  -4.684  0.00  0.00    +0.049 A 
ATOM      8  C   UNL     1       8.552   0.008  -5.700  0.00  0.00    +0.142 A 
ATOM      9  C   UNL     1       7.360   0.488  -6.240  0.00  0.00    +0.077 A 
ATOM     10  C   UNL     1       6.146   0.021  -5.765  0.00  0.00    +0.050 A 
ATOM     11  N   UNL     1       7.407   1.440  -7.268  0.00  0.00    -0.280 N 
ATOM     12  C   UNL     1       8.570   1.637  -7.926  0.00  0.00    +0.255 C 
ATOM     13  O   UNL     1       8.642   2.477  -8.798  0.00  0.00    -0.272 OA
ATOM     14  C   UNL     1       9.779   0.810  -7.571  0.00  0.00    +0.325 C 
ATOM     15  O   UNL     1       9.738   0.470  -6.182  0.00  0.00    -0.481 OA
ATOM     16  H   UNL     1       6.615   1.949  -7.504  0.00  0.00    +0.155 HD
ENDBRANCH   3   5
BRANCH   1  17
ATOM     17  C   UNL     1       3.415  -2.087  -2.398  0.00  0.00    +0.120 C 
BRANCH  17  27
ATOM     18  C   UNL     1      -0.043   1.351  -0.005  0.00  0.00    +0.002 A 
ATOM     19  C   UNL     1       1.134   2.076  -0.011  0.00  0.00    +0.001 A 
ATOM     20  C   UNL     1       2.350   1.417  -0.018  0.00  0.00    +0.016 A 
ATOM     21  C   UNL     1       2.383   0.032  -0.022  0.00  0.00    +0.030 A 
ATOM     22  C   UNL     1       1.200  -0.707  -0.023  0.00  0.00    +0.047 A 
ATOM     23  C   UNL     1      -0.015  -0.029  -0.010  0.00  0.00    +0.024 A 
ATOM     24  N   UNL     1       1.202  -2.098  -0.050  0.00  0.00    -0.284 N 
ATOM     25  C   UNL     1       2.223  -2.884  -0.373  0.00  0.00    +0.231 C 
ATOM     26  O   UNL     1       2.094  -4.083  -0.238  0.00  0.00    -0.274 OA
ATOM     27  C   UNL     1       3.535  -2.360  -0.898  0.00  0.00    +0.146 C 
ATOM     28  S   UNL     1       3.932  -0.817  -0.020  0.00  0.00    -0.110 S 
ATOM     29  H   UNL     1       0.373  -2.539   0.193  0.00  0.00    +0.155 HD
ENDBRANCH  17  27
ENDBRANCH   1  17
TORSDOF 3
