REMARK  Name = ZINC08624153
REMARK  9 active torsions:
REMARK  status: ('A' for Active; 'I' for Inactive)
REMARK    1  A    between atoms: C_1  and  C_2
REMARK    2  A    between atoms: C_2  and  O_3
REMARK    3  A    between atoms: O_3  and  C_4
REMARK    4  A    between atoms: C_7  and  N_13
REMARK    5  A    between atoms: C_9  and  O_10
REMARK    6  A    between atoms: O_10  and  C_11
REMARK    7  A    between atoms: C_11  and  C_12
REMARK    8  A    between atoms: C_14  and  C_16
REMARK    9  A    between atoms: C_16  and  N_17
REMARK                            x       y       z     vdW  Elec       q    Type
REMARK                         _______ _______ _______ _____ _____    ______ ____
ROOT
ATOM      1  C   UNL     1      -2.869   3.382  -1.438  0.00  0.00    +0.214 C 
ENDROOT
BRANCH   1   2
ATOM      2  N   UNL     1      -1.841   2.702  -0.647  0.00  0.00    -0.215 N 
ATOM      3  C   UNL     1      -0.802   2.025  -1.175  0.00  0.00    +0.251 C 
ATOM      4  O   UNL     1      -0.550   1.867  -2.351  0.00  0.00    -0.272 OA
ATOM      5  C   UNL     1      -0.015   1.503   0.006  0.00  0.00    +0.138 C 
ATOM      6  C   UNL     1       1.393   2.084   0.001  0.00  0.00    +0.040 C 
ATOM      7  C   UNL     1       2.185   1.422  -1.134  0.00  0.00    +0.008 C 
ATOM      8  C   UNL     1       2.424  -0.041  -0.767  0.00  0.00    +0.035 C 
ATOM      9  C   UNL     1       1.134  -0.712  -0.374  0.00  0.00    -0.042 A 
ATOM     10  C   UNL     1       0.011   0.000  -0.012  0.00  0.00    -0.012 A 
ATOM     11  C   UNL     1      -1.145  -0.678   0.352  0.00  0.00    +0.006 A 
ATOM     12  C   UNL     1      -1.179  -2.057   0.350  0.00  0.00    +0.000 A 
ATOM     13  C   UNL     1      -0.054  -2.771  -0.019  0.00  0.00    +0.000 A 
ATOM     14  C   UNL     1       1.096  -2.099  -0.379  0.00  0.00    +0.004 A 
ATOM     15  N   UNL     1      -0.766   1.986   1.173  0.00  0.00    -0.281 N 
ATOM     16  C   UNL     1      -1.816   2.677   0.691  0.00  0.00    +0.310 C 
ATOM     17  O   UNL     1      -2.649   3.218   1.393  0.00  0.00    -0.252 OA
ATOM     18  H   UNL     1      -0.547   1.837   2.106  0.00  0.00    +0.152 HD
ENDBRANCH   1   2
BRANCH   1  20
ATOM     19  N   UNL     1      -5.066   2.835  -2.436  0.00  0.00    -0.284 N 
ATOM     20  C   UNL     1      -4.001   2.426  -1.718  0.00  0.00    +0.235 C 
ATOM     21  O   UNL     1      -3.953   1.290  -1.298  0.00  0.00    -0.274 OA
ATOM     22  H   UNL     1      -5.136   3.761  -2.715  0.00  0.00    +0.155 HD
BRANCH  19  26
ATOM     23  C   UNL     1      -8.062   0.113  -3.450  0.00  0.00    +0.162 A 
ATOM     24  C   UNL     1      -7.409   0.004  -2.233  0.00  0.00    +0.051 A 
ATOM     25  C   UNL     1      -6.416   0.905  -1.897  0.00  0.00    +0.027 A 
ATOM     26  C   UNL     1      -6.072   1.922  -2.779  0.00  0.00    +0.037 A 
ATOM     27  C   UNL     1      -6.728   2.036  -3.996  0.00  0.00    +0.072 A 
ATOM     28  C   UNL     1      -7.718   1.130  -4.336  0.00  0.00    +0.164 A 
BRANCH  23  29
ATOM     29  O   UNL     1      -9.038  -0.775  -3.780  0.00  0.00    -0.489 OA
BRANCH  29  31
ATOM     30  C   UNL     1     -10.454  -2.689  -3.366  0.00  0.00    +0.048 C 
ATOM     31  C   UNL     1      -9.339  -1.793  -2.823  0.00  0.00    +0.226 C 
ENDBRANCH  29  31
ENDBRANCH  23  29
BRANCH  28  32
ATOM     32  O   UNL     1      -8.358   1.237  -5.531  0.00  0.00    -0.489 OA
BRANCH  32  33
ATOM     33  C   UNL     1      -7.954   2.305  -6.390  0.00  0.00    +0.226 C 
ATOM     34  C   UNL     1      -8.780   2.264  -7.678  0.00  0.00    +0.048 C 
ENDBRANCH  32  33
ENDBRANCH  28  32
ENDBRANCH  19  26
ENDBRANCH   1  20
TORSDOF 7
