REMARK  Name = ZINC59019647
REMARK  7 active torsions:
REMARK  status: ('A' for Active; 'I' for Inactive)
REMARK    1  A    between atoms: C_1  and  C_2
REMARK    2  A    between atoms: C_3  and  C_16
REMARK    3  A    between atoms: C_4  and  C_15
REMARK    4  A    between atoms: C_16  and  C_17
REMARK    5  A    between atoms: C_17  and  C_18
REMARK    6  A    between atoms: N_20  and  C_21
REMARK    7  A    between atoms: C_23  and  C_29
REMARK                            x       y       z     vdW  Elec       q    Type
REMARK                         _______ _______ _______ _____ _____    ______ ____
ROOT
ATOM      1  C   UNL     1      -2.994   0.212   1.459  0.00  0.00    +0.101 C 
ENDROOT
BRANCH   1   2
ATOM      2  C   UNL     1      -4.311   0.942   1.486  0.00  0.00    +0.218 C 
ATOM      3  O   UNL     1      -4.975   1.034   0.475  0.00  0.00    -0.275 OA
ATOM      4  N   UNL     1      -4.753   1.494   2.634  0.00  0.00    -0.281 N 
ATOM      5  H   UNL     1      -4.259   1.359   3.458  0.00  0.00    +0.155 HD
BRANCH   4   6
ATOM      6  C   UNL     1      -5.925   2.261   2.638  0.00  0.00    +0.099 A 
ATOM      7  C   UNL     1      -6.980   1.910   3.434  0.00  0.00    +0.042 A 
ATOM      8  C   UNL     1      -8.141   2.696   3.419  0.00  0.00    +0.073 A 
ATOM      9  C   UNL     1      -8.210   3.787   2.623  0.00  0.00    +0.098 A 
ATOM     10  N   UNL     1      -7.162   4.138   1.830  0.00  0.00    -0.327 N 
ATOM     11  H   UNL     1      -7.230   4.924   1.266  0.00  0.00    +0.168 HD
ATOM     12  C   UNL     1      -6.029   3.410   1.823  0.00  0.00    +0.270 A 
ATOM     13  O   UNL     1      -5.096   3.740   1.110  0.00  0.00    -0.266 OA
BRANCH   8  14
ATOM     14  C   UNL     1      -9.314   2.325   4.290  0.00  0.00    +0.419 C 
ATOM     15  F   UNL     1     -10.346   3.251   4.103  0.00  0.00    -0.166 F 
ATOM     16  F   UNL     1      -9.766   1.047   3.943  0.00  0.00    -0.166 F 
ATOM     17  F   UNL     1      -8.919   2.331   5.632  0.00  0.00    -0.166 F 
ENDBRANCH   8  14
ENDBRANCH   4   6
ENDBRANCH   1   2
BRANCH   1  18
ATOM     18  C   UNL     1      -2.731  -0.313   0.046  0.00  0.00    +0.048 C 
BRANCH  18  21
ATOM     19  C   UNL     1      -0.245   1.157  -0.344  0.00  0.00    +0.066 C 
ATOM     20  C   UNL     1      -0.218  -0.340  -0.168  0.00  0.00    +0.045 A 
ATOM     21  C   UNL     1      -1.413  -1.043   0.018  0.00  0.00    -0.005 A 
ATOM     22  C   UNL     1      -1.371  -2.391   0.175  0.00  0.00    +0.047 A 
ATOM     23  N   UNL     1      -0.166  -3.028   0.147  0.00  0.00    -0.217 N 
ATOM     24  C   UNL     1       0.978  -2.305  -0.038  0.00  0.00    +0.164 A 
ATOM     25  N   UNL     1       0.929  -0.983  -0.196  0.00  0.00    -0.232 NA
ATOM     26  C   UNL     1       2.052  -3.221  -0.021  0.00  0.00    +0.046 A 
ATOM     27  C   UNL     1       3.441  -3.082  -0.156  0.00  0.00    +0.014 A 
ATOM     28  C   UNL     1       4.240  -4.183  -0.093  0.00  0.00    +0.001 A 
ATOM     29  C   UNL     1       3.697  -5.452   0.105  0.00  0.00    +0.002 A 
ATOM     30  C   UNL     1       2.356  -5.626   0.241  0.00  0.00    +0.030 A 
ATOM     31  C   UNL     1       1.495  -4.511   0.181  0.00  0.00    +0.095 A 
ATOM     32  N   UNL     1       0.176  -4.379   0.279  0.00  0.00    -0.165 NA
ATOM     33  C   UNL     1      -2.643  -3.175   0.379  0.00  0.00    +0.066 C 
ENDBRANCH  18  21
ENDBRANCH   1  18
TORSDOF 5
