REMARK  Name = ZINC18142226
REMARK  4 active torsions:
REMARK  status: ('A' for Active; 'I' for Inactive)
REMARK    1  A    between atoms: C_1  and  O_2
REMARK    2  A    between atoms: O_2  and  C_3
REMARK    3  A    between atoms: C_3  and  C_5
REMARK    4  A    between atoms: N_14  and  C_17
REMARK                            x       y       z     vdW  Elec       q    Type
REMARK                         _______ _______ _______ _____ _____    ______ ____
ROOT
ATOM      1  C   UNL     1      -1.248  -2.093   0.003  0.00  0.00    +0.156 C 
ATOM      2  N   UNL     1      -0.229  -2.890  -0.006  0.00  0.00    -0.183 NA
ATOM      3  N   UNL     1      -0.483  -4.141  -0.010  0.00  0.00    -0.255 N 
ATOM      4  C   UNL     1      -1.935  -4.376  -0.002  0.00  0.00    +0.194 C 
ATOM      5  C   UNL     1      -2.511  -2.932   0.010  0.00  0.00    +0.164 C 
ATOM      6  C   UNL     1      -3.175  -2.830   1.365  0.00  0.00    +0.238 C 
ATOM      7  O   UNL     1      -3.754  -1.853   1.789  0.00  0.00    -0.274 OA
ATOM      8  N   UNL     1      -3.024  -3.986   2.022  0.00  0.00    -0.207 N 
ATOM      9  C   UNL     1      -2.349  -4.941   1.338  0.00  0.00    +0.249 C 
ATOM     10  O   UNL     1      -2.102  -6.061   1.732  0.00  0.00    -0.273 OA
ATOM     11  H   UNL     1       0.189  -4.841  -0.018  0.00  0.00    +0.169 HD
ENDROOT
BRANCH   8  12
ATOM     12  C   UNL     1      -3.536  -4.198   3.311  0.00  0.00    +0.062 A 
ATOM     13  C   UNL     1      -4.815  -4.712   3.474  0.00  0.00    +0.027 A 
ATOM     14  C   UNL     1      -5.317  -4.921   4.744  0.00  0.00    +0.022 A 
ATOM     15  C   UNL     1      -4.547  -4.617   5.853  0.00  0.00    +0.042 A 
ATOM     16  C   UNL     1      -3.272  -4.104   5.693  0.00  0.00    +0.042 A 
ATOM     17  C   UNL     1      -2.763  -3.899   4.425  0.00  0.00    +0.064 A 
ATOM     18 CL   UNL     1      -1.160  -3.262   4.224  0.00  0.00    -0.082 Cl
ATOM     19 CL   UNL     1      -5.181  -4.880   7.447  0.00  0.00    -0.083 Cl
ENDBRANCH   8  12
BRANCH   1  20
ATOM     20  C   UNL     1      -1.192  -0.633   0.010  0.00  0.00    +0.356 C 
ATOM     21  O   UNL     1      -2.221   0.016   0.023  0.00  0.00    -0.244 OA
BRANCH  20  23
ATOM     22  C   UNL     1      -0.017   1.425   0.010  0.00  0.00    +0.280 C 
ATOM     23  O   UNL     1       0.002  -0.004   0.002  0.00  0.00    -0.464 OA
ENDBRANCH  20  23
ENDBRANCH   1  20
TORSDOF 3
