REMARK  Name = ZINC44020079
REMARK  7 active torsions:
REMARK  status: ('A' for Active; 'I' for Inactive)
REMARK    1  A    between atoms: C_1  and  C_2
REMARK    2  A    between atoms: C_11  and  C_24
REMARK    3  A    between atoms: C_16  and  C_17
REMARK    4  A    between atoms: C_16  and  O_23
REMARK    5  A    between atoms: C_17  and  C_22
REMARK    6  A    between atoms: C_25  and  C_36
REMARK    7  A    between atoms: C_26  and  O_35
REMARK                            x       y       z     vdW  Elec       q    Type
REMARK                         _______ _______ _______ _____ _____    ______ ____
ROOT
ATOM      1  C   UNL     1      -0.672   1.811  -1.524  0.00  0.00    +0.010 C 
ATOM      2  C   UNL     1      -0.557   0.306  -1.330  0.00  0.00    +0.019 C 
ATOM      3  C   UNL     1       0.028  -0.380  -2.549  0.00  0.00    +0.010 C 
ATOM      4  C   UNL     1       1.554  -0.272  -2.613  0.00  0.00    -0.003 C 
ATOM      5  C   UNL     1       2.147  -0.836  -1.314  0.00  0.00    +0.001 C 
ATOM      6  C   UNL     1       3.667  -0.902  -1.357  0.00  0.00    +0.005 C 
ATOM      7  C   UNL     1       4.162  -1.704  -2.575  0.00  0.00    +0.010 C 
ATOM      8  C   UNL     1       3.598  -1.068  -3.827  0.00  0.00    +0.005 C 
ATOM      9  C   UNL     1       2.056  -1.147  -3.746  0.00  0.00    +0.001 C 
ATOM     10  C   UNL     1       1.642  -0.739  -5.164  0.00  0.00    +0.007 C 
ATOM     11  C   UNL     1       2.653  -1.530  -6.040  0.00  0.00    +0.041 C 
ATOM     12  C   UNL     1       3.910  -1.754  -5.159  0.00  0.00    +0.125 C 
ATOM     13  C   UNL     1       4.076   0.385  -3.929  0.00  0.00    +0.014 C 
ATOM     14  C   UNL     1       1.660  -0.021  -0.122  0.00  0.00    +0.000 C 
ATOM     15  C   UNL     1       0.142  -0.076  -0.028  0.00  0.00    +0.079 C 
ATOM     16  C   UNL     1      -0.334  -1.494   0.317  0.00  0.00    +0.100 C 
ATOM     17  C   UNL     1       0.328  -2.032   1.577  0.00  0.00    +0.173 C 
ATOM     18  C   UNL     1       1.848  -2.005   1.415  0.00  0.00    +0.066 C 
ATOM     19  C   UNL     1       2.292  -0.567   1.166  0.00  0.00    +0.015 C 
ATOM     20  O   UNL     1      -0.052  -1.242   2.715  0.00  0.00    -0.346 OA
ATOM     21  C   UNL     1      -1.215  -1.917   3.253  0.00  0.00    +0.191 C 
ATOM     22  C   UNL     1      -0.844  -3.405   3.034  0.00  0.00    +0.191 C 
ATOM     23  O   UNL     1      -0.097  -3.385   1.802  0.00  0.00    -0.346 OA
ATOM     24  C   UNL     1       2.138   1.434  -0.247  0.00  0.00    +0.014 C 
ENDROOT
BRANCH  12  25
ATOM     25  C   UNL     1       4.162  -3.252  -4.973  0.00  0.00    +0.197 C 
ATOM     26  O   UNL     1       5.239  -3.448  -4.041  0.00  0.00    -0.344 OA
ATOM     27  C   UNL     1       5.950  -4.608  -4.535  0.00  0.00    +0.191 C 
ATOM     28  C   UNL     1       5.837  -4.417  -6.068  0.00  0.00    +0.191 C 
ATOM     29  O   UNL     1       4.527  -3.838  -6.229  0.00  0.00    -0.344 OA
ATOM     30  C   UNL     1       2.896  -3.924  -4.439  0.00  0.00    +0.077 C 
ENDBRANCH  12  25
BRANCH  12  31
ATOM     31  O   UNL     1       5.047  -1.134  -5.766  0.00  0.00    -0.383 OA
ATOM     32  H   UNL     1       5.300  -1.521  -6.615  0.00  0.00    +0.210 HD
ENDBRANCH  12  31
BRANCH  15  33
ATOM     33  O   UNL     1      -0.298   0.818   1.006  0.00  0.00    -0.388 OA
ATOM     34  H   UNL     1      -1.251   0.795   1.166  0.00  0.00    +0.210 HD
ENDBRANCH  15  33
TORSDOF 3
