REMARK  Name = ZINC21604084
REMARK  10 active torsions:
REMARK  status: ('A' for Active; 'I' for Inactive)
REMARK    1  A    between atoms: C_1  and  C_2
REMARK    2  A    between atoms: C_2  and  C_4
REMARK    3  A    between atoms: C_2  and  O_13
REMARK    4  A    between atoms: N_9  and  C_10
REMARK    5  A    between atoms: C_10  and  C_11
REMARK    6  A    between atoms: C_10  and  C_12
REMARK    7  A    between atoms: O_13  and  C_14
REMARK    8  A    between atoms: C_14  and  C_16
REMARK    9  A    between atoms: C_18  and  C_27
REMARK   10  A    between atoms: N_19  and  C_21
REMARK                            x       y       z     vdW  Elec       q    Type
REMARK                         _______ _______ _______ _____ _____    ______ ____
ROOT
ATOM      1  C   UNL     1      -3.391  -1.013   1.380  0.00  0.00    +0.260 A 
ATOM      2  N   UNL     1      -4.231  -1.145   0.340  0.00  0.00    -0.201 NA
ATOM      3  C   UNL     1      -5.209  -1.940   0.726  0.00  0.00    +0.164 A 
ATOM      4  N   UNL     1      -4.955  -2.295   2.017  0.00  0.00    -0.212 N 
ATOM      5  N   UNL     1      -3.857  -1.729   2.382  0.00  0.00    -0.137 NA
ENDROOT
BRANCH   4   6
ATOM      6  C   UNL     1      -5.749  -3.134   2.808  0.00  0.00    +0.068 A 
ATOM      7  C   UNL     1      -6.253  -4.315   2.281  0.00  0.00    +0.028 A 
ATOM      8  C   UNL     1      -7.035  -5.141   3.065  0.00  0.00    +0.002 A 
ATOM      9  C   UNL     1      -7.316  -4.792   4.373  0.00  0.00    +0.000 A 
ATOM     10  C   UNL     1      -6.816  -3.616   4.901  0.00  0.00    +0.002 A 
ATOM     11  C   UNL     1      -6.028  -2.789   4.125  0.00  0.00    +0.028 A 
ENDBRANCH   4   6
BRANCH   3  12
ATOM     12  C   UNL     1      -6.366  -2.368  -0.091  0.00  0.00    +0.019 A 
ATOM     13  C   UNL     1      -7.597  -2.618   0.516  0.00  0.00    +0.011 A 
ATOM     14  C   UNL     1      -8.672  -3.017  -0.252  0.00  0.00    +0.001 A 
ATOM     15  C   UNL     1      -8.531  -3.169  -1.619  0.00  0.00    +0.000 A 
ATOM     16  C   UNL     1      -7.313  -2.923  -2.227  0.00  0.00    +0.001 A 
ATOM     17  C   UNL     1      -6.232  -2.518  -1.472  0.00  0.00    +0.011 A 
ENDBRANCH   3  12
BRANCH   1  18
ATOM     18  C   UNL     1      -2.152  -0.208   1.395  0.00  0.00    +0.379 C 
ATOM     19  O   UNL     1      -1.465  -0.168   2.396  0.00  0.00    -0.241 OA
BRANCH  18  20
ATOM     20  O   UNL     1      -1.784   0.483   0.298  0.00  0.00    -0.446 OA
BRANCH  20  22
ATOM     21  C   UNL     1      -0.891   2.651   0.881  0.00  0.00    +0.062 C 
ATOM     22  C   UNL     1      -0.575   1.240   0.382  0.00  0.00    +0.259 C 
BRANCH  22  23
ATOM     23  C   UNL     1       0.064   1.319  -0.980  0.00  0.00    +0.261 C 
ATOM     24  O   UNL     1      -0.507   0.860  -1.945  0.00  0.00    -0.271 OA
ATOM     25  N   UNL     1       1.271   1.901  -1.125  0.00  0.00    -0.237 N 
ATOM     26  C   UNL     1       1.843   1.972  -2.343  0.00  0.00    +0.306 C 
ATOM     27  O   UNL     1       1.270   1.511  -3.311  0.00  0.00    -0.252 OA
ATOM     28  N   UNL     1       3.050   2.554  -2.488  0.00  0.00    -0.297 N 
ATOM     29  H   UNL     1       1.728   2.269  -0.352  0.00  0.00    +0.159 HD
ATOM     30  H   UNL     1       3.507   2.922  -1.716  0.00  0.00    +0.151 HD
BRANCH  28  31
ATOM     31  C   UNL     1       3.672   2.631  -3.812  0.00  0.00    +0.068 C 
ATOM     32  C   UNL     1       3.151   3.867  -4.549  0.00  0.00    +0.027 C 
ATOM     33  C   UNL     1       5.191   2.732  -3.658  0.00  0.00    +0.027 C 
ENDBRANCH  28  31
ENDBRANCH  22  23
ENDBRANCH  20  22
ENDBRANCH  18  20
ENDBRANCH   1  18
TORSDOF 7
