REMARK  Name = ZINC44785882
REMARK  6 active torsions:
REMARK  status: ('A' for Active; 'I' for Inactive)
REMARK    1  A    between atoms: C_1  and  N_2
REMARK    2  A    between atoms: N_2  and  C_3
REMARK    3  A    between atoms: C_3  and  C_4
REMARK    4  A    between atoms: C_11  and  C_13
REMARK    5  A    between atoms: C_13  and  C_18
REMARK    6  A    between atoms: N_19  and  O_20
REMARK                            x       y       z     vdW  Elec       q    Type
REMARK                         _______ _______ _______ _____ _____    ______ ____
ROOT
ATOM      1  C   UNL     1       0.057   1.036   0.183  0.00  0.00    +0.132 C 
ATOM      2  N   UNL     1      -0.112  -0.400  -0.056  0.00  0.00    -0.295 N 
ATOM      3  C   UNL     1      -0.256  -0.861  -1.314  0.00  0.00    +0.229 C 
ATOM      4  O   UNL     1      -0.491  -2.035  -1.507  0.00  0.00    -0.275 OA
ENDROOT
BRANCH   3   5
ATOM      5  C   UNL     1      -0.125   0.083  -2.482  0.00  0.00    +0.105 C 
ATOM      6  C   UNL     1      -0.152  -0.707  -3.803  0.00  0.00    +0.024 C 
ATOM      7  C   UNL     1       1.194  -0.437  -4.506  0.00  0.00    +0.001 C 
ATOM      8  C   UNL     1       2.150  -0.037  -3.354  0.00  0.00    +0.001 C 
ATOM      9  C   UNL     1       1.237   0.804  -2.429  0.00  0.00    +0.024 C 
BRANCH   5  10
ATOM     10  C   UNL     1      -1.245   1.091  -2.459  0.00  0.00    +0.147 C 
ATOM     11  N   UNL     1      -0.978   2.354  -2.500  0.00  0.00    -0.076 NA
ATOM     12  N   UNL     1      -2.553   0.666  -2.393  0.00  0.00    -0.343 N 
ATOM     13  H   UNL     1      -2.752  -0.277  -2.279  0.00  0.00    +0.144 HD
ATOM     14  H   UNL     1      -3.276   1.309  -2.461  0.00  0.00    +0.144 HD
BRANCH  11  15
ATOM     15  O   UNL     1      -2.030   3.301  -2.478  0.00  0.00    -0.408 OA
ATOM     16  H   UNL     1      -1.732   4.221  -2.513  0.00  0.00    +0.328 HD
ENDBRANCH  11  15
ENDBRANCH   5  10
ENDBRANCH   3   5
BRANCH   2  17
ATOM     17  C   UNL     1      -0.125  -1.334   1.072  0.00  0.00    +0.203 C 
BRANCH  17  18
ATOM     18  C   UNL     1      -1.538  -1.506   1.566  0.00  0.00    +0.233 C 
ATOM     19  O   UNL     1      -2.446  -0.907   1.028  0.00  0.00    -0.274 OA
ATOM     20  N   UNL     1      -1.794  -2.325   2.605  0.00  0.00    -0.300 N 
ATOM     21  C   UNL     1      -0.793  -3.103   3.350  0.00  0.00    +0.108 C 
ATOM     22  C   UNL     1      -1.548  -3.908   4.428  0.00  0.00    +0.020 C 
ATOM     23  C   UNL     1      -2.992  -3.974   3.865  0.00  0.00    +0.020 C 
ATOM     24  C   UNL     1      -3.123  -2.585   3.188  0.00  0.00    +0.108 C 
ENDBRANCH  17  18
ENDBRANCH   2  17
TORSDOF 5
