REMARK  Name = ZINC40010795
REMARK  9 active torsions:
REMARK  status: ('A' for Active; 'I' for Inactive)
REMARK    1  A    between atoms: C_1  and  C_2
REMARK    2  A    between atoms: C_4  and  C_33
REMARK    3  A    between atoms: C_9  and  C_14
REMARK    4  A    between atoms: C_18  and  O_31
REMARK    5  A    between atoms: C_19  and  O_29
REMARK    6  A    between atoms: N_24  and  S_25
REMARK    7  A    between atoms: S_25  and  C_28
REMARK    8  A    between atoms: O_29  and  C_30
REMARK    9  A    between atoms: O_31  and  C_32
REMARK                            x       y       z     vdW  Elec       q    Type
REMARK                         _______ _______ _______ _____ _____    ______ ____
ROOT
ATOM      1  C   UNL     1       1.319  -4.874   2.934  0.00  0.00    +0.125 C 
ATOM      2  C   UNL     1       2.546  -4.543   2.121  0.00  0.00    -0.021 A 
ATOM      3  C   UNL     1       2.937  -3.212   2.056  0.00  0.00    +0.055 A 
ATOM      4  C   UNL     1       4.046  -2.841   1.319  0.00  0.00    +0.162 A 
ATOM      5  C   UNL     1       4.774  -3.812   0.637  0.00  0.00    +0.162 A 
ATOM      6  C   UNL     1       4.382  -5.136   0.708  0.00  0.00    +0.053 A 
ATOM      7  C   UNL     1       3.270  -5.506   1.455  0.00  0.00    -0.038 A 
ATOM      8  C   UNL     1       2.922  -6.971   1.506  0.00  0.00    +0.052 C 
ATOM      9  C   UNL     1       1.468  -7.170   1.930  0.00  0.00    +0.114 C 
ATOM     10  N   UNL     1       1.222  -6.327   3.111  0.00  0.00    -0.173 NA
ENDROOT
BRANCH   1  19
ATOM     11  C   UNL     1      -2.452  -7.840  -2.357  0.00  0.00    +0.044 C 
ATOM     12  C   UNL     1      -2.316  -7.147  -1.025  0.00  0.00    -0.050 A 
ATOM     13  C   UNL     1      -3.342  -7.261  -0.087  0.00  0.00    +0.008 A 
ATOM     14  C   UNL     1      -3.290  -6.666   1.133  0.00  0.00    -0.028 A 
ATOM     15  C   UNL     1      -2.173  -5.895   1.504  0.00  0.00    +0.043 A 
ATOM     16  N   UNL     1      -2.133  -5.316   2.704  0.00  0.00    -0.284 N 
ATOM     17  C   UNL     1      -1.115  -4.580   3.117  0.00  0.00    +0.226 C 
ATOM     18  O   UNL     1      -1.135  -4.076   4.224  0.00  0.00    -0.275 OA
ATOM     19  C   UNL     1       0.073  -4.365   2.207  0.00  0.00    +0.122 C 
ATOM     20  C   UNL     1       0.032  -5.022   0.841  0.00  0.00    -0.003 C 
ATOM     21  C   UNL     1      -1.074  -5.758   0.534  0.00  0.00    -0.006 A 
ATOM     22  C   UNL     1      -1.193  -6.430  -0.761  0.00  0.00    +0.012 A 
ATOM     23  C   UNL     1      -4.438  -6.832   2.095  0.00  0.00    +0.046 C 
ATOM     24  H   UNL     1      -2.886  -5.441   3.303  0.00  0.00    +0.155 HD
ENDBRANCH   1  19
BRANCH  10  25
ATOM     25  S   UNL     1       0.849  -6.993   4.580  0.00  0.00    +0.030 S 
ATOM     26  O   UNL     1       1.427  -8.291   4.548  0.00  0.00    -0.158 OA
ATOM     27  O   UNL     1       1.280  -6.032   5.534  0.00  0.00    -0.158 OA
ATOM     28  C   UNL     1      -0.961  -7.115   4.591  0.00  0.00    +0.215 C 
ENDBRANCH  10  25
BRANCH   5  29
ATOM     29  O   UNL     1       5.864  -3.460  -0.097  0.00  0.00    -0.491 OA
ATOM     30  C   UNL     1       6.560  -4.511  -0.769  0.00  0.00    +0.277 C 
ENDBRANCH   5  29
BRANCH   4  31
ATOM     31  O   UNL     1       4.424  -1.536   1.261  0.00  0.00    -0.491 OA
ATOM     32  C   UNL     1       3.628  -0.597   1.986  0.00  0.00    +0.277 C 
ENDBRANCH   4  31
TORSDOF 4
