REMARK  Name = ZINC63448315
REMARK  7 active torsions:
REMARK  status: ('A' for Active; 'I' for Inactive)
REMARK    1  A    between atoms: C_1  and  C_2
REMARK    2  A    between atoms: C_4  and  C_31
REMARK    3  A    between atoms: C_6  and  N_8
REMARK    4  A    between atoms: N_17  and  C_20
REMARK    5  A    between atoms: C_20  and  C_21
REMARK    6  A    between atoms: N_23  and  C_24
REMARK    7  A    between atoms: C_27  and  C_30
REMARK                            x       y       z     vdW  Elec       q    Type
REMARK                         _______ _______ _______ _____ _____    ______ ____
ROOT
ATOM      1  N   UNL     1       0.052  -2.798   2.395  0.00  0.00    -0.228 N 
ATOM      2  C   UNL     1      -0.027  -4.146   2.372  0.00  0.00    +0.269 A 
ATOM      3  O   UNL     1      -0.111  -4.749   1.319  0.00  0.00    -0.266 OA
ATOM      4  C   UNL     1      -0.009  -4.868   3.657  0.00  0.00    +0.064 A 
ATOM      5  C   UNL     1      -0.086  -6.258   3.718  0.00  0.00    +0.015 A 
ATOM      6  C   UNL     1      -0.065  -6.886   4.945  0.00  0.00    +0.001 A 
ATOM      7  C   UNL     1       0.032  -6.144   6.112  0.00  0.00    +0.002 A 
ATOM      8  C   UNL     1       0.110  -4.766   6.066  0.00  0.00    +0.027 A 
ATOM      9  C   UNL     1       0.090  -4.117   4.841  0.00  0.00    +0.059 A 
ATOM     10  N   UNL     1       0.166  -2.734   4.750  0.00  0.00    -0.284 N 
ATOM     11  C   UNL     1       0.151  -2.125   3.552  0.00  0.00    +0.337 A 
ATOM     12  O   UNL     1       0.224  -0.912   3.515  0.00  0.00    -0.246 OA
ENDROOT
BRANCH   1  18
ATOM     13  C   UNL     1       2.501  -0.799  -1.373  0.00  0.00    +0.044 C 
ATOM     14  C   UNL     1       1.209  -1.106  -0.660  0.00  0.00    -0.048 A 
ATOM     15  C   UNL     1       0.007  -0.687  -1.199  0.00  0.00    +0.006 A 
ATOM     16  C   UNL     1      -1.181  -0.967  -0.548  0.00  0.00    -0.048 A 
ATOM     17  C   UNL     1      -1.169  -1.666   0.643  0.00  0.00    +0.029 A 
ATOM     18  C   UNL     1       0.037  -2.089   1.186  0.00  0.00    +0.055 A 
ATOM     19  C   UNL     1       1.227  -1.810   0.528  0.00  0.00    +0.029 A 
ATOM     20  C   UNL     1      -2.489  -0.508  -1.139  0.00  0.00    +0.044 C 
ENDBRANCH   1  18
BRANCH  10  21
ATOM     21  C   UNL     1       0.270  -1.931   5.971  0.00  0.00    +0.222 C 
BRANCH  21  22
ATOM     22  C   UNL     1       1.722  -1.738   6.323  0.00  0.00    +0.235 C 
ATOM     23  O   UNL     1       2.585  -2.224   5.623  0.00  0.00    -0.274 OA
ATOM     24  N   UNL     1       2.061  -1.026   7.416  0.00  0.00    -0.288 N 
ATOM     25  H   UNL     1       1.371  -0.638   7.976  0.00  0.00    +0.151 HD
BRANCH  24  26
ATOM     26  C   UNL     1       3.473  -0.839   7.759  0.00  0.00    +0.239 C 
ATOM     27  C   UNL     1       3.735   0.593   8.193  0.00  0.00    +0.045 C 
ATOM     28  C   UNL     1       4.160   0.473   9.453  0.00  0.00    +0.060 C 
ATOM     29  N   UNL     1       4.189  -0.824   9.829  0.00  0.00    -0.157 NA
ATOM     30  N   UNL     1       3.828  -1.622   8.955  0.00  0.00    -0.160 NA
ATOM     31  C   UNL     1       4.555   1.629  10.335  0.00  0.00    +0.067 C 
ENDBRANCH  24  26
ENDBRANCH  21  22
ENDBRANCH  10  21
TORSDOF 4
