REMARK  Name = ZINC15959464
REMARK  8 active torsions:
REMARK  status: ('A' for Active; 'I' for Inactive)
REMARK    1  A    between atoms: C_1  and  C_2
REMARK    2  A    between atoms: C_2  and  C_3
REMARK    3  A    between atoms: C_17  and  C_20
REMARK    4  A    between atoms: C_20  and  C_21
REMARK    5  A    between atoms: C_21  and  C_22
REMARK    6  A    between atoms: N_27  and  C_30
REMARK    7  A    between atoms: C_30  and  C_31
REMARK    8  A    between atoms: C_31  and  C_32
REMARK                            x       y       z     vdW  Elec       q    Type
REMARK                         _______ _______ _______ _____ _____    ______ ____
ROOT
ATOM      1  C   UNL     1       0.707  -0.490  -1.238  0.00  0.00    -0.026 A 
ATOM      2  C   UNL     1      -0.024  -0.816  -2.362  0.00  0.00    +0.005 A 
ATOM      3  C   UNL     1       0.615  -1.262  -3.504  0.00  0.00    +0.001 A 
ATOM      4  C   UNL     1       1.993  -1.383  -3.521  0.00  0.00    +0.008 A 
ATOM      5  C   UNL     1       2.726  -1.059  -2.402  0.00  0.00    +0.004 A 
ATOM      6  C   UNL     1       2.095  -0.603  -1.247  0.00  0.00    +0.042 A 
ATOM      7  N   UNL     1       3.040  -0.333  -0.255  0.00  0.00    -0.283 N 
ATOM      8  C   UNL     1       4.298  -0.577  -0.672  0.00  0.00    +0.243 C 
ATOM      9  O   UNL     1       5.315  -0.432  -0.027  0.00  0.00    -0.273 OA
ATOM     10  C   UNL     1       4.195  -1.075  -2.087  0.00  0.00    +0.136 C 
ATOM     11  C   UNL     1       4.985  -0.177  -3.046  0.00  0.00    +0.122 C 
ATOM     12  C   UNL     1       5.548  -1.151  -4.119  0.00  0.00    +0.107 C 
ATOM     13  C   UNL     1       5.022  -2.542  -3.706  0.00  0.00    +0.068 C 
ATOM     14  N   UNL     1       4.765  -2.427  -2.239  0.00  0.00    -0.295 NA
ATOM     15  C   UNL     1       7.042  -1.082  -3.902  0.00  0.00    +0.227 C 
ATOM     16  O   UNL     1       7.871  -1.703  -4.534  0.00  0.00    -0.275 OA
ATOM     17  N   UNL     1       7.309  -0.230  -2.906  0.00  0.00    -0.241 N 
ATOM     18  C   UNL     1       6.220   0.349  -2.350  0.00  0.00    +0.228 C 
ATOM     19  O   UNL     1       6.224   1.154  -1.443  0.00  0.00    -0.275 OA
ATOM     20  H   UNL     1       2.817  -0.007   0.631  0.00  0.00    +0.155 HD
ATOM     21  H   UNL     1       5.615  -2.523  -1.705  0.00  0.00    +0.123 HD
ENDROOT
BRANCH   1  23
ATOM     22  C   UNL     1      -0.019   1.526   0.010  0.00  0.00    +0.009 C 
ATOM     23  C   UNL     1       0.002  -0.004   0.002  0.00  0.00    +0.033 C 
ENDBRANCH   1  23
BRANCH  13  24
ATOM     24  C   UNL     1       6.085  -3.611  -3.965  0.00  0.00    +0.031 C 
BRANCH  24  25
ATOM     25  C   UNL     1       5.500  -4.994  -3.667  0.00  0.00    +0.126 C 
BRANCH  25  26
ATOM     26  C   UNL     1       6.548  -6.047  -3.921  0.00  0.00    +0.356 C 
ATOM     27  O   UNL     1       7.658  -5.722  -4.305  0.00  0.00    -0.246 OA
ATOM     28  O   UNL     1       6.284  -7.224  -3.743  0.00  0.00    -0.246 OA
ENDBRANCH  25  26
ENDBRANCH  24  25
ENDBRANCH  13  24
BRANCH  17  29
ATOM     29  C   UNL     1       8.672   0.059  -2.455  0.00  0.00    +0.121 C 
BRANCH  29  30
ATOM     30  C   UNL     1       9.230   1.244  -3.246  0.00  0.00    +0.054 C 
BRANCH  30  31
ATOM     31  C   UNL     1      10.633   1.542  -2.782  0.00  0.00    -0.046 A 
ATOM     32  C   UNL     1      10.843   2.428  -1.742  0.00  0.00    +0.004 A 
ATOM     33  C   UNL     1      12.130   2.701  -1.316  0.00  0.00    +0.000 A 
ATOM     34  C   UNL     1      13.206   2.088  -1.930  0.00  0.00    +0.000 A 
ATOM     35  C   UNL     1      12.995   1.201  -2.969  0.00  0.00    +0.000 A 
ATOM     36  C   UNL     1      11.709   0.924  -3.392  0.00  0.00    +0.004 A 
ENDBRANCH  30  31
ENDBRANCH  29  30
ENDBRANCH  17  29
TORSDOF 7
