REMARK  Name = ZINC09586212
REMARK  6 active torsions:
REMARK  status: ('A' for Active; 'I' for Inactive)
REMARK    1  A    between atoms: C_1  and  C_2
REMARK    2  A    between atoms: C_5  and  S_13
REMARK    3  A    between atoms: N_6  and  C_7
REMARK    4  A    between atoms: S_13  and  C_14
REMARK    5  A    between atoms: C_14  and  C_15
REMARK    6  A    between atoms: C_21  and  C_26
REMARK                            x       y       z     vdW  Elec       q    Type
REMARK                         _______ _______ _______ _____ _____    ______ ____
ROOT
ATOM      1  C   UNL     1       0.095  -6.239   0.999  0.00  0.00    +0.121 A 
ATOM      2  N   UNL     1       0.114  -7.371   0.251  0.00  0.00    -0.310 N 
ATOM      3  H   UNL     1       0.113  -7.302  -0.717  0.00  0.00    +0.170 HD
ATOM      4  C   UNL     1       0.134  -8.588   0.825  0.00  0.00    +0.260 A 
ATOM      5  O   UNL     1       0.152  -9.596   0.139  0.00  0.00    -0.267 OA
ATOM      6  C   UNL     1       0.136  -8.682   2.253  0.00  0.00    +0.083 A 
ATOM      7  C   UNL     1       0.156  -9.870   3.100  0.00  0.00    +0.039 A 
ATOM      8  C   UNL     1       0.153  -9.709   4.447  0.00  0.00    +0.059 A 
ATOM      9  S   UNL     1       0.123  -7.938   4.651  0.00  0.00    -0.076 S 
ATOM     10  C   UNL     1       0.115  -7.459   2.943  0.00  0.00    +0.116 A 
ATOM     11  N   UNL     1       0.101  -6.292   2.304  0.00  0.00    -0.226 NA
ENDROOT
BRANCH   7  12
ATOM     12  C   UNL     1       0.178 -11.221   2.503  0.00  0.00    +0.136 A 
ATOM     13  C   UNL     1       1.036 -12.224   2.831  0.00  0.00    +0.050 A 
ATOM     14  C   UNL     1       0.700 -13.327   2.018  0.00  0.00    +0.042 A 
ATOM     15  C   UNL     1      -0.333 -12.946   1.244  0.00  0.00    +0.196 A 
ATOM     16  O   UNL     1      -0.650 -11.674   1.543  0.00  0.00    -0.463 OA
ENDBRANCH   7  12
BRANCH   1  17
ATOM     17  C   UNL     1       0.073  -4.897   0.313  0.00  0.00    +0.151 C 
BRANCH  17  18
ATOM     18  S   UNL     1       0.059  -3.580   1.560  0.00  0.00    -0.078 S 
BRANCH  18  23
ATOM     19  C   UNL     1      -0.018   1.503   0.010  0.00  0.00    +0.088 C 
ATOM     20  C   UNL     1       0.002  -0.004   0.002  0.00  0.00    +0.131 A 
ATOM     21  N   UNL     1       0.008  -0.770  -1.052  0.00  0.00    -0.134 NA
ATOM     22  N   UNL     1       0.027  -2.006  -0.699  0.00  0.00    -0.122 NA
ATOM     23  C   UNL     1       0.034  -2.095   0.611  0.00  0.00    +0.192 A 
ATOM     24  N   UNL     1       0.024  -0.820   1.099  0.00  0.00    -0.303 N 
BRANCH  24  25
ATOM     25  C   UNL     1       0.031  -0.411   2.506  0.00  0.00    +0.091 C 
ATOM     26  C   UNL     1       1.294  -0.944   3.186  0.00  0.00    +0.025 C 
ATOM     27  C   UNL     1       1.301  -0.517   4.655  0.00  0.00    +0.002 C 
ATOM     28  C   UNL     1       0.066  -1.085   5.357  0.00  0.00    +0.000 C 
ATOM     29  C   UNL     1      -1.197  -0.552   4.677  0.00  0.00    +0.002 C 
ATOM     30  C   UNL     1      -1.204  -0.979   3.208  0.00  0.00    +0.025 C 
ENDBRANCH  24  25
ENDBRANCH  18  23
ENDBRANCH  17  18
ENDBRANCH   1  17
TORSDOF 5
