REMARK  Name = ZINC63526421
REMARK  6 active torsions:
REMARK  status: ('A' for Active; 'I' for Inactive)
REMARK    1  A    between atoms: C_1  and  N_2
REMARK    2  A    between atoms: C_16  and  S_20
REMARK    3  A    between atoms: S_20  and  C_21
REMARK    4  A    between atoms: C_21  and  C_22
REMARK    5  A    between atoms: C_30  and  N_34
REMARK    6  A    between atoms: C_31  and  C_32
REMARK                            x       y       z     vdW  Elec       q    Type
REMARK                         _______ _______ _______ _____ _____    ______ ____
ROOT
ATOM      1  C   UNL     1      -0.018   1.461   0.010  0.00  0.00    +0.138 C 
ATOM      2  N   UNL     1       0.002  -0.004   0.002  0.00  0.00    -0.273 N 
ATOM      3  C   UNL     1       0.008  -0.771  -1.150  0.00  0.00    +0.040 A 
ATOM      4  C   UNL     1      -0.001  -0.366  -2.485  0.00  0.00    +0.024 A 
ATOM      5  C   UNL     1       0.009  -1.361  -3.450  0.00  0.00    +0.002 A 
ATOM      6  C   UNL     1       0.026  -2.700  -3.119  0.00  0.00    +0.000 A 
ATOM      7  C   UNL     1       0.034  -3.118  -1.792  0.00  0.00    +0.006 A 
ATOM      8  C   UNL     1       0.025  -2.134  -0.827  0.00  0.00    -0.008 A 
ATOM      9  C   UNL     1       0.034  -2.208   0.666  0.00  0.00    +0.114 C 
ATOM     10  C   UNL     1       0.023  -0.765   1.117  0.00  0.00    +0.233 C 
ATOM     11  O   UNL     1       0.029  -0.367   2.263  0.00  0.00    -0.274 OA
ATOM     12  C   UNL     1       1.281  -2.916   1.182  0.00  0.00    +0.166 C 
ATOM     13  C   UNL     1       1.238  -2.927   2.687  0.00  0.00    +0.147 C 
ATOM     14  N   UNL     1       2.310  -2.639   3.390  0.00  0.00    -0.208 NA
ATOM     15  C   UNL     1       3.438  -2.213   2.818  0.00  0.00    +0.182 C 
ATOM     16  N   UNL     1       3.534  -1.994   1.513  0.00  0.00    -0.154 NA
ATOM     17  C   UNL     1       2.539  -2.262   0.705  0.00  0.00    +0.250 C 
ATOM     18  O   UNL     1       2.658  -1.980  -0.471  0.00  0.00    -0.273 OA
ATOM     19  N   UNL     1       0.076  -3.163   3.301  0.00  0.00    -0.218 NA
ATOM     20  C   UNL     1      -1.069  -3.168   2.674  0.00  0.00    +0.132 C 
ATOM     21  C   UNL     1      -1.200  -2.941   1.192  0.00  0.00    +0.176 C 
ENDROOT
BRANCH  21  22
ATOM     22  C   UNL     1      -2.400  -2.132   0.927  0.00  0.00    +0.075 C 
ATOM     23  N   UNL     1      -3.327  -1.507   0.722  0.00  0.00    -0.196 NA
ENDBRANCH  21  22
BRANCH  20  24
ATOM     24  N   UNL     1      -2.190  -3.389   3.389  0.00  0.00    -0.252 NA
ATOM     25  H   UNL     1      -2.133  -3.538   4.346  0.00  0.00    +0.171 HD
ENDBRANCH  20  24
BRANCH  15  26
ATOM     26  S   UNL     1       4.850  -1.931   3.833  0.00  0.00    -0.084 S 
BRANCH  26  27
ATOM     27  C   UNL     1       6.124  -1.374   2.668  0.00  0.00    +0.112 C 
BRANCH  27  28
ATOM     28  C   UNL     1       7.402  -1.094   3.416  0.00  0.00    -0.034 A 
ATOM     29  C   UNL     1       7.640   0.168   3.929  0.00  0.00    +0.004 A 
ATOM     30  C   UNL     1       8.811   0.426   4.616  0.00  0.00    +0.003 A 
ATOM     31  C   UNL     1       9.746  -0.577   4.790  0.00  0.00    +0.038 A 
ATOM     32  C   UNL     1       9.509  -1.841   4.277  0.00  0.00    +0.124 A 
ATOM     33  C   UNL     1       8.332  -2.100   3.594  0.00  0.00    +0.042 A 
ATOM     34  F   UNL     1      10.422  -2.822   4.446  0.00  0.00    -0.205 F 
ENDBRANCH  27  28
ENDBRANCH  26  27
ENDBRANCH  15  26
TORSDOF 5
