REMARK  Name = ZINC09244474
REMARK  6 active torsions:
REMARK  status: ('A' for Active; 'I' for Inactive)
REMARK    1  A    between atoms: C_4  and  N_7
REMARK    2  A    between atoms: C_8  and  C_30
REMARK    3  A    between atoms: C_11  and  S_12
REMARK    4  A    between atoms: S_12  and  C_13
REMARK    5  A    between atoms: C_13  and  C_14
REMARK    6  A    between atoms: C_18  and  C_27
REMARK                            x       y       z     vdW  Elec       q    Type
REMARK                         _______ _______ _______ _____ _____    ______ ____
ROOT
ATOM      1  S   UNL     1      -2.131   0.245  -2.805  0.00  0.00    -0.076 S 
ENDROOT
BRANCH   1   6
ATOM      2  N   UNL     1      -2.129   1.233  -0.185  0.00  0.00    -0.270 N 
ATOM      3  C   UNL     1      -2.921   1.083   0.932  0.00  0.00    +0.171 A 
ATOM      4  N   UNL     1      -3.886   0.253   0.610  0.00  0.00    -0.128 NA
ATOM      5  N   UNL     1      -3.756  -0.121  -0.612  0.00  0.00    -0.122 NA
ATOM      6  C   UNL     1      -2.702   0.451  -1.150  0.00  0.00    +0.197 A 
BRANCH   2  10
ATOM      7  C   UNL     1       1.287   3.593  -0.560  0.00  0.00    +0.000 A 
ATOM      8  C   UNL     1       1.397   2.214  -0.559  0.00  0.00    +0.002 A 
ATOM      9  C   UNL     1       0.268   1.430  -0.431  0.00  0.00    +0.026 A 
ATOM     10  C   UNL     1      -0.980   2.027  -0.309  0.00  0.00    +0.051 A 
ATOM     11  C   UNL     1      -1.087   3.411  -0.304  0.00  0.00    +0.026 A 
ATOM     12  C   UNL     1       0.047   4.190  -0.433  0.00  0.00    +0.002 A 
ENDBRANCH   2  10
BRANCH   3  13
ATOM     13  C   UNL     1      -2.722   1.733   2.244  0.00  0.00    +0.038 A 
ATOM     14  C   UNL     1      -1.491   2.315   2.571  0.00  0.00    +0.014 A 
ATOM     15  C   UNL     1      -1.359   2.916   3.810  0.00  0.00    +0.020 A 
ATOM     16  C   UNL     1      -2.432   2.913   4.683  0.00  0.00    +0.111 A 
ATOM     17  N   UNL     1      -3.579   2.352   4.350  0.00  0.00    -0.263 NA
ATOM     18  C   UNL     1      -3.756   1.773   3.181  0.00  0.00    +0.122 A 
ENDBRANCH   3  13
ENDBRANCH   1   6
BRANCH   1  19
ATOM     19  C   UNL     1      -3.382  -0.904  -3.428  0.00  0.00    +0.173 C 
BRANCH  19  20
ATOM     20  C   UNL     1      -3.089  -1.233  -4.869  0.00  0.00    +0.230 C 
ATOM     21  O   UNL     1      -2.080  -0.812  -5.394  0.00  0.00    -0.274 OA
ATOM     22  N   UNL     1      -3.949  -1.994  -5.575  0.00  0.00    -0.264 N 
ATOM     23  C   UNL     1      -5.114  -2.624  -4.932  0.00  0.00    +0.168 C 
ATOM     24  C   UNL     1      -5.237  -4.049  -5.482  0.00  0.00    +0.276 C 
ATOM     25  O   UNL     1      -5.371  -3.987  -6.904  0.00  0.00    -0.476 OA
ATOM     26  C   UNL     1      -4.482  -3.222  -7.591  0.00  0.00    +0.143 A 
ATOM     27  C   UNL     1      -3.761  -2.218  -6.950  0.00  0.00    +0.078 A 
ATOM     28  C   UNL     1      -2.862  -1.442  -7.664  0.00  0.00    +0.027 A 
ATOM     29  C   UNL     1      -2.680  -1.668  -9.017  0.00  0.00    +0.002 A 
ATOM     30  C   UNL     1      -3.392  -2.667  -9.654  0.00  0.00    +0.004 A 
ATOM     31  C   UNL     1      -4.291  -3.442  -8.947  0.00  0.00    +0.047 A 
BRANCH  24  32
ATOM     32  C   UNL     1      -6.449  -4.720  -4.889  0.00  0.00    +0.253 C 
ATOM     33  O   UNL     1      -7.382  -5.026  -5.601  0.00  0.00    -0.272 OA
ATOM     34  N   UNL     1      -6.497  -4.980  -3.568  0.00  0.00    -0.326 N 
ATOM     35  H   UNL     1      -5.751  -4.735  -2.998  0.00  0.00    +0.145 HD
ATOM     36  H   UNL     1      -7.277  -5.412  -3.186  0.00  0.00    +0.145 HD
ENDBRANCH  24  32
ENDBRANCH  19  20
ENDBRANCH   1  19
TORSDOF 6
