REMARK  Name = ZINC13210364
REMARK  13 active torsions:
REMARK  status: ('A' for Active; 'I' for Inactive)
REMARK    1  A    between atoms: C_1  and  C_2
REMARK    2  A    between atoms: C_4  and  C_31
REMARK    3  A    between atoms: C_5  and  N_9
REMARK    4  A    between atoms: C_6  and  C_8
REMARK    5  A    between atoms: C_10  and  C_12
REMARK    6  A    between atoms: C_12  and  C_14
REMARK    7  A    between atoms: C_12  and  S_15
REMARK    8  A    between atoms: S_15  and  C_16
REMARK    9  A    between atoms: C_20  and  C_30
REMARK   10  A    between atoms: C_21  and  C_26
REMARK   11  A    between atoms: C_22  and  C_25
REMARK   12  A    between atoms: C_26  and  C_27
REMARK   13  A    between atoms: C_27  and  C_28
REMARK                            x       y       z     vdW  Elec       q    Type
REMARK                         _______ _______ _______ _____ _____    ______ ____
ROOT
ATOM      1  S   UNL     1       7.290  -0.025  -1.446  0.00  0.00    -0.072 S 
ENDROOT
BRANCH   1   2
ATOM      2  C   UNL     1       8.684  -1.101  -1.519  0.00  0.00    +0.212 A 
ATOM      3  N   UNL     1       8.784  -2.273  -0.895  0.00  0.00    -0.183 NA
ATOM      4  C   UNL     1       9.963  -2.824  -1.164  0.00  0.00    +0.254 A 
ATOM      5  N   UNL     1      10.528  -3.975  -0.782  0.00  0.00    -0.216 NA
ATOM      6  C   UNL     1      11.732  -4.304  -1.192  0.00  0.00    +0.047 A 
ATOM      7  C   UNL     1      12.447  -3.450  -2.039  0.00  0.00    -0.005 A 
ATOM      8  C   UNL     1      11.882  -2.278  -2.431  0.00  0.00    +0.048 A 
ATOM      9  N   UNL     1      10.635  -1.968  -1.990  0.00  0.00    -0.200 N 
ATOM     10  N   UNL     1       9.786  -0.873  -2.204  0.00  0.00    -0.137 NA
ATOM     11  C   UNL     1      12.626  -1.337  -3.343  0.00  0.00    +0.066 C 
ATOM     12  C   UNL     1      12.347  -5.606  -0.748  0.00  0.00    +0.066 C 
BRANCH   7  13
ATOM     13  C   UNL     1      13.829  -3.824  -2.510  0.00  0.00    +0.050 C 
BRANCH  13  14
ATOM     14  C   UNL     1      13.727  -4.611  -3.817  0.00  0.00    +0.130 C 
BRANCH  14  15
ATOM     15  C   UNL     1      15.108  -4.986  -4.288  0.00  0.00    +0.356 C 
ATOM     16  O   UNL     1      16.076  -4.656  -3.644  0.00  0.00    -0.246 OA
ATOM     17  O   UNL     1      15.264  -5.685  -5.423  0.00  0.00    -0.246 OA
ENDBRANCH  14  15
ENDBRANCH  13  14
ENDBRANCH   7  13
ENDBRANCH   1   2
BRANCH   1  18
ATOM     18  C   UNL     1       6.121  -0.895  -0.366  0.00  0.00    +0.137 C 
ATOM     19  C   UNL     1       6.707  -0.997   1.044  0.00  0.00    +0.029 C 
BRANCH  18  21
ATOM     20  N   UNL     1       3.691  -0.753   0.075  0.00  0.00    -0.284 N 
ATOM     21  C   UNL     1       4.822  -0.133  -0.315  0.00  0.00    +0.230 C 
ATOM     22  O   UNL     1       4.794   1.040  -0.625  0.00  0.00    -0.274 OA
ATOM     23  H   UNL     1       3.725  -1.670   0.390  0.00  0.00    +0.155 HD
BRANCH  20  28
ATOM     24  C   UNL     1      -1.267   1.996  -0.136  0.00  0.00    +0.044 C 
ATOM     25  C   UNL     1       0.048   1.264  -0.076  0.00  0.00    -0.050 A 
ATOM     26  C   UNL     1       1.101   1.792   0.649  0.00  0.00    +0.008 A 
ATOM     27  C   UNL     1       2.309   1.126   0.701  0.00  0.00    -0.029 A 
ATOM     28  C   UNL     1       2.467  -0.076   0.024  0.00  0.00    +0.039 A 
ATOM     29  C   UNL     1       1.409  -0.605  -0.703  0.00  0.00    -0.029 A 
ATOM     30  C   UNL     1       0.203   0.067  -0.751  0.00  0.00    +0.008 A 
ATOM     31  C   UNL     1       1.576  -1.909  -1.439  0.00  0.00    +0.045 C 
ATOM     32  C   UNL     1       3.455   1.703   1.492  0.00  0.00    +0.045 C 
ENDBRANCH  20  28
ENDBRANCH  18  21
ENDBRANCH   1  18
TORSDOF 7
