REMARK  Name = ZINC28477561
REMARK  7 active torsions:
REMARK  status: ('A' for Active; 'I' for Inactive)
REMARK    1  A    between atoms: C_1  and  C_2
REMARK    2  A    between atoms: C_3  and  C_12
REMARK    3  A    between atoms: C_12  and  C_13
REMARK    4  A    between atoms: C_13  and  C_14
REMARK    5  A    between atoms: C_14  and  O_16
REMARK    6  A    between atoms: O_16  and  C_17
REMARK    7  A    between atoms: C_17  and  C_18
REMARK                            x       y       z     vdW  Elec       q    Type
REMARK                         _______ _______ _______ _____ _____    ______ ____
ROOT
ATOM      1  C   UNL     1      -0.753   1.593  -1.232  0.00  0.00    +0.053 C 
ENDROOT
BRANCH   1   4
ATOM      2  C   UNL     1      -1.609  -0.816  -2.539  0.00  0.00    +0.064 C 
ATOM      3  C   UNL     1      -0.449  -0.026  -3.088  0.00  0.00    +0.026 A 
ATOM      4  C   UNL     1      -0.047   1.107  -2.471  0.00  0.00    +0.036 A 
ATOM      5  C   UNL     1       1.049   1.828  -3.002  0.00  0.00    +0.257 A 
ATOM      6  O   UNL     1       1.433   2.849  -2.461  0.00  0.00    -0.267 OA
ATOM      7  N   UNL     1       1.665   1.374  -4.113  0.00  0.00    -0.275 N 
ATOM      8  H   UNL     1       2.517   1.927  -4.534  0.00  0.00    +0.173 HD
ATOM      9  C   UNL     1       1.240   0.245  -4.710  0.00  0.00    +0.327 A 
ATOM     10  O   UNL     1       1.805  -0.153  -5.710  0.00  0.00    -0.247 OA
ATOM     11  N   UNL     1       0.200  -0.450  -4.215  0.00  0.00    -0.311 N 
ATOM     12  H   UNL     1      -0.128  -1.368  -4.726  0.00  0.00    +0.170 HD
ENDBRANCH   1   4
BRANCH   1  13
ATOM     13  C   UNL     1      -0.013   1.086   0.008  0.00  0.00    +0.125 C 
BRANCH  13  14
ATOM     14  C   UNL     1      -0.718   1.572   1.248  0.00  0.00    +0.308 C 
ATOM     15  O   UNL     1      -1.711   2.254   1.150  0.00  0.00    -0.251 OA
BRANCH  14  16
ATOM     16  O   UNL     1      -0.243   1.247   2.461  0.00  0.00    -0.458 OA
BRANCH  16  17
ATOM     17  C   UNL     1      -0.974   1.750   3.611  0.00  0.00    +0.291 C 
BRANCH  17  18
ATOM     18  C   UNL     1      -0.298   1.288   4.876  0.00  0.00    +0.128 A 
ATOM     19  C   UNL     1      -0.617   0.121   5.503  0.00  0.00    +0.124 A 
ATOM     20  S   UNL     1       0.473   0.159   6.849  0.00  0.00    +0.049 S 
ATOM     21  N   UNL     1       1.188   1.535   6.555  0.00  0.00    -0.109 NA
ATOM     22  N   UNL     1       0.648   1.978   5.477  0.00  0.00    -0.141 NA
ATOM     23 CL   UNL     1      -1.794  -1.079   5.070  0.00  0.00    -0.072 Cl
ENDBRANCH  17  18
ENDBRANCH  16  17
ENDBRANCH  14  16
ENDBRANCH  13  14
ENDBRANCH   1  13
TORSDOF 6
