REMARK  Name = ZINC18078308
REMARK  7 active torsions:
REMARK  status: ('A' for Active; 'I' for Inactive)
REMARK    1  A    between atoms: C_1  and  C_2
REMARK    2  A    between atoms: C_5  and  N_9
REMARK    3  A    between atoms: C_10  and  C_12
REMARK    4  A    between atoms: C_12  and  C_13
REMARK    5  A    between atoms: C_13  and  C_14
REMARK    6  A    between atoms: C_14  and  N_15
REMARK    7  A    between atoms: C_19  and  N_25
REMARK                            x       y       z     vdW  Elec       q    Type
REMARK                         _______ _______ _______ _____ _____    ______ ____
ROOT
ATOM      1  C   UNL     1      -0.238  -6.847  -2.632  0.00  0.00    +0.031 C 
ENDROOT
BRANCH   1   2
ATOM      2  C   UNL     1      -0.136  -6.343  -1.191  0.00  0.00    +0.098 C 
BRANCH   2   4
ATOM      3  N   UNL     1       0.057  -4.171  -0.023  0.00  0.00    -0.284 N 
ATOM      4  C   UNL     1      -0.042  -4.839  -1.190  0.00  0.00    +0.217 C 
ATOM      5  O   UNL     1      -0.055  -4.230  -2.238  0.00  0.00    -0.275 OA
ATOM      6  H   UNL     1       0.149  -4.660   0.809  0.00  0.00    +0.155 HD
BRANCH   3  11
ATOM      7  C   UNL     1      -0.064   1.502   0.016  0.00  0.00    +0.044 C 
ATOM      8  C   UNL     1      -0.031  -0.005   0.006  0.00  0.00    -0.049 A 
ATOM      9  C   UNL     1      -0.622  -0.701  -1.033  0.00  0.00    +0.005 A 
ATOM     10  C   UNL     1      -0.594  -2.082  -1.045  0.00  0.00    +0.025 A 
ATOM     11  C   UNL     1       0.028  -2.772  -0.014  0.00  0.00    +0.052 A 
ATOM     12  C   UNL     1       0.621  -2.070   1.029  0.00  0.00    +0.062 A 
ATOM     13  C   UNL     1       0.595  -0.688   1.032  0.00  0.00    +0.025 A 
ATOM     14 CL   UNL     1       1.401  -2.928   2.321  0.00  0.00    -0.082 Cl
ENDBRANCH   3  11
ENDBRANCH   2   4
ENDBRANCH   1   2
BRANCH   1  15
ATOM     15  C   UNL     1      -0.334  -8.374  -2.633  0.00  0.00    +0.129 C 
BRANCH  15  16
ATOM     16  N   UNL     1      -0.432  -8.856  -4.013  0.00  0.00    -0.274 N 
ATOM     17  C   UNL     1      -1.608  -9.052  -4.737  0.00  0.00    +0.090 A 
ATOM     18  C   UNL     1      -2.950  -8.878  -4.437  0.00  0.00    +0.032 A 
ATOM     19  C   UNL     1      -3.909  -9.166  -5.388  0.00  0.00    +0.035 A 
ATOM     20  C   UNL     1      -3.533  -9.626  -6.638  0.00  0.00    +0.130 A 
ATOM     21  C   UNL     1      -2.198  -9.801  -6.944  0.00  0.00    +0.081 A 
ATOM     22  C   UNL     1      -1.228  -9.515  -5.996  0.00  0.00    +0.159 A 
ATOM     23  O   UNL     1       0.126  -9.588  -6.007  0.00  0.00    -0.407 OA
ATOM     24  C   UNL     1       0.599  -9.185  -4.817  0.00  0.00    +0.421 A 
ATOM     25  O   UNL     1       1.774  -9.129  -4.511  0.00  0.00    -0.223 OA
BRANCH  20  26
ATOM     26  N   UNL     1      -4.567  -9.932  -7.652  0.00  0.00    +0.057 N 
ATOM     27  O   UNL     1      -5.737  -9.780  -7.387  0.00  0.00    -0.126 OA
ATOM     28  O   UNL     1      -4.242 -10.334  -8.745  0.00  0.00    -0.126 OA
ENDBRANCH  20  26
ENDBRANCH  15  16
ENDBRANCH   1  15
TORSDOF 6
