REMARK  Name = ZINC63557317
REMARK  5 active torsions:
REMARK  status: ('A' for Active; 'I' for Inactive)
REMARK    1  A    between atoms: C_6  and  N_7
REMARK    2  A    between atoms: C_8  and  C_10
REMARK    3  A    between atoms: N_15  and  C_17
REMARK    4  A    between atoms: C_17  and  C_18
REMARK    5  A    between atoms: C_18  and  C_19
REMARK                            x       y       z     vdW  Elec       q    Type
REMARK                         _______ _______ _______ _____ _____    ______ ____
ROOT
ATOM      1  C   UNL     1      -3.661  -0.845   0.242  0.00  0.00    +0.101 C 
ATOM      2  C   UNL     1      -3.691  -1.668   1.550  0.00  0.00    +0.110 C 
ATOM      3  C   UNL     1      -5.131  -1.590   2.005  0.00  0.00    +0.216 C 
ATOM      4  O   UNL     1      -5.640  -2.320   2.829  0.00  0.00    -0.276 OA
ATOM      5  N   UNL     1      -5.765  -0.593   1.364  0.00  0.00    -0.300 N 
ATOM      6  C   UNL     1      -4.863   0.105   0.439  0.00  0.00    +0.121 C 
ENDROOT
BRANCH   1   8
ATOM      7  N   UNL     1      -1.201  -0.721   0.008  0.00  0.00    -0.285 N 
ATOM      8  C   UNL     1      -2.375  -0.068   0.122  0.00  0.00    +0.222 C 
ATOM      9  O   UNL     1      -2.396   1.145   0.129  0.00  0.00    -0.275 OA
ATOM     10  H   UNL     1      -1.190  -1.688  -0.065  0.00  0.00    +0.155 HD
BRANCH   7  16
ATOM     11  C   UNL     1       1.137  -0.540   0.584  0.00  0.00    +0.027 A 
ATOM     12  C   UNL     1       2.324   0.168   0.573  0.00  0.00    +0.051 A 
ATOM     13  C   UNL     1       2.384   1.417  -0.028  0.00  0.00    +0.162 A 
ATOM     14  C   UNL     1       1.248   1.956  -0.622  0.00  0.00    +0.164 A 
ATOM     15  C   UNL     1       0.058   1.245  -0.609  0.00  0.00    +0.072 A 
ATOM     16  C   UNL     1       0.002  -0.003  -0.006  0.00  0.00    +0.037 A 
ATOM     17  O   UNL     1       1.290   3.176  -1.224  0.00  0.00    -0.485 OA
ATOM     18  C   UNL     1       2.398   4.020  -0.893  0.00  0.00    +0.270 C 
ATOM     19  C   UNL     1       3.680   3.179  -0.962  0.00  0.00    +0.270 C 
ATOM     20  O   UNL     1       3.561   2.102  -0.026  0.00  0.00    -0.485 OA
ENDBRANCH   7  16
ENDBRANCH   1   8
BRANCH   5  21
ATOM     21  C   UNL     1      -7.175  -0.247   1.562  0.00  0.00    +0.112 C 
BRANCH  21  22
ATOM     22  C   UNL     1      -7.294   0.787   2.683  0.00  0.00    +0.052 C 
BRANCH  22  23
ATOM     23  C   UNL     1      -8.744   1.143   2.886  0.00  0.00    -0.040 C 
ATOM     24  C   UNL     1      -9.594   0.605   3.790  0.00  0.00    +0.002 A 
ATOM     25  C   UNL     1      -9.429  -0.433   4.815  0.00  0.00    +0.048 A 
ATOM     26  C   UNL     1     -10.489  -0.767   5.588  0.00  0.00    +0.124 A 
ATOM     27  C   UNL     1     -11.739  -0.147   5.433  0.00  0.00    +0.040 A 
ATOM     28  C   UNL     1     -11.966   0.814   4.513  0.00  0.00    +0.029 A 
ATOM     29  C   UNL     1     -10.922   1.243   3.648  0.00  0.00    +0.043 A 
ATOM     30  N   UNL     1     -10.895   2.140   2.693  0.00  0.00    -0.380 N 
ATOM     31  C   UNL     1      -9.542   2.178   2.125  0.00  0.00    +0.144 C 
ATOM     32  F   UNL     1     -10.340  -1.722   6.532  0.00  0.00    -0.205 F 
ATOM     33  H   UNL     1     -11.642   2.691   2.411  0.00  0.00    +0.160 HD
ENDBRANCH  22  23
ENDBRANCH  21  22
ENDBRANCH   5  21
TORSDOF 5
