REMARK  Name = ZINC01069287
REMARK  7 active torsions:
REMARK  status: ('A' for Active; 'I' for Inactive)
REMARK    1  A    between atoms: C_1  and  C_2
REMARK    2  A    between atoms: C_2  and  O_3
REMARK    3  A    between atoms: O_3  and  C_4
REMARK    4  A    between atoms: C_4  and  C_6
REMARK    5  A    between atoms: C_7  and  C_23
REMARK    6  A    between atoms: C_12  and  C_14
REMARK    7  A    between atoms: C_23  and  N_51
REMARK                            x       y       z     vdW  Elec       q    Type
REMARK                         _______ _______ _______ _____ _____    ______ ____
ROOT
ATOM      1  C   UNL     1      -0.000  -0.004  -0.022  0.00  0.00    +0.076 C 
ATOM      2  C   UNL     1       1.161  -0.686  -0.119  0.00  0.00    +0.008 C 
ATOM      3  N   UNL     1       1.181  -2.051  -0.097  0.00  0.00    -0.274 N 
ATOM      4  C   UNL     1       0.082  -2.808   0.009  0.00  0.00    +0.304 C 
ATOM      5  O   UNL     1       0.200  -4.018   0.016  0.00  0.00    -0.252 OA
ATOM      6  N   UNL     1      -1.151  -2.273   0.109  0.00  0.00    -0.288 N 
ATOM      7  C   UNL     1      -1.280  -0.806   0.100  0.00  0.00    +0.144 C 
ATOM      8  H   UNL     1       2.040  -2.498  -0.165  0.00  0.00    +0.156 HD
ATOM      9  H   UNL     1      -1.934  -2.840   0.184  0.00  0.00    +0.151 HD
ENDROOT
BRANCH   7  10
ATOM     10  C   UNL     1      -1.967  -0.393   1.376  0.00  0.00    -0.019 A 
ATOM     11  C   UNL     1      -1.544  -0.912   2.586  0.00  0.00    +0.009 A 
ATOM     12  C   UNL     1      -2.171  -0.536   3.759  0.00  0.00    +0.050 A 
ATOM     13  C   UNL     1      -3.225   0.363   3.726  0.00  0.00    +0.166 A 
ATOM     14  C   UNL     1      -3.651   0.885   2.507  0.00  0.00    +0.167 A 
ATOM     15  C   UNL     1      -3.015   0.508   1.335  0.00  0.00    +0.055 A 
ATOM     16  O   UNL     1      -4.691   1.738   2.738  0.00  0.00    -0.453 OA
ATOM     17  C   UNL     1      -5.163   1.420   4.061  0.00  0.00    +0.466 C 
ATOM     18  O   UNL     1      -3.998   0.888   4.720  0.00  0.00    -0.453 OA
ENDBRANCH   7  10
BRANCH   1  19
ATOM     19  C   UNL     1      -0.022   1.410  -0.040  0.00  0.00    +0.339 C 
ATOM     20  O   UNL     1       1.001   2.032  -0.258  0.00  0.00    -0.245 OA
BRANCH  19  21
ATOM     21  O   UNL     1      -1.178   2.070   0.180  0.00  0.00    -0.462 OA
BRANCH  21  23
ATOM     22  C   UNL     1      -2.522   4.064   0.416  0.00  0.00    +0.048 C 
ATOM     23  C   UNL     1      -1.127   3.498   0.148  0.00  0.00    +0.229 C 
ENDBRANCH  21  23
ENDBRANCH  19  21
ENDBRANCH   1  19
BRANCH   2  24
ATOM     24  C   UNL     1       2.457   0.072  -0.249  0.00  0.00    -0.026 C 
BRANCH  24  30
ATOM     25  C   UNL     1       2.841  -0.771  -2.482  0.00  0.00    -0.068 C 
ATOM     26  C   UNL     1       2.609  -0.422  -3.957  0.00  0.00    +0.050 C 
ATOM     27  S   UNL     1       3.856   0.804  -4.458  0.00  0.00    -0.164 S 
ATOM     28  C   UNL     1       3.724   2.066  -3.154  0.00  0.00    +0.050 C 
ATOM     29  C   UNL     1       3.797   1.363  -1.793  0.00  0.00    -0.068 C 
ATOM     30  N   UNL     1       2.642   0.447  -1.662  0.00  0.00    +0.384 N 
ATOM     31  H   UNL     1       1.799   0.931  -1.990  0.00  0.00    -0.081 HD
ENDBRANCH  24  30
ENDBRANCH   2  24
TORSDOF 6
