REMARK  Name = ZINC08328715
REMARK  5 active torsions:
REMARK  status: ('A' for Active; 'I' for Inactive)
REMARK    1  A    between atoms: C_8  and  C_10
REMARK    2  A    between atoms: C_10  and  C_11
REMARK    3  A    between atoms: C_11  and  C_12
REMARK    4  A    between atoms: N_14  and  C_15
REMARK    5  A    between atoms: C_15  and  C_16
REMARK                            x       y       z     vdW  Elec       q    Type
REMARK                         _______ _______ _______ _____ _____    ______ ____
ROOT
ATOM      1  C   UNL     1      -0.268   1.258  -2.409  0.00  0.00    +0.214 C 
ATOM      2  O   UNL     1       0.726   0.575  -2.534  0.00  0.00    -0.276 OA
ATOM      3  N   UNL     1      -0.721   1.571  -1.179  0.00  0.00    -0.308 N 
ATOM      4  H   UNL     1      -1.516   2.118  -1.079  0.00  0.00    +0.149 HD
ENDROOT
BRANCH   1   5
ATOM      5  C   UNL     1      -0.997   1.758  -3.630  0.00  0.00    +0.105 C 
BRANCH   5   6
ATOM      6  C   UNL     1      -0.281   1.264  -4.889  0.00  0.00    +0.105 C 
BRANCH   6  14
ATOM      7  C   UNL     1      -2.767   3.815  -9.712  0.00  0.00    +0.002 A 
ATOM      8  C   UNL     1      -3.555   2.673  -9.717  0.00  0.00    +0.004 A 
ATOM      9  C   UNL     1      -3.381   1.699  -8.757  0.00  0.00    +0.048 A 
ATOM     10  C   UNL     1      -2.411   1.859  -7.778  0.00  0.00    +0.155 A 
ATOM     11  C   UNL     1      -1.612   3.012  -7.770  0.00  0.00    +0.110 A 
ATOM     12  C   UNL     1      -1.799   3.990  -8.748  0.00  0.00    +0.031 A 
ATOM     13  N   UNL     1      -0.769   2.891  -6.709  0.00  0.00    -0.213 NA
ATOM     14  C   UNL     1      -1.010   1.763  -6.110  0.00  0.00    +0.197 A 
ATOM     15  O   UNL     1      -2.004   1.110  -6.730  0.00  0.00    -0.440 OA
ENDBRANCH   6  14
ENDBRANCH   5   6
ENDBRANCH   1   5
BRANCH   3  16
ATOM     16  C   UNL     1      -0.013   1.086   0.008  0.00  0.00    +0.181 C 
BRANCH  16  17
ATOM     17  C   UNL     1      -0.718   1.572   1.248  0.00  0.00    +0.155 A 
ATOM     18  N   UNL     1      -1.677   0.952   1.885  0.00  0.00    -0.132 NA
ATOM     19  N   UNL     1      -2.056   1.642   2.903  0.00  0.00    -0.129 NA
ATOM     20  C   UNL     1      -1.346   2.757   2.969  0.00  0.00    +0.161 A 
ATOM     21  N   UNL     1      -0.470   2.733   1.912  0.00  0.00    -0.285 N 
ATOM     22  C   UNL     1       0.399   3.765   1.711  0.00  0.00    +0.094 A 
ATOM     23  C   UNL     1       0.417   4.819   2.553  0.00  0.00    +0.018 A 
ATOM     24  C   UNL     1      -0.464   4.870   3.647  0.00  0.00    +0.005 A 
ATOM     25  C   UNL     1      -1.339   3.850   3.857  0.00  0.00    +0.048 A 
ENDBRANCH  16  17
ENDBRANCH   3  16
TORSDOF 5
