REMARK  Name = ZINC21856348
REMARK  9 active torsions:
REMARK  status: ('A' for Active; 'I' for Inactive)
REMARK    1  A    between atoms: C_1  and  C_2
REMARK    2  A    between atoms: C_2  and  C_26
REMARK    3  A    between atoms: C_9  and  O_15
REMARK    4  A    between atoms: C_12  and  O_13
REMARK    5  A    between atoms: O_13  and  C_14
REMARK    6  A    between atoms: O_15  and  C_16
REMARK    7  A    between atoms: N_19  and  C_20
REMARK    8  A    between atoms: C_20  and  C_21
REMARK    9  A    between atoms: N_28  and  C_29
REMARK                            x       y       z     vdW  Elec       q    Type
REMARK                         _______ _______ _______ _____ _____    ______ ____
ROOT
ATOM      1  C   UNL     1      -2.101  -0.283  -0.858  0.00  0.00    +0.043 C 
ATOM      2  C   UNL     1      -1.621   0.750  -1.879  0.00  0.00    +0.129 C 
ATOM      3  C   UNL     1      -2.843   1.413  -2.524  0.00  0.00    +0.157 C 
ATOM      4  N   UNL     1      -2.403   2.580  -3.297  0.00  0.00    -0.331 N 
ATOM      5  C   UNL     1      -1.277   3.318  -2.921  0.00  0.00    +0.106 A 
ATOM      6  C   UNL     1      -1.117   4.357  -3.768  0.00  0.00    +0.044 A 
ATOM      7  C   UNL     1      -2.139   4.279  -4.729  0.00  0.00    +0.046 A 
ATOM      8  C   UNL     1      -2.933   3.145  -4.410  0.00  0.00    +0.095 A 
ATOM      9  C   UNL     1      -4.036   2.804  -5.200  0.00  0.00    +0.144 A 
ATOM     10  C   UNL     1      -4.311   3.617  -6.290  0.00  0.00    +0.051 A 
ATOM     11  C   UNL     1      -3.539   4.724  -6.602  0.00  0.00    +0.050 A 
ATOM     12  C   UNL     1      -2.440   5.089  -5.840  0.00  0.00    +0.129 A 
ATOM     13  C   UNL     1      -0.484   2.925  -1.744  0.00  0.00    +0.264 C 
ATOM     14  O   UNL     1       0.375   3.651  -1.280  0.00  0.00    -0.268 OA
ATOM     15  N   UNL     1      -0.760   1.715  -1.205  0.00  0.00    -0.273 N 
ENDROOT
BRANCH   2  16
ATOM     16  C   UNL     1      -0.823   0.045  -2.945  0.00  0.00    +0.238 C 
ATOM     17  O   UNL     1      -1.355  -0.281  -3.985  0.00  0.00    -0.273 OA
ATOM     18  N   UNL     1       0.481  -0.225  -2.742  0.00  0.00    -0.311 N 
ATOM     19  H   UNL     1       0.964   0.070  -1.799  0.00  0.00    +0.149 HD
BRANCH  18  20
ATOM     20  C   UNL     1       1.257  -0.911  -3.778  0.00  0.00    +0.073 C 
ATOM     21  C   UNL     1       1.074  -2.423  -3.635  0.00  0.00    +0.022 C 
ATOM     22  C   UNL     1       1.884  -3.140  -4.717  0.00  0.00    +0.002 C 
ATOM     23  C   UNL     1       3.365  -2.789  -4.562  0.00  0.00    +0.000 C 
ATOM     24  C   UNL     1       3.549  -1.276  -4.705  0.00  0.00    +0.002 C 
ATOM     25  C   UNL     1       2.738  -0.560  -3.623  0.00  0.00    +0.022 C 
ENDBRANCH  18  20
ENDBRANCH   2  16
BRANCH  12  26
ATOM     26  O   UNL     1      -1.687   6.176  -6.152  0.00  0.00    -0.494 OA
ATOM     27  C   UNL     1      -2.081   6.929  -7.301  0.00  0.00    +0.277 C 
ENDBRANCH  12  26
BRANCH   9  28
ATOM     28  O   UNL     1      -4.807   1.721  -4.911  0.00  0.00    -0.493 OA
ATOM     29  C   UNL     1      -5.910   1.460  -5.781  0.00  0.00    +0.277 C 
ENDBRANCH   9  28
BRANCH  15  30
ATOM     30  C   UNL     1      -0.171   1.361   0.089  0.00  0.00    +0.183 C 
BRANCH  30  31
ATOM     31  C   UNL     1      -1.021   1.924   1.198  0.00  0.00    +0.122 A 
ATOM     32  C   UNL     1      -1.972   1.257   1.877  0.00  0.00    +0.046 A 
ATOM     33  C   UNL     1      -2.513   2.161   2.820  0.00  0.00    +0.041 A 
ATOM     34  C   UNL     1      -1.861   3.326   2.661  0.00  0.00    +0.195 A 
ATOM     35  O   UNL     1      -0.954   3.175   1.681  0.00  0.00    -0.466 OA
ENDBRANCH  30  31
ENDBRANCH  15  30
TORSDOF 6
