REMARK  Name = ZINC44942446
REMARK  6 active torsions:
REMARK  status: ('A' for Active; 'I' for Inactive)
REMARK    1  A    between atoms: C_1  and  C_2
REMARK    2  A    between atoms: C_2  and  N_3
REMARK    3  A    between atoms: C_7  and  C_8
REMARK    4  A    between atoms: C_8  and  N_9
REMARK    5  A    between atoms: C_10  and  C_12
REMARK    6  A    between atoms: C_14  and  C_24
REMARK                            x       y       z     vdW  Elec       q    Type
REMARK                         _______ _______ _______ _____ _____    ______ ____
ROOT
ATOM      1  N   UNL     1      -1.972  -2.228   3.128  0.00  0.00    -0.305 N 
ATOM      2  C   UNL     1      -3.312  -2.109   3.208  0.00  0.00    +0.258 C 
ATOM      3  O   UNL     1      -3.804  -1.132   3.731  0.00  0.00    -0.272 OA
ATOM      4  H   UNL     1      -1.577  -3.038   2.771  0.00  0.00    +0.149 HD
ENDROOT
BRANCH   2   5
ATOM      5  C   UNL     1      -4.199  -3.191   2.647  0.00  0.00    +0.299 C 
ATOM      6  C   UNL     1      -4.143  -3.162   1.113  0.00  0.00    +0.220 C 
ATOM      7  O   UNL     1      -4.598  -1.879   0.672  0.00  0.00    -0.481 OA
ATOM      8  C   UNL     1      -5.737  -1.403   1.248  0.00  0.00    +0.163 A 
ATOM      9  C   UNL     1      -6.428  -0.368   0.635  0.00  0.00    +0.049 A 
ATOM     10  C   UNL     1      -7.583   0.128   1.208  0.00  0.00    +0.004 A 
ATOM     11  C   UNL     1      -8.053  -0.405   2.394  0.00  0.00    +0.004 A 
ATOM     12  C   UNL     1      -7.370  -1.437   3.009  0.00  0.00    +0.049 A 
ATOM     13  C   UNL     1      -6.210  -1.940   2.438  0.00  0.00    +0.163 A 
ATOM     14  O   UNL     1      -5.553  -2.963   3.052  0.00  0.00    -0.472 OA
ATOM     15  C   UNL     1      -2.704  -3.389   0.645  0.00  0.00    +0.056 C 
ENDBRANCH   2   5
BRANCH   1  16
ATOM     16  C   UNL     1      -1.111  -1.132   3.581  0.00  0.00    +0.180 C 
BRANCH  16  21
ATOM     17  N   UNL     1       1.082  -1.286   2.279  0.00  0.00    -0.316 N 
ATOM     18  C   UNL     1       2.311  -1.789   2.549  0.00  0.00    +0.225 A 
ATOM     19  N   UNL     1       2.271  -2.288   3.754  0.00  0.00    -0.138 NA
ATOM     20  N   UNL     1       1.095  -2.128   4.250  0.00  0.00    -0.133 NA
ATOM     21  C   UNL     1       0.333  -1.514   3.385  0.00  0.00    +0.150 A 
BRANCH  17  23
ATOM     22  C   UNL     1       0.794   0.889   1.199  0.00  0.00    +0.027 C 
ATOM     23  C   UNL     1       0.651  -0.626   1.044  0.00  0.00    +0.121 C 
ENDBRANCH  17  23
ENDBRANCH  16  21
ENDBRANCH   1  16
TORSDOF 4
