REMARK  Name = ZINC13017241
REMARK  5 active torsions:
REMARK  status: ('A' for Active; 'I' for Inactive)
REMARK    1  A    between atoms: C_5  and  C_7
REMARK    2  A    between atoms: C_7  and  O_8
REMARK    3  A    between atoms: O_8  and  C_9
REMARK    4  A    between atoms: C_12  and  N_28
REMARK    5  A    between atoms: C_14  and  C_15
REMARK                            x       y       z     vdW  Elec       q    Type
REMARK                         _______ _______ _______ _____ _____    ______ ____
ROOT
ATOM      1  C   UNL     1      -0.372  -4.252   0.553  0.00  0.00    +0.128 A 
ATOM      2  C   UNL     1       0.635  -5.181   0.760  0.00  0.00    +0.048 A 
ATOM      3  C   UNL     1       0.368  -6.532   0.637  0.00  0.00    +0.036 A 
ATOM      4  C   UNL     1      -0.905  -6.969   0.308  0.00  0.00    +0.127 A 
ATOM      5  C   UNL     1      -1.920  -6.060   0.099  0.00  0.00    +0.044 A 
ATOM      6  C   UNL     1      -1.666  -4.690   0.225  0.00  0.00    +0.020 A 
ENDROOT
BRANCH   6   7
ATOM      7  C   UNL     1      -2.743  -3.715   0.010  0.00  0.00    +0.032 C 
ATOM      8  C   UNL     1      -3.865  -4.081  -0.660  0.00  0.00    +0.079 C 
ATOM      9  C   UNL     1      -5.116  -3.329  -0.869  0.00  0.00    +0.265 C 
ATOM     10  O   UNL     1      -5.267  -2.209  -0.417  0.00  0.00    -0.269 OA
ATOM     11  N   UNL     1      -6.066  -3.925  -1.569  0.00  0.00    -0.192 N 
ATOM     12  C   UNL     1      -5.872  -5.199  -2.074  0.00  0.00    +0.167 C 
ATOM     13  N   UNL     1      -6.694  -5.926  -2.777  0.00  0.00    -0.279 NA
ATOM     14  S   UNL     1      -4.219  -5.600  -1.532  0.00  0.00    -0.049 S 
ATOM     15  C   UNL     1      -7.270  -3.267  -1.801  0.00  0.00    +0.173 A 
ATOM     16  N   UNL     1      -7.632  -2.064  -1.410  0.00  0.00    -0.233 NA
ATOM     17  C   UNL     1      -8.821  -1.577  -1.713  0.00  0.00    +0.120 A 
ATOM     18  C   UNL     1      -9.645  -2.371  -2.441  0.00  0.00    +0.068 A 
ATOM     19  S   UNL     1      -8.614  -3.813  -2.654  0.00  0.00    -0.060 S 
ATOM     20  H   UNL     1      -6.429  -6.812  -3.070  0.00  0.00    +0.189 HD
ENDBRANCH   6   7
BRANCH   4  21
ATOM     21  N   UNL     1      -1.177  -8.418   0.180  0.00  0.00    +0.056 N 
ATOM     22  O   UNL     1      -0.288  -9.218   0.363  0.00  0.00    -0.126 OA
ATOM     23  O   UNL     1      -2.286  -8.803  -0.107  0.00  0.00    -0.126 OA
ENDBRANCH   4  21
BRANCH   1  24
ATOM     24  O   UNL     1      -0.111  -2.926   0.673  0.00  0.00    -0.487 OA
BRANCH  24  25
ATOM     25  C   UNL     1       1.228  -2.556   1.009  0.00  0.00    +0.266 C 
BRANCH  25  30
ATOM     26  C   UNL     1       0.303   1.104   0.945  0.00  0.00    +0.000 A 
ATOM     27  C   UNL     1       1.510   1.700   1.259  0.00  0.00    +0.001 A 
ATOM     28  C   UNL     1       2.627   0.919   1.493  0.00  0.00    +0.020 A 
ATOM     29  C   UNL     1       2.536  -0.459   1.412  0.00  0.00    +0.047 A 
ATOM     30  C   UNL     1       1.328  -1.055   1.098  0.00  0.00    +0.008 A 
ATOM     31  C   UNL     1       0.212  -0.273   0.864  0.00  0.00    +0.008 A 
ATOM     32 CL   UNL     1       3.938  -1.440   1.705  0.00  0.00    -0.083 Cl
ENDBRANCH  25  30
ENDBRANCH  24  25
ENDBRANCH   1  24
TORSDOF 5
