REMARK  Name = ZINC13639610
REMARK  5 active torsions:
REMARK  status: ('A' for Active; 'I' for Inactive)
REMARK    1  A    between atoms: C_1  and  C_2
REMARK    2  A    between atoms: C_4  and  C_26
REMARK    3  A    between atoms: C_15  and  C_18
REMARK    4  A    between atoms: C_21  and  O_25
REMARK    5  A    between atoms: C_23  and  O_24
REMARK                            x       y       z     vdW  Elec       q    Type
REMARK                         _______ _______ _______ _____ _____    ______ ____
ROOT
ATOM      1  C   UNL     1       1.136   3.599   0.011  0.00  0.00    +0.044 C 
ATOM      2  C   UNL     1       1.165   2.092   0.002  0.00  0.00    -0.050 A 
ATOM      3  C   UNL     1       2.373   1.420  -0.013  0.00  0.00    +0.008 A 
ATOM      4  C   UNL     1       2.401   0.043  -0.014  0.00  0.00    -0.029 A 
ATOM      5  C   UNL     1       1.216  -0.696   0.001  0.00  0.00    +0.034 A 
ATOM      6  C   UNL     1       0.002  -0.004   0.002  0.00  0.00    -0.019 A 
ATOM      7  C   UNL     1      -0.017   1.375   0.010  0.00  0.00    +0.009 A 
ATOM      8  C   UNL     1      -1.245  -0.799  -0.027  0.00  0.00    +0.049 C 
ATOM      9  C   UNL     1      -2.516  -0.316   0.566  0.00  0.00    -0.023 C 
ATOM     10  C   UNL     1      -3.197  -1.364   1.016  0.00  0.00    -0.030 C 
ATOM     11  C   UNL     1      -2.395  -2.647   0.782  0.00  0.00    +0.033 C 
ATOM     12  C   UNL     1      -0.959  -2.110   0.769  0.00  0.00    +0.029 C 
ATOM     13  C   UNL     1       0.068  -2.848  -0.064  0.00  0.00    +0.108 C 
ATOM     14  N   UNL     1       1.323  -2.085   0.022  0.00  0.00    -0.336 N 
ATOM     15  C   UNL     1       3.726  -0.675  -0.030  0.00  0.00    +0.045 C 
ATOM     16  H   UNL     1       1.990  -2.407  -0.663  0.00  0.00    +0.147 HD
ENDROOT
BRANCH  13  17
ATOM     17  C   UNL     1       0.272  -4.237   0.483  0.00  0.00    +0.015 A 
ATOM     18  C   UNL     1       1.273  -4.475   1.406  0.00  0.00    +0.012 A 
ATOM     19  C   UNL     1       1.462  -5.748   1.910  0.00  0.00    +0.046 A 
ATOM     20  C   UNL     1       0.647  -6.790   1.490  0.00  0.00    +0.120 A 
ATOM     21  C   UNL     1      -0.358  -6.553   0.565  0.00  0.00    +0.091 A 
ATOM     22  C   UNL     1      -0.549  -5.274   0.065  0.00  0.00    +0.125 A 
BRANCH  22  23
ATOM     23  O   UNL     1      -1.537  -5.038  -0.839  0.00  0.00    -0.506 OA
ATOM     24  H   UNL     1      -1.262  -5.147  -1.759  0.00  0.00    +0.292 HD
ENDBRANCH  22  23
BRANCH  20  25
ATOM     25  O   UNL     1       0.834  -8.041   1.986  0.00  0.00    -0.507 OA
ATOM     26  H   UNL     1       0.325  -8.227   2.787  0.00  0.00    +0.292 HD
ENDBRANCH  20  25
ENDBRANCH  13  17
TORSDOF 3
