REMARK  Name = ZINC39980066
REMARK  10 active torsions:
REMARK  status: ('A' for Active; 'I' for Inactive)
REMARK    1  A    between atoms: C_1  and  C_2
REMARK    2  A    between atoms: C_2  and  C_3
REMARK    3  A    between atoms: C_2  and  C_4
REMARK    4  A    between atoms: C_7  and  N_10
REMARK    5  A    between atoms: C_11  and  S_16
REMARK    6  A    between atoms: S_16  and  C_17
REMARK    7  A    between atoms: C_17  and  C_18
REMARK    8  A    between atoms: N_20  and  C_21
REMARK    9  A    between atoms: N_20  and  C_22
REMARK   10  A    between atoms: C_22  and  C_23
REMARK                            x       y       z     vdW  Elec       q    Type
REMARK                         _______ _______ _______ _____ _____    ______ ____
ROOT
ATOM      1  C   UNL     1       2.793  -5.076   4.179  0.00  0.00    +0.168 C 
ENDROOT
BRANCH   1   2
ATOM      2  C   UNL     1       2.696  -6.419   3.502  0.00  0.00    +0.226 C 
ATOM      3  O   UNL     1       1.610  -6.912   3.285  0.00  0.00    -0.275 OA
ATOM      4  N   UNL     1       3.818  -7.072   3.138  0.00  0.00    -0.300 N 
ATOM      5  C   UNL     1       5.124  -6.427   3.292  0.00  0.00    +0.132 C 
BRANCH   4   6
ATOM      6  C   UNL     1       3.730  -8.428   2.589  0.00  0.00    +0.143 C 
BRANCH   6   7
ATOM      7  C   UNL     1       3.450  -8.353   1.110  0.00  0.00    -0.016 A 
ATOM      8  C   UNL     1       2.179  -8.407   0.641  0.00  0.00    +0.076 A 
ATOM      9  C   UNL     1       1.929  -8.337  -0.746  0.00  0.00    +0.249 A 
ATOM     10  O   UNL     1       0.778  -8.387  -1.146  0.00  0.00    -0.268 OA
ATOM     11  N   UNL     1       2.928  -8.215  -1.638  0.00  0.00    -0.322 N 
ATOM     12  H   UNL     1       2.720  -8.169  -2.584  0.00  0.00    +0.169 HD
ATOM     13  C   UNL     1       4.242  -8.154  -1.226  0.00  0.00    +0.049 A 
ATOM     14  C   UNL     1       4.545  -8.214   0.147  0.00  0.00    +0.003 A 
ATOM     15  C   UNL     1       5.876  -8.147   0.570  0.00  0.00    +0.010 A 
ATOM     16  C   UNL     1       6.875  -8.018  -0.353  0.00  0.00    +0.001 A 
ATOM     17  C   UNL     1       6.580  -7.952  -1.708  0.00  0.00    +0.002 A 
ATOM     18  C   UNL     1       5.276  -8.028  -2.148  0.00  0.00    +0.026 A 
ENDBRANCH   6   7
ENDBRANCH   4   6
ENDBRANCH   1   2
BRANCH   1  19
ATOM     19  S   UNL     1       1.126  -4.459   4.540  0.00  0.00    -0.107 S 
BRANCH  19  21
ATOM     20  N   UNL     1       2.146  -1.947   4.441  0.00  0.00    -0.174 N 
ATOM     21  C   UNL     1       1.414  -2.858   5.342  0.00  0.00    +0.260 C 
ATOM     22  N   UNL     1       2.336  -3.000   6.485  0.00  0.00    -0.218 N 
ATOM     23  N   UNL     1       3.452  -2.215   6.178  0.00  0.00    -0.063 NA
ATOM     24  N   UNL     1       3.354  -1.659   5.087  0.00  0.00    -0.056 NA
ATOM     25  H   UNL     1       2.196  -3.530   7.286  0.00  0.00    +0.173 HD
BRANCH  20  29
ATOM     26  C   UNL     1       0.887  -0.541   0.731  0.00  0.00    -0.045 A 
ATOM     27  C   UNL     1       2.117  -0.158   1.232  0.00  0.00    +0.006 A 
ATOM     28  C   UNL     1       2.538  -0.622   2.463  0.00  0.00    +0.025 A 
ATOM     29  C   UNL     1       1.724  -1.476   3.197  0.00  0.00    +0.056 A 
ATOM     30  C   UNL     1       0.488  -1.859   2.690  0.00  0.00    +0.025 A 
ATOM     31  C   UNL     1       0.072  -1.387   1.461  0.00  0.00    +0.006 A 
BRANCH  26  33
ATOM     32  C   UNL     1       0.365   1.496  -0.583  0.00  0.00    +0.012 C 
ATOM     33  C   UNL     1       0.431  -0.032  -0.612  0.00  0.00    +0.013 C 
ATOM     34  C   UNL     1       1.421  -0.479  -1.690  0.00  0.00    +0.012 C 
ENDBRANCH  26  33
ENDBRANCH  20  29
ENDBRANCH  19  21
ENDBRANCH   1  19
TORSDOF 7
