REMARK  Name = ZINC06161749
REMARK  5 active torsions:
REMARK  status: ('A' for Active; 'I' for Inactive)
REMARK    1  A    between atoms: C_10  and  S_11
REMARK    2  A    between atoms: S_11  and  N_14
REMARK    3  A    between atoms: C_17  and  C_20
REMARK    4  A    between atoms: N_29  and  C_30
REMARK    5  A    between atoms: C_30  and  C_31
REMARK                            x       y       z     vdW  Elec       q    Type
REMARK                         _______ _______ _______ _____ _____    ______ ____
ROOT
ATOM      1  N   UNL     1       0.205   8.176   0.180  0.00  0.00    -0.177 NA
ATOM      2  C   UNL     1       0.647   7.434  -1.008  0.00  0.00    +0.110 C 
ATOM      3  C   UNL     1       0.273   5.959  -0.837  0.00  0.00    +0.028 C 
ATOM      4  C   UNL     1       0.855   5.439   0.480  0.00  0.00    +0.058 C 
ATOM      5  C   UNL     1       0.260   6.228   1.649  0.00  0.00    +0.028 C 
ATOM      6  C   UNL     1       0.633   7.706   1.505  0.00  0.00    +0.110 C 
ENDROOT
BRANCH   4   7
ATOM      7  C   UNL     1       0.519   3.979   0.636  0.00  0.00    +0.116 A 
ATOM      8  N   UNL     1       1.501   3.110   0.736  0.00  0.00    -0.326 N 
ATOM      9  C   UNL     1       1.245   1.812   0.875  0.00  0.00    +0.164 A 
ATOM     10  C   UNL     1      -0.092   1.378   0.915  0.00  0.00    +0.195 A 
ATOM     11  C   UNL     1      -1.105   2.349   0.809  0.00  0.00    +0.303 A 
ATOM     12  N   UNL     1      -0.752   3.619   0.668  0.00  0.00    -0.194 NA
ATOM     13  O   UNL     1      -2.411   1.993   0.846  0.00  0.00    -0.263 OA
ATOM     14  N   UNL     1      -0.086   0.041   1.054  0.00  0.00    -0.122 NA
ATOM     15  N   UNL     1       1.125  -0.394   1.105  0.00  0.00    -0.063 NA
ATOM     16  N   UNL     1       2.012   0.687   0.996  0.00  0.00    -0.224 N 
ATOM     17  H   UNL     1       2.449   3.428   0.707  0.00  0.00    +0.169 HD
BRANCH  16  18
ATOM     18  C   UNL     1       3.476   0.622   1.009  0.00  0.00    +0.182 C 
BRANCH  18  19
ATOM     19  C   UNL     1       3.983   0.452  -0.400  0.00  0.00    -0.025 A 
ATOM     20  C   UNL     1       4.270   1.564  -1.170  0.00  0.00    +0.005 A 
ATOM     21  C   UNL     1       4.736   1.409  -2.462  0.00  0.00    +0.002 A 
ATOM     22  C   UNL     1       4.915   0.142  -2.985  0.00  0.00    +0.020 A 
ATOM     23  C   UNL     1       4.629  -0.971  -2.215  0.00  0.00    +0.041 A 
ATOM     24  C   UNL     1       4.168  -0.815  -0.919  0.00  0.00    +0.025 A 
ATOM     25 CL   UNL     1       4.854  -2.562  -2.871  0.00  0.00    -0.084 Cl
ENDBRANCH  18  19
ENDBRANCH  16  18
ENDBRANCH   4   7
BRANCH   1  26
ATOM     26  S   UNL     1      -0.758   9.515   0.030  0.00  0.00    +0.061 S 
ATOM     27  O   UNL     1      -0.667  10.220   1.260  0.00  0.00    -0.153 OA
ATOM     28  O   UNL     1      -0.431  10.112  -1.217  0.00  0.00    -0.153 OA
BRANCH  26  38
ATOM     29  C   UNL     1      -5.465  11.508  -1.384  0.00  0.00    +0.001 A 
ATOM     30  C   UNL     1      -4.155  11.975  -1.285  0.00  0.00    +0.001 A 
ATOM     31  C   UNL     1      -3.150  11.158  -0.869  0.00  0.00    +0.010 A 
ATOM     32  C   UNL     1      -3.433   9.823  -0.530  0.00  0.00    +0.008 A 
ATOM     33  C   UNL     1      -4.765   9.348  -0.635  0.00  0.00    -0.016 A 
ATOM     34  C   UNL     1      -5.776  10.222  -1.069  0.00  0.00    +0.008 A 
ATOM     35  C   UNL     1      -5.048   8.013  -0.301  0.00  0.00    +0.008 A 
ATOM     36  C   UNL     1      -4.042   7.195   0.114  0.00  0.00    +0.003 A 
ATOM     37  C   UNL     1      -2.733   7.661   0.213  0.00  0.00    +0.029 A 
ATOM     38  C   UNL     1      -2.421   8.948  -0.103  0.00  0.00    +0.113 A 
ENDBRANCH  26  38
ENDBRANCH   1  26
TORSDOF 5
