REMARK  Name = ZINC22608224
REMARK  4 active torsions:
REMARK  status: ('A' for Active; 'I' for Inactive)
REMARK    1  A    between atoms: C_1  and  C_2
REMARK    2  A    between atoms: C_7  and  C_19
REMARK    3  A    between atoms: C_12  and  C_14
REMARK    4  A    between atoms: C_23  and  N_25
REMARK                            x       y       z     vdW  Elec       q    Type
REMARK                         _______ _______ _______ _____ _____    ______ ____
ROOT
ATOM      1  C   UNL     1      -1.246  -7.709  -2.384  0.00  0.00    +0.008 C 
ATOM      2  C   UNL     1      -1.209  -6.490  -1.459  0.00  0.00    -0.001 C 
ATOM      3  C   UNL     1      -0.079  -5.553  -1.887  0.00  0.00    +0.055 C 
ATOM      4  C   UNL     1      -0.016  -4.371  -0.948  0.00  0.00    +0.020 C 
ATOM      5  C   UNL     1      -0.362  -4.499   0.351  0.00  0.00    +0.041 C 
ATOM      6  C   UNL     1      -0.286  -3.341   1.321  0.00  0.00    +0.175 C 
ATOM      7  N   UNL     1      -0.123  -2.089   0.594  0.00  0.00    -0.220 N 
ATOM      8  C   UNL     1       0.211  -2.027  -0.719  0.00  0.00    +0.219 A 
ATOM      9  N   UNL     1       0.279  -0.769  -1.059  0.00  0.00    -0.189 NA
ATOM     10  C   UNL     1       0.002  -0.004   0.002  0.00  0.00    +0.256 A 
ATOM     11  N   UNL     1      -0.254  -0.772   1.032  0.00  0.00    -0.143 NA
ATOM     12  N   UNL     1       0.411  -3.174  -1.470  0.00  0.00    -0.287 N 
ATOM     13  C   UNL     1      -0.816  -5.730   0.859  0.00  0.00    +0.163 C 
ATOM     14  O   UNL     1      -1.112  -5.814   2.034  0.00  0.00    -0.292 OA
ATOM     15  C   UNL     1      -0.942  -6.943  -0.020  0.00  0.00    +0.083 C 
ATOM     16  H   UNL     1       0.896  -3.146  -2.457  0.00  0.00    +0.155 HD
ENDROOT
BRANCH   6  17
ATOM     17  C   UNL     1       0.888  -3.539   2.245  0.00  0.00    -0.016 A 
ATOM     18  C   UNL     1       2.168  -3.616   1.729  0.00  0.00    +0.006 A 
ATOM     19  C   UNL     1       3.245  -3.798   2.576  0.00  0.00    +0.003 A 
ATOM     20  C   UNL     1       3.042  -3.903   3.939  0.00  0.00    +0.033 A 
ATOM     21  C   UNL     1       1.762  -3.826   4.455  0.00  0.00    +0.127 A 
ATOM     22  C   UNL     1       0.686  -3.639   3.608  0.00  0.00    +0.038 A 
BRANCH  21  23
ATOM     23  N   UNL     1       1.545  -3.939   5.915  0.00  0.00    +0.056 N 
ATOM     24  O   UNL     1       2.494  -4.100   6.661  0.00  0.00    -0.126 OA
ATOM     25  O   UNL     1       0.417  -3.872   6.370  0.00  0.00    -0.126 OA
ENDBRANCH  21  23
ENDBRANCH   6  17
BRANCH  10  26
ATOM     26  C   UNL     1      -0.018   1.503   0.010  0.00  0.00    +0.454 C 
ATOM     27  F   UNL     1       1.294   1.987   0.000  0.00  0.00    -0.163 F 
ATOM     28  F   UNL     1      -0.695   1.966  -1.123  0.00  0.00    -0.163 F 
ATOM     29  F   UNL     1      -0.673   1.954   1.161  0.00  0.00    -0.163 F 
ENDBRANCH  10  26
TORSDOF 3
