REMARK  Name = ZINC64502470
REMARK  5 active torsions:
REMARK  status: ('A' for Active; 'I' for Inactive)
REMARK    1  A    between atoms: C_1  and  C_2
REMARK    2  A    between atoms: C_5  and  C_8
REMARK    3  A    between atoms: C_16  and  S_20
REMARK    4  A    between atoms: S_20  and  C_21
REMARK    5  A    between atoms: C_21  and  C_22
REMARK                            x       y       z     vdW  Elec       q    Type
REMARK                         _______ _______ _______ _____ _____    ______ ____
ROOT
ATOM      1  C   UNL     1       0.216  -4.025  -0.451  0.00  0.00    +0.047 C 
ATOM      2  C   UNL     1       0.091  -4.705   0.713  0.00  0.00    +0.027 C 
ATOM      3  C   UNL     1       0.060  -6.150   0.297  0.00  0.00    +0.193 C 
ATOM      4  C   UNL     1      -0.915  -7.032   1.016  0.00  0.00    +0.276 C 
ATOM      5  O   UNL     1      -1.222  -6.838   2.168  0.00  0.00    -0.270 OA
ATOM      6  N   UNL     1      -1.435  -8.062   0.299  0.00  0.00    -0.081 NA
ATOM      7  N   UNL     1      -1.233  -8.227  -0.906  0.00  0.00    -0.163 NA
ATOM      8  C   UNL     1      -0.432  -7.304  -1.729  0.00  0.00    +0.272 C 
ATOM      9  N   UNL     1      -0.469  -6.005  -1.098  0.00  0.00    -0.178 NA
ATOM     10  N   UNL     1       0.240  -4.941  -1.530  0.00  0.00    -0.274 N 
ATOM     11  H   UNL     1       0.672  -4.831  -2.391  0.00  0.00    +0.167 HD
ENDROOT
BRANCH   1  16
ATOM     12  C   UNL     1       0.568   1.700  -0.940  0.00  0.00    +0.044 C 
ATOM     13  C   UNL     1       0.475   0.202  -0.812  0.00  0.00    -0.050 A 
ATOM     14  C   UNL     1       0.511  -0.590  -1.946  0.00  0.00    +0.004 A 
ATOM     15  C   UNL     1       0.427  -1.963  -1.835  0.00  0.00    +0.010 A 
ATOM     16  C   UNL     1       0.306  -2.552  -0.577  0.00  0.00    -0.003 A 
ATOM     17  C   UNL     1       0.271  -1.749   0.562  0.00  0.00    +0.010 A 
ATOM     18  C   UNL     1       0.361  -0.377   0.439  0.00  0.00    +0.004 A 
ENDBRANCH   1  16
BRANCH   8  19
ATOM     19  S   UNL     1       1.286  -7.879  -1.811  0.00  0.00    -0.110 S 
BRANCH  19  20
ATOM     20  C   UNL     1       1.225  -9.282  -2.960  0.00  0.00    +0.128 C 
BRANCH  20  21
ATOM     21  C   UNL     1       2.615  -9.826  -3.163  0.00  0.00    +0.059 A 
ATOM     22  C   UNL     1       2.987 -11.014  -2.564  0.00  0.00    +0.094 A 
ATOM     23  C   UNL     1       4.284 -11.498  -2.769  0.00  0.00    +0.259 A 
ATOM     24  O   UNL     1       4.643 -12.546  -2.253  0.00  0.00    -0.267 OA
ATOM     25  N   UNL     1       5.132 -10.790  -3.544  0.00  0.00    -0.268 N 
ATOM     26  C   UNL     1       6.397 -11.248  -3.753  0.00  0.00    +0.096 A 
ATOM     27  C   UNL     1       7.264 -10.557  -4.526  0.00  0.00    +0.018 A 
ATOM     28  C   UNL     1       6.868  -9.352  -5.124  0.00  0.00    +0.005 A 
ATOM     29  C   UNL     1       5.604  -8.885  -4.922  0.00  0.00    +0.047 A 
ATOM     30  C   UNL     1       4.716  -9.620  -4.115  0.00  0.00    +0.140 A 
ATOM     31  N   UNL     1       3.478  -9.167  -3.921  0.00  0.00    -0.233 NA
ENDBRANCH  20  21
ENDBRANCH  19  20
ENDBRANCH   8  19
TORSDOF 4
