REMARK  Name = ZINC23882931
REMARK  4 active torsions:
REMARK  status: ('A' for Active; 'I' for Inactive)
REMARK    1  A    between atoms: C_1  and  C_2
REMARK    2  A    between atoms: C_10  and  C_24
REMARK    3  A    between atoms: N_11  and  C_18
REMARK    4  A    between atoms: C_12  and  C_17
REMARK                            x       y       z     vdW  Elec       q    Type
REMARK                         _______ _______ _______ _____ _____    ______ ____
ROOT
ATOM      1  C   UNL     1       5.775   3.486  -5.662  0.00  0.00    +0.044 C 
ATOM      2  C   UNL     1       5.323   4.699  -4.891  0.00  0.00    -0.050 A 
ATOM      3  C   UNL     1       4.857   5.801  -5.578  0.00  0.00    +0.005 A 
ATOM      4  C   UNL     1       4.429   6.946  -4.924  0.00  0.00    +0.024 A 
ATOM      5  C   UNL     1       4.487   6.945  -3.530  0.00  0.00    +0.039 A 
ATOM      6  C   UNL     1       4.962   5.819  -2.844  0.00  0.00    +0.007 A 
ATOM      7  C   UNL     1       5.386   4.684  -3.502  0.00  0.00    +0.011 A 
ATOM      8  C   UNL     1       4.889   6.155  -1.390  0.00  0.00    +0.151 C 
ATOM      9  C   UNL     1       3.977   5.214  -0.654  0.00  0.00    +0.010 A 
ATOM     10  C   UNL     1       2.791   4.708  -1.010  0.00  0.00    +0.027 A 
ATOM     11  N   UNL     1       2.358   3.890  -0.001  0.00  0.00    -0.317 N 
ATOM     12  C   UNL     1       3.291   3.895   1.002  0.00  0.00    +0.024 A 
ATOM     13  C   UNL     1       4.295   4.694   0.628  0.00  0.00    -0.019 A 
ATOM     14  C   UNL     1       5.566   5.055   1.355  0.00  0.00    +0.052 C 
ATOM     15  C   UNL     1       6.148   6.309   0.687  0.00  0.00    +0.087 C 
ATOM     16  N   UNL     1       6.218   6.121  -0.768  0.00  0.00    -0.295 NA
ATOM     17  C   UNL     1       3.203   3.130   2.298  0.00  0.00    +0.064 C 
ATOM     18  C   UNL     1       2.060   4.989  -2.297  0.00  0.00    +0.064 C 
ATOM     19  C   UNL     1       4.331   7.561  -1.354  0.00  0.00    +0.247 C 
ATOM     20  O   UNL     1       4.108   8.224  -0.363  0.00  0.00    -0.273 OA
ATOM     21  N   UNL     1       4.128   7.937  -2.634  0.00  0.00    -0.283 N 
ATOM     22  H   UNL     1       6.691   5.147  -0.967  0.00  0.00    +0.124 HD
ATOM     23  H   UNL     1       3.732   8.894  -3.004  0.00  0.00    +0.155 HD
ENDROOT
BRANCH  11  24
ATOM     24  C   UNL     1       1.155   3.170   0.008  0.00  0.00    +0.047 A 
ATOM     25  C   UNL     1       1.175   1.782   0.000  0.00  0.00    +0.026 A 
ATOM     26  C   UNL     1      -0.013   1.076   0.008  0.00  0.00    +0.002 A 
ATOM     27  C   UNL     1      -1.220   1.750   0.017  0.00  0.00    +0.000 A 
ATOM     28  C   UNL     1      -1.242   3.133   0.030  0.00  0.00    +0.002 A 
ATOM     29  C   UNL     1      -0.059   3.844   0.022  0.00  0.00    +0.026 A 
ENDBRANCH  11  24
TORSDOF 1
