REMARK  Name = ZINC22014738
REMARK  10 active torsions:
REMARK  status: ('A' for Active; 'I' for Inactive)
REMARK    1  A    between atoms: C_1  and  C_2
REMARK    2  A    between atoms: C_3  and  C_30
REMARK    3  A    between atoms: N_4  and  C_24
REMARK    4  A    between atoms: C_5  and  N_9
REMARK    5  A    between atoms: C_6  and  C_7
REMARK    6  A    between atoms: C_10  and  C_12
REMARK    7  A    between atoms: C_12  and  N_13
REMARK    8  A    between atoms: C_17  and  C_19
REMARK    9  A    between atoms: N_21  and  C_22
REMARK   10  A    between atoms: N_21  and  C_23
REMARK                            x       y       z     vdW  Elec       q    Type
REMARK                         _______ _______ _______ _____ _____    ______ ____
ROOT
ATOM      1  N   UNL     1       0.251   2.331   0.846  0.00  0.00    -0.272 N 
ATOM      2  C   UNL     1       0.415   3.469   1.549  0.00  0.00    +0.202 C 
ATOM      3  O   UNL     1      -0.522   3.951   2.149  0.00  0.00    -0.278 OA
ATOM      4  H   UNL     1       1.119   1.847   0.374  0.00  0.00    +0.156 HD
ENDROOT
BRANCH   1   9
ATOM      5  C   UNL     1      -4.748   1.692   0.480  0.00  0.00    +0.047 C 
ATOM      6  C   UNL     1      -3.263   1.448   0.548  0.00  0.00    -0.011 A 
ATOM      7  C   UNL     1      -2.641   0.260   0.473  0.00  0.00    +0.022 A 
ATOM      8  N   UNL     1      -1.288   0.451   0.568  0.00  0.00    -0.329 N 
ATOM      9  C   UNL     1      -1.011   1.772   0.716  0.00  0.00    +0.123 A 
ATOM     10  C   UNL     1      -2.215   2.463   0.708  0.00  0.00    +0.095 A 
ATOM     11  C   UNL     1      -3.324  -1.073   0.305  0.00  0.00    +0.064 C 
BRANCH   8  12
ATOM     12  C   UNL     1      -0.286  -0.617   0.520  0.00  0.00    +0.089 C 
ATOM     13  C   UNL     1       0.586  -0.553   1.776  0.00  0.00    +0.025 C 
ATOM     14  C   UNL     1       1.633  -1.668   1.726  0.00  0.00    +0.002 C 
ATOM     15  C   UNL     1       2.511  -1.488   0.486  0.00  0.00    +0.000 C 
ATOM     16  C   UNL     1       1.639  -1.552  -0.769  0.00  0.00    +0.002 C 
ATOM     17  C   UNL     1       0.592  -0.437  -0.720  0.00  0.00    +0.025 C 
ENDBRANCH   8  12
BRANCH  10  18
ATOM     18  C   UNL     1      -2.396   3.878   0.832  0.00  0.00    +0.103 C 
ATOM     19  N   UNL     1      -2.541   5.001   0.931  0.00  0.00    -0.191 NA
ENDBRANCH  10  18
ENDBRANCH   1   9
BRANCH   2  20
ATOM     20  C   UNL     1       1.764   4.139   1.595  0.00  0.00    +0.020 C 
BRANCH  20  21
ATOM     21  N   UNL     1       1.652   5.416   2.313  0.00  0.00    +0.393 N 
ATOM     22  C   UNL     1       0.924   6.417   1.505  0.00  0.00    -0.077 C 
ATOM     23  C   UNL     1       1.580   7.772   1.869  0.00  0.00    -0.020 C 
ATOM     24  C   UNL     1       3.070   7.368   2.023  0.00  0.00    -0.008 C 
ATOM     25  C   UNL     1       2.985   5.956   2.640  0.00  0.00    +0.020 C 
ATOM     26  H   UNL     1       1.099   5.211   3.242  0.00  0.00    -0.080 HD
BRANCH  25  27
ATOM     27  C   UNL     1       4.055   5.072   2.055  0.00  0.00    +0.202 C 
ATOM     28  O   UNL     1       4.053   4.823   0.868  0.00  0.00    -0.277 OA
ATOM     29  N   UNL     1       5.013   4.556   2.850  0.00  0.00    -0.309 N 
ATOM     30  C   UNL     1       6.114   3.786   2.265  0.00  0.00    +0.131 C 
ATOM     31  C   UNL     1       4.955   4.767   4.298  0.00  0.00    +0.131 C 
ENDBRANCH  25  27
ENDBRANCH  20  21
ENDBRANCH   2  20
TORSDOF 6
