REMARK  Name = ZINC38597070
REMARK  10 active torsions:
REMARK  status: ('A' for Active; 'I' for Inactive)
REMARK    1  A    between atoms: C_1  and  C_2
REMARK    2  A    between atoms: N_5  and  C_17
REMARK    3  A    between atoms: N_8  and  C_9
REMARK    4  A    between atoms: C_13  and  O_15
REMARK    5  A    between atoms: O_15  and  C_16
REMARK    6  A    between atoms: C_17  and  C_18
REMARK    7  A    between atoms: N_20  and  C_21
REMARK    8  A    between atoms: C_29  and  C_31
REMARK    9  A    between atoms: C_31  and  O_33
REMARK   10  A    between atoms: O_33  and  C_34
REMARK                            x       y       z     vdW  Elec       q    Type
REMARK                         _______ _______ _______ _____ _____    ______ ____
ROOT
ATOM      1  C   UNL     1      -2.370  -5.289   0.501  0.00  0.00    +0.200 C 
ATOM      2  O   UNL     1      -1.500  -4.924  -0.261  0.00  0.00    -0.278 OA
ATOM      3  N   UNL     1      -2.869  -6.537   0.405  0.00  0.00    -0.288 N 
ATOM      4  H   UNL     1      -3.613  -6.806   0.966  0.00  0.00    +0.155 HD
ENDROOT
BRANCH   3   5
ATOM      5  C   UNL     1      -2.329  -7.421  -0.480  0.00  0.00    +0.053 C 
ATOM      6  C   UNL     1      -2.781  -8.697  -0.767  0.00  0.00    +0.019 A 
ATOM      7  C   UNL     1      -3.872  -9.457  -0.279  0.00  0.00    +0.031 A 
ATOM      8  C   UNL     1      -4.082 -10.711  -0.750  0.00  0.00    +0.042 A 
ATOM      9  C   UNL     1      -3.244 -11.282  -1.714  0.00  0.00    +0.022 A 
ATOM     10  C   UNL     1      -2.183 -10.614  -2.225  0.00  0.00    +0.027 A 
ATOM     11  C   UNL     1      -1.898  -9.296  -1.783  0.00  0.00    +0.045 A 
ATOM     12  N   UNL     1      -0.944  -8.450  -2.118  0.00  0.00    -0.367 N 
ATOM     13  C   UNL     1      -1.114  -7.209  -1.356  0.00  0.00    +0.234 C 
ATOM     14 CL   UNL     1      -5.423 -11.631  -0.142  0.00  0.00    -0.084 Cl
ATOM     15  H   UNL     1      -0.243  -8.621  -2.767  0.00  0.00    +0.161 HD
BRANCH  13  16
ATOM     16  C   UNL     1       0.103  -6.956  -0.503  0.00  0.00    +0.335 C 
ATOM     17  O   UNL     1       0.681  -7.882   0.014  0.00  0.00    -0.248 OA
BRANCH  16  18
ATOM     18  O   UNL     1       0.543  -5.702  -0.319  0.00  0.00    -0.466 OA
ATOM     19  C   UNL     1       1.702  -5.535   0.501  0.00  0.00    +0.280 C 
ENDBRANCH  16  18
ENDBRANCH  13  16
ENDBRANCH   3   5
BRANCH   1  20
ATOM     20  C   UNL     1      -2.893  -4.347   1.555  0.00  0.00    +0.019 C 
BRANCH  20  24
ATOM     21  C   UNL     1      -2.642   0.230   3.286  0.00  0.00    +0.026 C 
ATOM     22  C   UNL     1      -2.132  -0.732   2.211  0.00  0.00    +0.054 C 
ATOM     23  C   UNL     1      -2.784  -2.106   2.397  0.00  0.00    -0.056 C 
ATOM     24  N   UNL     1      -2.192  -3.060   1.451  0.00  0.00    +0.388 N 
ATOM     25  C   UNL     1      -0.770  -3.252   1.759  0.00  0.00    -0.059 C 
ATOM     26  C   UNL     1      -0.018  -1.935   1.541  0.00  0.00    +0.087 C 
ATOM     27  N   UNL     1      -0.674  -0.882   2.333  0.00  0.00    -0.331 N 
ATOM     28  H   UNL     1      -2.287  -2.703   0.512  0.00  0.00    -0.081 HD
BRANCH  27  29
ATOM     29  C   UNL     1       0.065  -0.053   3.179  0.00  0.00    +0.033 A 
ATOM     30  C   UNL     1       0.291  -0.429   4.498  0.00  0.00    +0.023 A 
ATOM     31  C   UNL     1       1.022   0.392   5.335  0.00  0.00    +0.005 A 
ATOM     32  C   UNL     1       1.531   1.587   4.864  0.00  0.00    +0.046 A 
ATOM     33  C   UNL     1       1.310   1.967   3.548  0.00  0.00    +0.122 A 
ATOM     34  C   UNL     1       0.581   1.144   2.703  0.00  0.00    +0.068 A 
BRANCH  33  35
ATOM     35  O   UNL     1       1.812   3.142   3.086  0.00  0.00    -0.495 OA
ATOM     36  C   UNL     1       2.558   3.937   4.010  0.00  0.00    +0.277 C 
ENDBRANCH  33  35
ENDBRANCH  27  29
ENDBRANCH  20  24
ENDBRANCH   1  20
TORSDOF 7
