REMARK  Name = ZINC04028277
REMARK  9 active torsions:
REMARK  status: ('A' for Active; 'I' for Inactive)
REMARK    1  A    between atoms: C_1  and  N_52
REMARK    2  A    between atoms: C_8  and  O_24
REMARK    3  A    between atoms: C_10  and  C_12
REMARK    4  A    between atoms: C_12  and  C_13
REMARK    5  A    between atoms: C_13  and  C_16
REMARK    6  A    between atoms: N_14  and  O_15
REMARK    7  A    between atoms: C_19  and  O_22
REMARK    8  A    between atoms: O_22  and  C_23
REMARK    9  A    between atoms: O_24  and  C_25
REMARK                            x       y       z     vdW  Elec       q    Type
REMARK                         _______ _______ _______ _____ _____    ______ ____
ROOT
ATOM      1  C   UNL     1       4.846   3.885   0.296  0.00  0.00    -0.095 C 
ATOM      2  C   UNL     1       3.671   1.879  -0.387  0.00  0.00    -0.074 C 
ATOM      3  C   UNL     1       2.531   0.957   0.045  0.00  0.00    +0.017 C 
ATOM      4  C   UNL     1       1.226   1.713   0.036  0.00  0.00    -0.040 A 
ATOM      5  C   UNL     1       0.044   0.988   0.053  0.00  0.00    +0.053 A 
ATOM      6  C   UNL     1      -1.179   1.637   0.051  0.00  0.00    +0.170 A 
ATOM      7  C   UNL     1      -1.221   3.027   0.042  0.00  0.00    +0.208 A 
ATOM      8  C   UNL     1      -0.036   3.750   0.022  0.00  0.00    +0.167 A 
ATOM      9  C   UNL     1       1.189   3.091   0.018  0.00  0.00    -0.012 A 
ATOM     10  C   UNL     1       2.447   3.920  -0.008  0.00  0.00    -0.028 C 
ATOM     11  O   UNL     1      -2.527   3.425   0.050  0.00  0.00    -0.449 OA
ATOM     12  C   UNL     1      -3.277   2.274   0.481  0.00  0.00    +0.467 C 
ATOM     13  O   UNL     1      -2.458   1.161   0.073  0.00  0.00    -0.452 OA
ATOM     14  N   UNL     1       3.594   3.107   0.429  0.00  0.00    +0.383 N 
ATOM     15  H   UNL     1       3.465   2.847   1.414  0.00  0.00    -0.081 HD
ENDROOT
BRANCH   8  16
ATOM     16  O   UNL     1      -0.074   5.109   0.006  0.00  0.00    -0.491 OA
ATOM     17  C   UNL     1      -0.104   5.742  -1.274  0.00  0.00    +0.277 C 
ENDBRANCH   8  16
BRANCH  10  18
ATOM     18  C   UNL     1       2.289   5.107   0.943  0.00  0.00    +0.049 C 
BRANCH  18  19
ATOM     19  C   UNL     1       1.895   4.608   2.310  0.00  0.00    +0.086 C 
ATOM     20  N   UNL     1       1.848   3.337   2.545  0.00  0.00    -0.092 NA
BRANCH  19  21
ATOM     21  C   UNL     1       1.564   5.569   3.379  0.00  0.00    -0.000 A 
ATOM     22  C   UNL     1       0.563   5.267   4.306  0.00  0.00    +0.013 A 
ATOM     23  C   UNL     1       0.259   6.166   5.305  0.00  0.00    +0.046 A 
ATOM     24  C   UNL     1       0.940   7.374   5.386  0.00  0.00    +0.120 A 
ATOM     25  C   UNL     1       1.932   7.681   4.463  0.00  0.00    +0.046 A 
ATOM     26  C   UNL     1       2.245   6.786   3.463  0.00  0.00    +0.013 A 
BRANCH  24  27
ATOM     27  O   UNL     1       0.634   8.259   6.370  0.00  0.00    -0.495 OA
ATOM     28  C   UNL     1      -0.397   7.881   7.285  0.00  0.00    +0.277 C 
ENDBRANCH  24  27
ENDBRANCH  19  21
BRANCH  20  29
ATOM     29  O   UNL     1       1.392   2.865   3.800  0.00  0.00    -0.409 OA
ATOM     30  H   UNL     1       1.392   1.902   3.882  0.00  0.00    +0.328 HD
ENDBRANCH  20  29
ENDBRANCH  18  19
ENDBRANCH  10  18
TORSDOF 6
