REMARK  Name = ZINC63135155
REMARK  13 active torsions:
REMARK  status: ('A' for Active; 'I' for Inactive)
REMARK    1  A    between atoms: C_1  and  C_2
REMARK    2  A    between atoms: C_2  and  C_3
REMARK    3  A    between atoms: C_3  and  C_4
REMARK    4  A    between atoms: C_3  and  N_6
REMARK    5  A    between atoms: C_4  and  C_5
REMARK    6  A    between atoms: C_7  and  C_9
REMARK    7  A    between atoms: C_9  and  O_10
REMARK    8  A    between atoms: O_10  and  C_11
REMARK    9  A    between atoms: C_11  and  C_13
REMARK   10  A    between atoms: C_13  and  C_15
REMARK   11  A    between atoms: C_13  and  N_25
REMARK   12  A    between atoms: C_15  and  C_16
REMARK   13  A    between atoms: C_26  and  C_28
REMARK                            x       y       z     vdW  Elec       q    Type
REMARK                         _______ _______ _______ _____ _____    ______ ____
ROOT
ATOM      1  C   UNL     1       0.935   0.960  -8.387  0.00  0.00    +0.186 C 
ENDROOT
BRANCH   1   2
ATOM      2  N   UNL     1       0.087   0.868  -9.578  0.00  0.00    -0.298 N 
ATOM      3  C   UNL     1      -0.893   1.772  -9.779  0.00  0.00    +0.251 C 
ATOM      4  O   UNL     1      -1.072   2.665  -8.971  0.00  0.00    -0.270 OA
ATOM      5  H   UNL     1       0.230   0.157 -10.222  0.00  0.00    +0.150 HD
BRANCH   3   6
ATOM      6  C   UNL     1      -1.742   1.681 -10.970  0.00  0.00    +0.074 A 
ATOM      7  C   UNL     1      -2.788   2.502 -11.363  0.00  0.00    +0.021 A 
ATOM      8  C   UNL     1      -3.403   2.161 -12.543  0.00  0.00    +0.008 A 
ATOM      9  C   UNL     1      -2.962   1.076 -13.227  0.00  0.00    +0.046 A 
ATOM     10  S   UNL     1      -1.694   0.489 -12.295  0.00  0.00    -0.092 S 
ENDBRANCH   3   6
ENDBRANCH   1   2
BRANCH   1  11
ATOM     11  C   UNL     1       0.080   0.850  -7.152  0.00  0.00    +0.328 C 
ATOM     12  O   UNL     1      -1.106   1.072  -7.216  0.00  0.00    -0.249 OA
BRANCH  11  13
ATOM     13  O   UNL     1       0.636   0.507  -5.979  0.00  0.00    -0.454 OA
BRANCH  13  14
ATOM     14  C   UNL     1      -0.234   0.422  -4.849  0.00  0.00    +0.327 C 
BRANCH  14  16
ATOM     15  N   UNL     1      -0.055  -0.114  -2.441  0.00  0.00    -0.310 N 
ATOM     16  C   UNL     1       0.561   0.028  -3.631  0.00  0.00    +0.251 C 
ATOM     17  O   UNL     1       1.755  -0.162  -3.722  0.00  0.00    -0.272 OA
ATOM     18  H   UNL     1      -1.010   0.038  -2.368  0.00  0.00    +0.149 HD
BRANCH  15  19
ATOM     19  C   UNL     1       0.718  -0.497  -1.257  0.00  0.00    +0.073 C 
BRANCH  19  21
ATOM     20  C   UNL     1      -0.019   1.526   0.010  0.00  0.00    +0.006 C 
ATOM     21  C   UNL     1       0.002  -0.004   0.002  0.00  0.00    +0.019 C 
ENDBRANCH  19  21
BRANCH  19  22
ATOM     22  C   UNL     1       0.849  -2.021  -1.205  0.00  0.00    +0.019 C 
ATOM     23  C   UNL     1       1.673  -2.503  -2.400  0.00  0.00    +0.006 C 
ENDBRANCH  19  22
ENDBRANCH  15  19
ENDBRANCH  14  16
ENDBRANCH  13  14
ENDBRANCH  11  13
ENDBRANCH   1  11
BRANCH   1  24
ATOM     24  C   UNL     1       1.667   2.304  -8.384  0.00  0.00    +0.067 C 
BRANCH  24  25
ATOM     25  C   UNL     1       2.614   2.363  -9.555  0.00  0.00    -0.039 C 
ATOM     26  C   UNL     1       2.375   2.911 -10.768  0.00  0.00    -0.001 A 
ATOM     27  C   UNL     1       1.206   3.590 -11.339  0.00  0.00    +0.010 A 
ATOM     28  C   UNL     1       1.266   4.041 -12.613  0.00  0.00    +0.001 A 
ATOM     29  C   UNL     1       2.415   3.876 -13.399  0.00  0.00    +0.002 A 
ATOM     30  C   UNL     1       3.528   3.263 -12.944  0.00  0.00    +0.026 A 
ATOM     31  C   UNL     1       3.576   2.751 -11.619  0.00  0.00    +0.043 A 
ATOM     32  N   UNL     1       4.520   2.127 -10.957  0.00  0.00    -0.380 N 
ATOM     33  C   UNL     1       4.027   1.827  -9.608  0.00  0.00    +0.144 C 
ATOM     34  H   UNL     1       5.400   1.905 -11.301  0.00  0.00    +0.160 HD
ENDBRANCH  24  25
ENDBRANCH   1  24
TORSDOF 11
