REMARK  Name = ZINC67546186
REMARK  7 active torsions:
REMARK  status: ('A' for Active; 'I' for Inactive)
REMARK    1  A    between atoms: C_1  and  C_2
REMARK    2  A    between atoms: C_5  and  N_12
REMARK    3  A    between atoms: N_9  and  C_11
REMARK    4  A    between atoms: N_15  and  C_16
REMARK    5  A    between atoms: C_16  and  C_17
REMARK    6  A    between atoms: C_18  and  C_23
REMARK    7  A    between atoms: C_21  and  C_22
REMARK                            x       y       z     vdW  Elec       q    Type
REMARK                         _______ _______ _______ _____ _____    ______ ____
ROOT
ATOM      1  N   UNL     1      -0.001  -1.520  -4.802  0.00  0.00    -0.268 N 
ATOM      2  C   UNL     1       0.111  -2.581  -5.625  0.00  0.00    +0.304 C 
ATOM      3  O   UNL     1       0.129  -3.707  -5.167  0.00  0.00    -0.252 OA
ATOM      4  N   UNL     1       0.204  -2.393  -6.957  0.00  0.00    -0.295 N 
ATOM      5  H   UNL     1      -0.092  -0.627  -5.170  0.00  0.00    +0.156 HD
ATOM      6  H   UNL     1       0.189  -1.495  -7.322  0.00  0.00    +0.151 HD
ENDROOT
BRANCH   1  11
ATOM      7  C   UNL     1       2.323  -4.913  -0.880  0.00  0.00    +0.068 C 
ATOM      8  C   UNL     1       1.392  -3.783  -0.522  0.00  0.00    +0.069 A 
ATOM      9  C   UNL     1       0.752  -2.866  -1.459  0.00  0.00    +0.043 A 
ATOM     10  C   UNL     1       0.770  -2.724  -2.852  0.00  0.00    +0.038 A 
ATOM     11  C   UNL     1       0.015  -1.706  -3.412  0.00  0.00    +0.054 A 
ATOM     12  C   UNL     1      -0.728  -0.870  -2.581  0.00  0.00    +0.136 A 
ATOM     13  N   UNL     1      -0.729  -1.024  -1.276  0.00  0.00    -0.234 NA
ATOM     14  C   UNL     1      -0.024  -1.981  -0.685  0.00  0.00    +0.158 A 
ATOM     15  N   UNL     1       0.148  -2.353   0.622  0.00  0.00    -0.249 N 
ATOM     16  N   UNL     1       1.009  -3.453   0.678  0.00  0.00    -0.174 NA
ATOM     17  C   UNL     1      -0.476  -1.704   1.778  0.00  0.00    +0.174 C 
ENDBRANCH   1  11
BRANCH   4  18
ATOM     18  C   UNL     1       0.325  -3.546  -7.852  0.00  0.00    +0.146 C 
BRANCH  18  19
ATOM     19  C   UNL     1       0.411  -3.068  -9.279  0.00  0.00    +0.034 A 
ATOM     20  C   UNL     1      -0.677  -2.853 -10.144  0.00  0.00    +0.085 A 
ATOM     21  N   UNL     1      -0.208  -2.442 -11.288  0.00  0.00    -0.083 NA
ATOM     22  O   UNL     1       1.204  -2.383 -11.185  0.00  0.00    -0.359 OA
ATOM     23  C   UNL     1       1.542  -2.766  -9.944  0.00  0.00    +0.139 A 
ATOM     24  C   UNL     1       2.943  -2.848  -9.394  0.00  0.00    +0.089 C 
ATOM     25  C   UNL     1      -2.130  -3.062  -9.807  0.00  0.00    +0.069 C 
ENDBRANCH  18  19
ENDBRANCH   4  18
TORSDOF 3
