REMARK  Name = ZINC49946859
REMARK  7 active torsions:
REMARK  status: ('A' for Active; 'I' for Inactive)
REMARK    1  A    between atoms: C_1  and  C_2
REMARK    2  A    between atoms: C_3  and  C_26
REMARK    3  A    between atoms: C_4  and  C_16
REMARK    4  A    between atoms: C_19  and  O_25
REMARK    5  A    between atoms: C_20  and  N_22
REMARK    6  A    between atoms: C_26  and  O_28
REMARK    7  A    between atoms: O_28  and  C_29
REMARK                            x       y       z     vdW  Elec       q    Type
REMARK                         _______ _______ _______ _____ _____    ______ ____
ROOT
ATOM      1  C   UNL     1      -0.047   0.978   0.022  0.00  0.00    +0.028 C 
ATOM      2  C   UNL     1      -0.764   1.520  -1.216  0.00  0.00    +0.081 C 
ATOM      3  C   UNL     1      -2.214   1.028  -1.224  0.00  0.00    +0.126 C 
ATOM      4  C   UNL     1      -2.965   1.646  -2.408  0.00  0.00    +0.051 C 
ATOM      5  C   UNL     1      -2.966   3.169  -2.255  0.00  0.00    +0.112 C 
ATOM      6  C   UNL     1      -1.545   3.641  -2.107  0.00  0.00    +0.015 C 
ATOM      7  N   UNL     1      -0.755   2.992  -1.185  0.00  0.00    -0.343 N 
ATOM      8  C   UNL     1      -1.030   4.632  -2.859  0.00  0.00    +0.019 C 
ATOM      9  C   UNL     1      -1.770   5.247  -3.874  0.00  0.00    +0.005 C 
ATOM     10  C   UNL     1      -3.049   4.831  -4.156  0.00  0.00    +0.047 C 
ATOM     11  C   UNL     1      -3.632   3.825  -3.422  0.00  0.00    +0.165 C 
ATOM     12  O   UNL     1      -4.750   3.466  -3.739  0.00  0.00    -0.292 OA
ATOM     13  H   UNL     1      -0.217   3.482  -0.543  0.00  0.00    +0.146 HD
ENDROOT
BRANCH   4  14
ATOM     14  C   UNL     1      -2.278   1.267  -3.695  0.00  0.00    -0.040 A 
ATOM     15  C   UNL     1      -2.919   0.443  -4.602  0.00  0.00    +0.007 A 
ATOM     16  C   UNL     1      -2.292   0.094  -5.783  0.00  0.00    +0.048 A 
ATOM     17  C   UNL     1      -1.018   0.571  -6.058  0.00  0.00    +0.147 A 
ATOM     18  C   UNL     1      -0.378   1.398  -5.146  0.00  0.00    +0.168 A 
ATOM     19  C   UNL     1      -1.011   1.748  -3.969  0.00  0.00    +0.040 A 
BRANCH  18  20
ATOM     20  N   UNL     1       0.981   1.908  -5.436  0.00  0.00    +0.060 N 
ATOM     21  O   UNL     1       1.538   2.628  -4.641  0.00  0.00    -0.126 OA
ATOM     22  O   UNL     1       1.533   1.605  -6.468  0.00  0.00    -0.126 OA
ENDBRANCH  18  20
BRANCH  17  23
ATOM     23  O   UNL     1      -0.399   0.229  -7.218  0.00  0.00    -0.504 OA
ATOM     24  H   UNL     1      -0.570   0.838  -7.949  0.00  0.00    +0.292 HD
ENDBRANCH  17  23
ENDBRANCH   4  14
BRANCH   3  25
ATOM     25  C   UNL     1      -2.887   1.431   0.062  0.00  0.00    +0.312 C 
ATOM     26  O   UNL     1      -3.862   2.144   0.036  0.00  0.00    -0.250 OA
BRANCH  25  27
ATOM     27  O   UNL     1      -2.404   0.998   1.237  0.00  0.00    -0.468 OA
ATOM     28  C   UNL     1      -3.092   1.419   2.417  0.00  0.00    +0.280 C 
ENDBRANCH  25  27
ENDBRANCH   3  25
TORSDOF 5
