REMARK  Name = ZINC65467206
REMARK  10 active torsions:
REMARK  status: ('A' for Active; 'I' for Inactive)
REMARK    1  A    between atoms: C_1  and  C_2
REMARK    2  A    between atoms: C_2  and  O_3
REMARK    3  A    between atoms: O_3  and  C_4
REMARK    4  A    between atoms: N_14  and  C_15
REMARK    5  A    between atoms: C_15  and  C_16
REMARK    6  A    between atoms: C_16  and  C_17
REMARK    7  A    between atoms: C_16  and  N_24
REMARK    8  A    between atoms: C_20  and  C_23
REMARK    9  A    between atoms: N_24  and  C_25
REMARK   10  A    between atoms: N_24  and  C_26
REMARK                            x       y       z     vdW  Elec       q    Type
REMARK                         _______ _______ _______ _____ _____    ______ ____
ROOT
ATOM      1  C   UNL     1      -1.314  -1.928  -0.654  0.00  0.00    +0.403 C 
ATOM      2  O   UNL     1      -0.356  -2.670  -0.744  0.00  0.00    -0.226 OA
ATOM      3  N   UNL     1      -2.553  -2.440  -0.521  0.00  0.00    -0.264 N 
ATOM      4  C   UNL     1      -3.722  -1.555  -0.418  0.00  0.00    +0.130 C 
ATOM      5  C   UNL     1      -4.727  -1.941  -1.510  0.00  0.00    +0.128 C 
ATOM      6  N   UNL     1      -4.934  -3.395  -1.465  0.00  0.00    -0.283 N 
ATOM      7  C   UNL     1      -3.766  -4.281  -1.568  0.00  0.00    +0.128 C 
ATOM      8  C   UNL     1      -2.761  -3.895  -0.481  0.00  0.00    +0.130 C 
ATOM      9  C   UNL     1      -6.173  -3.908  -1.331  0.00  0.00    +0.302 C 
ATOM     10  O   UNL     1      -7.122  -3.167  -1.153  0.00  0.00    -0.253 OA
ATOM     11  N   UNL     1      -6.362  -5.240  -1.395  0.00  0.00    -0.300 N 
ATOM     12  H   UNL     1      -5.599  -5.835  -1.464  0.00  0.00    +0.150 HD
ENDROOT
BRANCH   1  13
ATOM     13  O   UNL     1      -1.137  -0.594  -0.690  0.00  0.00    -0.451 OA
BRANCH  13  15
ATOM     14  C   UNL     1       0.204   1.410  -0.853  0.00  0.00    +0.048 C 
ATOM     15  C   UNL     1       0.203  -0.120  -0.833  0.00  0.00    +0.230 C 
ENDBRANCH  13  15
ENDBRANCH   1  13
BRANCH  11  16
ATOM     16  C   UNL     1      -7.719  -5.791  -1.359  0.00  0.00    +0.095 C 
BRANCH  16  17
ATOM     17  C   UNL     1      -7.649  -7.319  -1.321  0.00  0.00    -0.021 C 
BRANCH  17  18
ATOM     18  C   UNL     1      -7.020  -7.824  -2.594  0.00  0.00    -0.059 A 
ATOM     19  C   UNL     1      -7.774  -7.916  -3.749  0.00  0.00    +0.002 A 
ATOM     20  C   UNL     1      -7.196  -8.379  -4.916  0.00  0.00    +0.003 A 
ATOM     21  C   UNL     1      -5.864  -8.750  -4.929  0.00  0.00    -0.050 A 
ATOM     22  C   UNL     1      -5.110  -8.657  -3.774  0.00  0.00    +0.003 A 
ATOM     23  C   UNL     1      -5.687  -8.190  -2.608  0.00  0.00    +0.002 A 
ATOM     24  C   UNL     1      -5.235  -9.256  -6.201  0.00  0.00    +0.044 C 
ENDBRANCH  17  18
BRANCH  17  25
ATOM     25  N   UNL     1      -9.006  -7.868  -1.195  0.00  0.00    +0.382 N 
ATOM     26  C   UNL     1      -8.932  -9.330  -1.065  0.00  0.00    -0.096 C 
ATOM     27  C   UNL     1      -9.654  -7.303  -0.004  0.00  0.00    -0.096 C 
ATOM     28  H   UNL     1      -9.543  -7.630  -2.015  0.00  0.00    -0.082 HD
ENDBRANCH  17  25
ENDBRANCH  16  17
ENDBRANCH  11  16
TORSDOF 6
