REMARK  Name = ZINC26503268
REMARK  7 active torsions:
REMARK  status: ('A' for Active; 'I' for Inactive)
REMARK    1  A    between atoms: C_1  and  C_2
REMARK    2  A    between atoms: C_5  and  C_37
REMARK    3  A    between atoms: N_8  and  C_10
REMARK    4  A    between atoms: C_11  and  C_21
REMARK    5  A    between atoms: N_25  and  C_29
REMARK    6  A    between atoms: C_29  and  C_30
REMARK    7  A    between atoms: C_30  and  C_31
REMARK                            x       y       z     vdW  Elec       q    Type
REMARK                         _______ _______ _______ _____ _____    ______ ____
ROOT
ATOM      1  C   UNL     1      -0.069   1.069   4.828  0.00  0.00    +0.136 A 
ATOM      2  C   UNL     1      -0.446   1.526   6.112  0.00  0.00    +0.081 A 
ATOM      3  C   UNL     1       0.132   0.902   7.244  0.00  0.00    +0.267 A 
ATOM      4  O   UNL     1      -0.166   1.261   8.370  0.00  0.00    -0.267 OA
ATOM      5  N   UNL     1       1.024  -0.095   7.055  0.00  0.00    -0.268 N 
ATOM      6  C   UNL     1       1.589  -0.698   8.138  0.00  0.00    +0.096 A 
ATOM      7  C   UNL     1       2.486  -1.698   7.984  0.00  0.00    +0.018 A 
ATOM      8  C   UNL     1       2.844  -2.129   6.699  0.00  0.00    +0.005 A 
ATOM      9  C   UNL     1       2.284  -1.532   5.609  0.00  0.00    +0.047 A 
ATOM     10  C   UNL     1       1.354  -0.492   5.789  0.00  0.00    +0.142 A 
ATOM     11  N   UNL     1       0.812   0.086   4.717  0.00  0.00    -0.214 NA
ENDROOT
BRANCH   1  17
ATOM     12  C   UNL     1      -1.725   0.257   0.349  0.00  0.00    +0.009 C 
ATOM     13  C   UNL     1      -1.540   1.291   1.462  0.00  0.00    +0.004 C 
ATOM     14  C   UNL     1      -0.714   2.467   0.933  0.00  0.00    +0.009 C 
ATOM     15  C   UNL     1      -0.482   3.469   2.068  0.00  0.00    +0.004 C 
ATOM     16  C   UNL     1       0.220   2.763   3.230  0.00  0.00    +0.109 C 
ATOM     17  N   UNL     1      -0.610   1.646   3.700  0.00  0.00    -0.314 N 
ATOM     18  C   UNL     1      -0.807   0.648   2.641  0.00  0.00    +0.109 C 
ATOM     19  C   UNL     1      -1.827   4.021   2.545  0.00  0.00    +0.009 C 
ENDBRANCH   1  17
BRANCH   2  20
ATOM     20  C   UNL     1      -1.380   2.578   6.263  0.00  0.00    +0.037 C 
ATOM     21  C   UNL     1      -2.622   2.472   5.707  0.00  0.00    +0.077 C 
ATOM     22  C   UNL     1      -3.667   3.436   5.635  0.00  0.00    +0.258 C 
ATOM     23  O   UNL     1      -3.528   4.548   6.113  0.00  0.00    -0.269 OA
ATOM     24  N   UNL     1      -4.794   3.090   5.037  0.00  0.00    -0.255 N 
ATOM     25  C   UNL     1      -4.949   1.856   4.507  0.00  0.00    +0.121 C 
ATOM     26  S   UNL     1      -6.305   1.199   3.695  0.00  0.00    -0.027 S 
ATOM     27  S   UNL     1      -3.375   1.088   4.862  0.00  0.00    -0.061 S 
BRANCH  24  28
ATOM     28  C   UNL     1      -5.890   4.058   4.946  0.00  0.00    +0.119 C 
BRANCH  28  29
ATOM     29  C   UNL     1      -5.749   4.869   3.657  0.00  0.00    +0.054 C 
BRANCH  29  30
ATOM     30  C   UNL     1      -6.877   5.864   3.564  0.00  0.00    -0.046 A 
ATOM     31  C   UNL     1      -8.057   5.515   2.935  0.00  0.00    +0.004 A 
ATOM     32  C   UNL     1      -9.093   6.426   2.853  0.00  0.00    +0.000 A 
ATOM     33  C   UNL     1      -8.945   7.690   3.393  0.00  0.00    +0.000 A 
ATOM     34  C   UNL     1      -7.763   8.042   4.017  0.00  0.00    +0.000 A 
ATOM     35  C   UNL     1      -6.729   7.129   4.102  0.00  0.00    +0.004 A 
ENDBRANCH  29  30
ENDBRANCH  28  29
ENDBRANCH  24  28
ENDBRANCH   2  20
TORSDOF 5
