REMARK  Name = ZINC16828013
REMARK  10 active torsions:
REMARK  status: ('A' for Active; 'I' for Inactive)
REMARK    1  A    between atoms: C_1  and  C_2
REMARK    2  A    between atoms: C_5  and  N_8
REMARK    3  A    between atoms: C_21  and  S_22
REMARK    4  A    between atoms: S_22  and  C_23
REMARK    5  A    between atoms: C_23  and  C_25
REMARK    6  A    between atoms: C_23  and  C_26
REMARK    7  A    between atoms: N_28  and  C_29
REMARK    8  A    between atoms: C_31  and  C_37
REMARK    9  A    between atoms: C_34  and  O_35
REMARK   10  A    between atoms: O_35  and  C_36
REMARK                            x       y       z     vdW  Elec       q    Type
REMARK                         _______ _______ _______ _____ _____    ______ ____
ROOT
ATOM      1  N   UNL     1     -10.891   0.676  -1.873  0.00  0.00    -0.245 N 
ATOM      2  C   UNL     1     -11.452  -0.460  -2.336  0.00  0.00    +0.268 A 
ATOM      3  O   UNL     1     -12.613  -0.472  -2.698  0.00  0.00    -0.267 OA
ATOM      4  C   UNL     1     -10.637  -1.687  -2.395  0.00  0.00    +0.064 A 
ATOM      5  C   UNL     1     -11.169  -2.886  -2.864  0.00  0.00    +0.015 A 
ATOM      6  C   UNL     1     -10.376  -4.014  -2.904  0.00  0.00    +0.001 A 
ATOM      7  C   UNL     1      -9.057  -3.958  -2.482  0.00  0.00    +0.002 A 
ATOM      8  C   UNL     1      -8.518  -2.775  -2.015  0.00  0.00    +0.027 A 
ATOM      9  C   UNL     1      -9.301  -1.631  -1.966  0.00  0.00    +0.064 A 
ATOM     10  N   UNL     1      -8.789  -0.427  -1.501  0.00  0.00    -0.255 N 
ATOM     11  C   UNL     1      -9.569   0.699  -1.456  0.00  0.00    +0.245 A 
ATOM     12  N   UNL     1      -8.818   1.663  -0.979  0.00  0.00    -0.109 NA
ATOM     13  N   UNL     1      -7.640   1.220  -0.720  0.00  0.00    -0.120 NA
ATOM     14  C   UNL     1      -7.561  -0.053  -1.025  0.00  0.00    +0.198 A 
ENDROOT
BRANCH   1  19
ATOM     15  C   UNL     1     -13.985   5.426  -1.624  0.00  0.00    +0.044 C 
ATOM     16  C   UNL     1     -13.163   4.164  -1.690  0.00  0.00    -0.050 A 
ATOM     17  C   UNL     1     -12.535   3.689  -0.553  0.00  0.00    +0.005 A 
ATOM     18  C   UNL     1     -11.781   2.534  -0.610  0.00  0.00    +0.026 A 
ATOM     19  C   UNL     1     -11.654   1.848  -1.811  0.00  0.00    +0.053 A 
ATOM     20  C   UNL     1     -12.282   2.330  -2.953  0.00  0.00    +0.026 A 
ATOM     21  C   UNL     1     -13.039   3.483  -2.888  0.00  0.00    +0.005 A 
ENDBRANCH   1  19
BRANCH  14  22
ATOM     22  S   UNL     1      -6.145  -1.088  -0.850  0.00  0.00    -0.073 S 
BRANCH  22  23
ATOM     23  C   UNL     1      -4.875   0.018  -0.175  0.00  0.00    +0.137 C 
ATOM     24  C   UNL     1      -5.292   0.481   1.222  0.00  0.00    +0.029 C 
BRANCH  23  25
ATOM     25  C   UNL     1      -3.563  -0.718  -0.089  0.00  0.00    +0.230 C 
ATOM     26  O   UNL     1      -3.546  -1.931  -0.091  0.00  0.00    -0.274 OA
ATOM     27  N   UNL     1      -2.407  -0.029  -0.009  0.00  0.00    -0.282 N 
ATOM     28  H   UNL     1      -2.424   0.937   0.075  0.00  0.00    +0.155 HD
BRANCH  27  29
ATOM     29  C   UNL     1      -1.182  -0.708  -0.048  0.00  0.00    +0.076 A 
ATOM     30  C   UNL     1      -1.095  -1.950  -0.660  0.00  0.00    +0.030 A 
ATOM     31  C   UNL     1       0.114  -2.620  -0.693  0.00  0.00    -0.048 A 
ATOM     32  C   UNL     1       1.238  -2.053  -0.121  0.00  0.00    +0.007 A 
ATOM     33  C   UNL     1       1.159  -0.814   0.486  0.00  0.00    +0.048 A 
ATOM     34  C   UNL     1      -0.048  -0.135   0.523  0.00  0.00    +0.141 A 
ATOM     35  C   UNL     1       0.206  -3.971  -1.353  0.00  0.00    +0.044 C 
BRANCH  34  36
ATOM     36  O   UNL     1      -0.127   1.084   1.121  0.00  0.00    -0.493 OA
ATOM     37  C   UNL     1       1.075   1.606   1.690  0.00  0.00    +0.277 C 
ENDBRANCH  34  36
ENDBRANCH  27  29
ENDBRANCH  23  25
ENDBRANCH  22  23
ENDBRANCH  14  22
TORSDOF 6
