REMARK  Name = ZINC02157243
REMARK  10 active torsions:
REMARK  status: ('A' for Active; 'I' for Inactive)
REMARK    1  A    between atoms: C_1  and  N_60
REMARK    2  A    between atoms: C_8  and  O_32
REMARK    3  A    between atoms: C_10  and  C_12
REMARK    4  A    between atoms: N_19  and  C_22
REMARK    5  A    between atoms: C_20  and  O_21
REMARK    6  A    between atoms: C_24  and  O_30
REMARK    7  A    between atoms: C_27  and  O_28
REMARK    8  A    between atoms: O_28  and  C_29
REMARK    9  A    between atoms: O_30  and  C_31
REMARK   10  A    between atoms: O_32  and  C_33
REMARK                            x       y       z     vdW  Elec       q    Type
REMARK                         _______ _______ _______ _____ _____    ______ ____
ROOT
ATOM      1  C   UNL     1      -2.746  -6.226   0.654  0.00  0.00    +0.068 A 
ATOM      2  C   UNL     1      -3.172  -6.891  -0.510  0.00  0.00    +0.259 A 
ATOM      3  O   UNL     1      -3.262  -8.106  -0.524  0.00  0.00    -0.267 OA
ATOM      4  N   UNL     1      -3.479  -6.175  -1.609  0.00  0.00    -0.274 N 
ATOM      5  H   UNL     1      -3.779  -6.644  -2.440  0.00  0.00    +0.173 HD
ATOM      6  C   UNL     1      -3.387  -4.832  -1.598  0.00  0.00    +0.337 A 
ATOM      7  O   UNL     1      -3.674  -4.204  -2.599  0.00  0.00    -0.246 OA
ATOM      8  N   UNL     1      -2.977  -4.176  -0.497  0.00  0.00    -0.229 N 
ATOM      9  C   UNL     1      -2.654  -4.866   0.645  0.00  0.00    +0.209 A 
ENDROOT
BRANCH   1  19
ATOM     10  C   UNL     1      -0.084  -7.213   1.217  0.00  0.00    -0.095 C 
ATOM     11  C   UNL     1      -1.061  -8.828   2.737  0.00  0.00    -0.073 C 
ATOM     12  C   UNL     1      -2.228  -9.809   2.847  0.00  0.00    +0.017 C 
ATOM     13  C   UNL     1      -3.536  -9.060   2.816  0.00  0.00    -0.040 A 
ATOM     14  C   UNL     1      -4.681  -9.713   3.249  0.00  0.00    +0.053 A 
ATOM     15  C   UNL     1      -5.902  -9.079   3.228  0.00  0.00    +0.170 A 
ATOM     16  C   UNL     1      -5.988  -7.766   2.777  0.00  0.00    +0.208 A 
ATOM     17  C   UNL     1      -4.842  -7.112   2.348  0.00  0.00    +0.167 A 
ATOM     18  C   UNL     1      -3.612  -7.762   2.367  0.00  0.00    -0.008 A 
ATOM     19  C   UNL     1      -2.397  -7.007   1.895  0.00  0.00    +0.007 C 
ATOM     20  O   UNL     1      -7.290  -7.361   2.855  0.00  0.00    -0.449 OA
ATOM     21  C   UNL     1      -8.062  -8.571   2.974  0.00  0.00    +0.467 C 
ATOM     22  O   UNL     1      -7.150  -9.499   3.591  0.00  0.00    -0.452 OA
ATOM     23  N   UNL     1      -1.315  -7.952   1.574  0.00  0.00    +0.386 N 
ATOM     24  H   UNL     1      -1.600  -8.530   0.775  0.00  0.00    -0.081 HD
BRANCH  17  25
ATOM     25  O   UNL     1      -4.922  -5.828   1.907  0.00  0.00    -0.491 OA
ATOM     26  C   UNL     1      -4.910  -4.799   2.898  0.00  0.00    +0.277 C 
ENDBRANCH  17  25
ENDBRANCH   1  19
BRANCH   8  27
ATOM     27  C   UNL     1      -2.885  -2.776  -0.515  0.00  0.00    +0.099 A 
ATOM     28  C   UNL     1      -1.678  -2.163  -0.814  0.00  0.00    +0.075 A 
ATOM     29  C   UNL     1      -1.590  -0.779  -0.831  0.00  0.00    +0.122 A 
ATOM     30  C   UNL     1      -2.707  -0.009  -0.544  0.00  0.00    +0.049 A 
ATOM     31  C   UNL     1      -3.913  -0.618  -0.251  0.00  0.00    +0.051 A 
ATOM     32  C   UNL     1      -4.007  -2.000  -0.233  0.00  0.00    +0.144 A 
BRANCH  32  33
ATOM     33  O   UNL     1      -5.193  -2.598   0.060  0.00  0.00    -0.493 OA
ATOM     34  C   UNL     1      -6.301  -1.740   0.340  0.00  0.00    +0.277 C 
ENDBRANCH  32  33
BRANCH  29  35
ATOM     35  O   UNL     1      -0.406  -0.177  -1.123  0.00  0.00    -0.495 OA
ATOM     36  C   UNL     1      -0.388   1.251  -1.123  0.00  0.00    +0.277 C 
ENDBRANCH  29  35
ENDBRANCH   8  27
BRANCH   9  37
ATOM     37  O   UNL     1      -2.249  -4.204   1.749  0.00  0.00    -0.493 OA
ATOM     38  H   UNL     1      -2.217  -3.243   1.642  0.00  0.00    +0.294 HD
ENDBRANCH   9  37
TORSDOF 6
