REMARK  Name = ZINC05992256
REMARK  8 active torsions:
REMARK  status: ('A' for Active; 'I' for Inactive)
REMARK    1  A    between atoms: C_1  and  C_2
REMARK    2  A    between atoms: C_4  and  C_8
REMARK    3  A    between atoms: C_5  and  C_7
REMARK    4  A    between atoms: C_8  and  O_10
REMARK    5  A    between atoms: O_10  and  C_11
REMARK    6  A    between atoms: C_11  and  C_13
REMARK    7  A    between atoms: C_11  and  C_14
REMARK    8  A    between atoms: N_19  and  C_20
REMARK                            x       y       z     vdW  Elec       q    Type
REMARK                         _______ _______ _______ _____ _____    ______ ____
ROOT
ATOM      1  C   UNL     1      -3.522   1.592   0.027  0.00  0.00    +0.261 C 
ATOM      2  O   UNL     1      -3.538   2.804   0.034  0.00  0.00    -0.271 OA
ATOM      3  N   UNL     1      -2.345   0.934   0.018  0.00  0.00    -0.237 N 
ATOM      4  C   UNL     1      -1.187   1.624   0.017  0.00  0.00    +0.306 C 
ATOM      5  O   UNL     1      -1.204   2.839   0.023  0.00  0.00    -0.252 OA
ATOM      6  N   UNL     1      -0.011   0.966   0.007  0.00  0.00    -0.296 N 
ATOM      7  H   UNL     1      -2.332  -0.036   0.013  0.00  0.00    +0.159 HD
ATOM      8  H   UNL     1       0.002  -0.004   0.002  0.00  0.00    +0.151 HD
ENDROOT
BRANCH   6   9
ATOM      9  C   UNL     1       1.248   1.716  -0.001  0.00  0.00    +0.074 C 
ATOM     10  C   UNL     1       1.608   2.092  -1.439  0.00  0.00    +0.022 C 
ATOM     11  C   UNL     1       2.922   2.875  -1.448  0.00  0.00    +0.002 C 
ATOM     12  C   UNL     1       4.035   2.010  -0.853  0.00  0.00    +0.000 C 
ATOM     13  C   UNL     1       3.675   1.633   0.585  0.00  0.00    +0.002 C 
ATOM     14  C   UNL     1       2.361   0.850   0.594  0.00  0.00    +0.022 C 
ENDBRANCH   6   9
BRANCH   1  15
ATOM     15  C   UNL     1      -4.816   0.821   0.029  0.00  0.00    +0.259 C 
ATOM     16  C   UNL     1      -4.936   0.029   1.333  0.00  0.00    +0.062 C 
BRANCH  15  17
ATOM     17  O   UNL     1      -5.930   1.746  -0.080  0.00  0.00    -0.449 OA
BRANCH  17  18
ATOM     18  C   UNL     1      -7.042   1.295  -0.695  0.00  0.00    +0.343 C 
ATOM     19  O   UNL     1      -7.078   0.160  -1.129  0.00  0.00    -0.245 OA
BRANCH  18  23
ATOM     20  C   UNL     1     -10.164   5.322  -0.471  0.00  0.00    +0.086 C 
ATOM     21  C   UNL     1      -9.572   3.961  -0.734  0.00  0.00    +0.103 A 
ATOM     22  C   UNL     1      -8.341   3.566  -0.375  0.00  0.00    +0.059 A 
ATOM     23  C   UNL     1      -8.211   2.177  -0.842  0.00  0.00    +0.100 A 
ATOM     24  C   UNL     1      -9.403   1.876  -1.435  0.00  0.00    +0.116 A 
ATOM     25  O   UNL     1     -10.195   2.949  -1.359  0.00  0.00    -0.464 OA
ATOM     26  C   UNL     1      -9.764   0.557  -2.068  0.00  0.00    +0.087 C 
ENDBRANCH  18  23
ENDBRANCH  17  18
ENDBRANCH  15  17
ENDBRANCH   1  15
TORSDOF 5
