REMARK  Name = ZINC02405998
REMARK  9 active torsions:
REMARK  status: ('A' for Active; 'I' for Inactive)
REMARK    1  A    between atoms: C_1  and  C_2
REMARK    2  A    between atoms: C_2  and  C_4
REMARK    3  A    between atoms: C_2  and  O_25
REMARK    4  A    between atoms: C_8  and  N_10
REMARK    5  A    between atoms: C_11  and  C_13
REMARK    6  A    between atoms: C_16  and  C_24
REMARK    7  A    between atoms: C_17  and  C_18
REMARK    8  A    between atoms: C_17  and  C_19
REMARK    9  A    between atoms: C_20  and  O_23
REMARK                            x       y       z     vdW  Elec       q    Type
REMARK                         _______ _______ _______ _____ _____    ______ ____
ROOT
ATOM      1  N   UNL     1       0.002  -0.004   0.002  0.00  0.00    -0.285 N 
ATOM      2  C   UNL     1      -0.026   1.334  -0.155  0.00  0.00    +0.224 C 
ATOM      3  O   UNL     1      -1.086   1.906  -0.296  0.00  0.00    -0.275 OA
ATOM      4  H   UNL     1       0.852  -0.470   0.036  0.00  0.00    +0.155 HD
ENDROOT
BRANCH   2   5
ATOM      5  C   UNL     1       1.260   2.119  -0.161  0.00  0.00    +0.055 C 
ATOM      6  C   UNL     1       2.263   1.777  -1.304  0.00  0.00    +0.017 C 
ATOM      7  C   UNL     1       3.191   3.010  -1.393  0.00  0.00    +0.011 C 
ATOM      8  C   UNL     1       2.662   3.981  -0.294  0.00  0.00    +0.000 C 
ATOM      9  C   UNL     1       1.124   3.672  -0.350  0.00  0.00    -0.013 C 
ATOM     10  C   UNL     1       0.514   4.034  -1.705  0.00  0.00    +0.012 C 
ATOM     11  C   UNL     1       0.365   4.326   0.806  0.00  0.00    +0.012 C 
ATOM     12  C   UNL     1       3.046   3.294   1.052  0.00  0.00    +0.122 C 
ATOM     13  C   UNL     1       2.100   2.061   1.152  0.00  0.00    +0.048 C 
ATOM     14  C   UNL     1       3.062   5.450  -0.451  0.00  0.00    +0.014 C 
BRANCH  12  15
ATOM     15  O   UNL     1       4.415   2.886   1.030  0.00  0.00    -0.391 OA
ATOM     16  H   UNL     1       4.709   2.453   1.843  0.00  0.00    +0.210 HD
ENDBRANCH  12  15
ENDBRANCH   2   5
BRANCH   1  21
ATOM     17  C   UNL     1      -3.475  -0.853   0.845  0.00  0.00    -0.018 A 
ATOM     18  C   UNL     1      -3.561  -2.137   0.339  0.00  0.00    +0.006 A 
ATOM     19  C   UNL     1      -2.466  -2.715  -0.278  0.00  0.00    +0.002 A 
ATOM     20  C   UNL     1      -1.284  -2.010  -0.392  0.00  0.00    +0.023 A 
ATOM     21  C   UNL     1      -1.194  -0.721   0.115  0.00  0.00    +0.034 A 
ATOM     22  C   UNL     1      -2.294  -0.145   0.740  0.00  0.00    +0.029 A 
BRANCH  17  24
ATOM     23  C   UNL     1      -4.707  -0.647   2.987  0.00  0.00    +0.043 C 
ATOM     24  C   UNL     1      -4.670  -0.227   1.516  0.00  0.00    +0.141 C 
BRANCH  24  25
ATOM     25  O   UNL     1      -5.865  -0.665   0.866  0.00  0.00    -0.387 OA
ATOM     26  H   UNL     1      -5.996  -1.623   0.885  0.00  0.00    +0.210 HD
ENDBRANCH  24  25
ENDBRANCH  17  24
ENDBRANCH   1  21
TORSDOF 5
