REMARK  Name = ZINC52277206
REMARK  5 active torsions:
REMARK  status: ('A' for Active; 'I' for Inactive)
REMARK    1  A    between atoms: C_1  and  C_2
REMARK    2  A    between atoms: C_5  and  N_7
REMARK    3  A    between atoms: C_8  and  C_10
REMARK    4  A    between atoms: C_10  and  C_17
REMARK    5  A    between atoms: C_17  and  N_18
REMARK                            x       y       z     vdW  Elec       q    Type
REMARK                         _______ _______ _______ _____ _____    ______ ____
ROOT
ATOM      1  C   UNL     1       3.189  -3.588   1.269  0.00  0.00    +0.031 C 
ATOM      2  C   UNL     1       2.257  -4.768   1.228  0.00  0.00    +0.014 C 
ATOM      3  C   UNL     1       1.037  -4.588   2.152  0.00  0.00    +0.001 C 
ATOM      4  C   UNL     1       1.405  -3.969   3.514  0.00  0.00    +0.000 C 
ATOM      5  C   UNL     1       2.677  -4.540   4.081  0.00  0.00    +0.000 C 
ATOM      6  C   UNL     1       3.849  -3.626   3.671  0.00  0.00    +0.001 C 
ATOM      7  C   UNL     1       4.294  -3.871   2.307  0.00  0.00    +0.014 C 
ENDROOT
BRANCH   1   9
ATOM      8  N   UNL     1       3.066  -1.322   2.254  0.00  0.00    -0.312 N 
ATOM      9  C   UNL     1       2.424  -2.352   1.668  0.00  0.00    +0.218 C 
ATOM     10  O   UNL     1       1.230  -2.285   1.463  0.00  0.00    -0.275 OA
ATOM     11  H   UNL     1       4.006  -1.401   2.478  0.00  0.00    +0.149 HD
BRANCH   8  15
ATOM     12  C   UNL     1       1.860   1.545   4.542  0.00  0.00    +0.009 C 
ATOM     13  C   UNL     1       2.881   0.794   3.684  0.00  0.00    +0.008 C 
ATOM     14  C   UNL     1       3.045   1.239   2.229  0.00  0.00    +0.027 C 
ATOM     15  C   UNL     1       2.343  -0.083   2.551  0.00  0.00    +0.076 C 
ENDBRANCH   8  15
ENDBRANCH   1   9
BRANCH   1  16
ATOM     16  C   UNL     1       3.820  -3.378  -0.109  0.00  0.00    -0.070 C 
BRANCH  16  17
ATOM     17  N   UNL     1       2.779  -2.995  -1.072  0.00  0.00    +0.379 N 
ATOM     18  H   UNL     1       3.205  -2.778  -1.960  0.00  0.00    -0.090 HD
ATOM     19  H   UNL     1       2.131  -3.760  -1.188  0.00  0.00    -0.090 HD
ATOM     20  H   UNL     1       2.285  -2.185  -0.728  0.00  0.00    -0.090 HD
ENDBRANCH  16  17
ENDBRANCH   1  16
TORSDOF 4
