REMARK  Name = ZINC33547769
REMARK  10 active torsions:
REMARK  status: ('A' for Active; 'I' for Inactive)
REMARK    1  A    between atoms: C_1  and  C_2
REMARK    2  A    between atoms: C_7  and  C_8
REMARK    3  A    between atoms: C_10  and  C_15
REMARK    4  A    between atoms: C_15  and  C_16
REMARK    5  A    between atoms: C_16  and  C_18
REMARK    6  A    between atoms: C_16  and  C_30
REMARK    7  A    between atoms: C_18  and  C_20
REMARK    8  A    between atoms: N_22  and  C_23
REMARK    9  A    between atoms: C_30  and  O_32
REMARK   10  A    between atoms: O_32  and  C_33
REMARK                            x       y       z     vdW  Elec       q    Type
REMARK                         _______ _______ _______ _____ _____    ______ ____
ROOT
ATOM      1  C   UNL     1       1.716  -4.677  -0.035  0.00  0.00    +0.179 C 
ENDROOT
BRANCH   1   2
ATOM      2  C   UNL     1       1.792  -6.178   0.082  0.00  0.00    +0.232 C 
ATOM      3  O   UNL     1       0.897  -6.864  -0.350  0.00  0.00    -0.286 OA
BRANCH   2   4
ATOM      4  C   UNL     1       2.972  -6.815   0.731  0.00  0.00    +0.285 C 
ATOM      5  O   UNL     1       3.872  -6.125   1.166  0.00  0.00    -0.267 OA
ATOM      6  N   UNL     1       3.041  -8.157   0.836  0.00  0.00    -0.279 N 
ATOM      7  H   UNL     1       2.193  -8.778   0.512  0.00  0.00    +0.155 HD
BRANCH   6   8
ATOM      8  C   UNL     1       4.189  -8.759   1.357  0.00  0.00    +0.034 A 
ATOM      9  C   UNL     1       4.618  -9.984   0.861  0.00  0.00    +0.025 A 
ATOM     10  C   UNL     1       5.757 -10.574   1.373  0.00  0.00    +0.022 A 
ATOM     11  C   UNL     1       6.463  -9.952   2.388  0.00  0.00    +0.041 A 
ATOM     12  C   UNL     1       6.034  -8.735   2.888  0.00  0.00    +0.022 A 
ATOM     13  C   UNL     1       4.900  -8.137   2.375  0.00  0.00    +0.025 A 
ATOM     14 CL   UNL     1       7.890 -10.700   3.035  0.00  0.00    -0.084 Cl
ENDBRANCH   6   8
ENDBRANCH   2   4
ENDBRANCH   1   2
BRANCH   1  15
ATOM     15  C   UNL     1       2.348  -4.242  -1.332  0.00  0.00    +0.318 C 
ATOM     16  O   UNL     1       1.693  -3.641  -2.151  0.00  0.00    -0.250 OA
BRANCH  15  17
ATOM     17  O   UNL     1       3.638  -4.521  -1.577  0.00  0.00    -0.467 OA
ATOM     18  C   UNL     1       4.180  -4.071  -2.847  0.00  0.00    +0.280 C 
ENDBRANCH  15  17
ENDBRANCH   1  15
BRANCH   1  19
ATOM     19  C   UNL     1       0.251  -4.238  -0.009  0.00  0.00    +0.084 C 
BRANCH  19  29
ATOM     20  C   UNL     1       1.154   3.596   0.003  0.00  0.00    +0.044 C 
ATOM     21  C   UNL     1       1.175   2.090  -0.002  0.00  0.00    -0.045 A 
ATOM     22  C   UNL     1      -0.012   1.389   0.015  0.00  0.00    +0.031 A 
ATOM     23  C   UNL     1       0.005  -0.002   0.010  0.00  0.00    +0.068 A 
ATOM     24  C   UNL     1       1.237  -0.684  -0.013  0.00  0.00    +0.088 A 
ATOM     25  C   UNL     1       2.431   0.054  -0.031  0.00  0.00    +0.033 A 
ATOM     26  C   UNL     1       2.390   1.417  -0.025  0.00  0.00    -0.045 A 
ATOM     27  C   UNL     1       3.676   2.202  -0.044  0.00  0.00    +0.044 C 
ATOM     28  N   UNL     1       1.274  -2.030  -0.018  0.00  0.00    -0.245 NA
ATOM     29  C   UNL     1       0.178  -2.732  -0.002  0.00  0.00    +0.107 A 
ATOM     30  C   UNL     1      -1.128  -2.064   0.023  0.00  0.00    +0.271 A 
ATOM     31  O   UNL     1      -2.155  -2.718   0.038  0.00  0.00    -0.266 OA
ATOM     32  N   UNL     1      -1.177  -0.714   0.028  0.00  0.00    -0.319 N 
ATOM     33  H   UNL     1      -2.139  -0.181   0.046  0.00  0.00    +0.169 HD
ENDBRANCH  19  29
ENDBRANCH   1  19
TORSDOF 7
