REMARK  Name = ZINC16925358
REMARK  6 active torsions:
REMARK  status: ('A' for Active; 'I' for Inactive)
REMARK    1  A    between atoms: C_6  and  N_7
REMARK    2  A    between atoms: C_10  and  C_15
REMARK    3  A    between atoms: C_15  and  C_16
REMARK    4  A    between atoms: N_18  and  C_19
REMARK    5  A    between atoms: C_22  and  N_26
REMARK    6  A    between atoms: C_24  and  O_25
REMARK                            x       y       z     vdW  Elec       q    Type
REMARK                         _______ _______ _______ _____ _____    ______ ____
ROOT
ATOM      1  C   UNL     1       1.181   1.807  -0.091  0.00  0.00    +0.120 C 
ENDROOT
BRANCH   1   5
ATOM      2  N   UNL     1       2.836   4.723   0.802  0.00  0.00    -0.200 N 
ATOM      3  C   UNL     1       2.429   3.993  -0.223  0.00  0.00    +0.241 C 
ATOM      4  O   UNL     1       3.095   3.858  -1.227  0.00  0.00    -0.274 OA
ATOM      5  C   UNL     1       1.068   3.333  -0.054  0.00  0.00    +0.151 C 
ATOM      6  S   UNL     1       0.634   3.931   1.628  0.00  0.00    -0.054 S 
ATOM      7  C   UNL     1       2.114   4.887   1.926  0.00  0.00    +0.286 C 
ATOM      8  O   UNL     1       2.401   5.534   2.914  0.00  0.00    -0.262 OA
BRANCH   2  14
ATOM      9  C   UNL     1       5.227   4.614   0.467  0.00  0.00    +0.025 A 
ATOM     10  C   UNL     1       6.453   5.244   0.375  0.00  0.00    +0.022 A 
ATOM     11  C   UNL     1       6.542   6.615   0.537  0.00  0.00    +0.041 A 
ATOM     12  C   UNL     1       5.403   7.359   0.788  0.00  0.00    +0.022 A 
ATOM     13  C   UNL     1       4.174   6.735   0.877  0.00  0.00    +0.025 A 
ATOM     14  C   UNL     1       4.082   5.359   0.713  0.00  0.00    +0.045 A 
ATOM     15 CL   UNL     1       8.085   7.402   0.427  0.00  0.00    -0.084 Cl
ENDBRANCH   2  14
ENDBRANCH   1   5
BRANCH   1  16
ATOM     16  C   UNL     1      -0.197   1.200  -0.044  0.00  0.00    +0.219 C 
ATOM     17  O   UNL     1      -1.174   1.917   0.007  0.00  0.00    -0.275 OA
ATOM     18  N   UNL     1      -0.345  -0.139  -0.066  0.00  0.00    -0.283 N 
ATOM     19  H   UNL     1       0.432  -0.711  -0.167  0.00  0.00    +0.155 HD
BRANCH  18  20
ATOM     20  C   UNL     1      -1.621  -0.706   0.059  0.00  0.00    +0.075 A 
ATOM     21  C   UNL     1      -2.723  -0.063  -0.485  0.00  0.00    +0.029 A 
ATOM     22  C   UNL     1      -3.979  -0.626  -0.365  0.00  0.00    +0.035 A 
ATOM     23  C   UNL     1      -4.142  -1.825   0.305  0.00  0.00    +0.130 A 
ATOM     24  C   UNL     1      -3.049  -2.468   0.854  0.00  0.00    +0.080 A 
ATOM     25  C   UNL     1      -1.786  -1.913   0.734  0.00  0.00    +0.140 A 
BRANCH  23  26
ATOM     26  N   UNL     1      -5.491  -2.421   0.434  0.00  0.00    +0.057 N 
ATOM     27  O   UNL     1      -5.637  -3.476   1.024  0.00  0.00    -0.126 OA
ATOM     28  O   UNL     1      -6.456  -1.855  -0.050  0.00  0.00    -0.126 OA
ENDBRANCH  23  26
BRANCH  25  29
ATOM     29  O   UNL     1      -0.709  -2.544   1.274  0.00  0.00    -0.505 OA
ATOM     30  H   UNL     1      -0.520  -2.287   2.187  0.00  0.00    +0.292 HD
ENDBRANCH  25  29
ENDBRANCH  18  20
ENDBRANCH   1  16
TORSDOF 6
