REMARK  Name = ZINC05319525
REMARK  7 active torsions:
REMARK  status: ('A' for Active; 'I' for Inactive)
REMARK    1  A    between atoms: C_1  and  C_2
REMARK    2  A    between atoms: C_3  and  C_28
REMARK    3  A    between atoms: N_9  and  C_12
REMARK    4  A    between atoms: C_12  and  C_13
REMARK    5  A    between atoms: N_15  and  C_16
REMARK    6  A    between atoms: C_21  and  C_22
REMARK    7  A    between atoms: C_22  and  C_24
REMARK                            x       y       z     vdW  Elec       q    Type
REMARK                         _______ _______ _______ _____ _____    ______ ____
ROOT
ATOM      1  C   UNL     1       2.402  -0.247   0.082  0.00  0.00    +0.237 C 
ATOM      2  O   UNL     1       1.361  -0.870   0.089  0.00  0.00    -0.274 OA
ATOM      3  N   UNL     1       2.383   1.097  -0.017  0.00  0.00    -0.283 N 
ATOM      4  H   UNL     1       3.215   1.590  -0.087  0.00  0.00    +0.155 HD
ENDROOT
BRANCH   3   5
ATOM      5  C   UNL     1       1.167   1.778  -0.017  0.00  0.00    +0.048 A 
ATOM      6  C   UNL     1       0.057   1.217  -0.626  0.00  0.00    +0.073 A 
ATOM      7  C   UNL     1      -1.152   1.896  -0.632  0.00  0.00    +0.168 A 
ATOM      8  C   UNL     1      -1.261   3.146  -0.013  0.00  0.00    +0.167 A 
ATOM      9  C   UNL     1      -0.164   3.714   0.597  0.00  0.00    +0.062 A 
ATOM     10  C   UNL     1       1.064   3.037   0.602  0.00  0.00    +0.042 A 
ATOM     11  O   UNL     1      -2.545   3.590  -0.155  0.00  0.00    -0.453 OA
ATOM     12  C   UNL     1      -3.318   2.425  -0.499  0.00  0.00    +0.466 C 
ATOM     13  O   UNL     1      -2.368   1.561  -1.150  0.00  0.00    -0.453 OA
BRANCH  10  14
ATOM     14  C   UNL     1       2.233   3.637   1.249  0.00  0.00    +0.162 C 
ATOM     15  O   UNL     1       3.314   3.092   1.174  0.00  0.00    -0.292 OA
ATOM     16  C   UNL     1       2.092   4.932   2.007  0.00  0.00    +0.091 C 
ENDBRANCH  10  14
ENDBRANCH   3   5
BRANCH   1  17
ATOM     17  C   UNL     1       3.717  -0.977   0.182  0.00  0.00    +0.222 C 
BRANCH  17  26
ATOM     18  C   UNL     1       3.181  -5.152  -3.243  0.00  0.00    +0.045 C 
ATOM     19  C   UNL     1       3.045  -5.553  -1.797  0.00  0.00    -0.026 A 
ATOM     20  C   UNL     1       2.814  -6.834  -1.466  0.00  0.00    -0.008 A 
ATOM     21  S   UNL     1       2.735  -6.792   0.315  0.00  0.00    -0.073 S 
ATOM     22  C   UNL     1       3.014  -5.057   0.562  0.00  0.00    +0.116 A 
ATOM     23  C   UNL     1       3.160  -4.560  -0.746  0.00  0.00    +0.075 A 
ATOM     24  C   UNL     1       3.401  -3.151  -0.849  0.00  0.00    +0.263 A 
ATOM     25  O   UNL     1       3.543  -2.625  -1.939  0.00  0.00    -0.267 OA
ATOM     26  N   UNL     1       3.470  -2.417   0.278  0.00  0.00    -0.290 N 
ATOM     27  C   UNL     1       3.321  -2.987   1.502  0.00  0.00    +0.203 A 
ATOM     28  N   UNL     1       3.095  -4.267   1.628  0.00  0.00    -0.230 NA
ATOM     29  C   UNL     1       2.660  -8.022  -2.380  0.00  0.00    +0.052 C 
ENDBRANCH  17  26
ENDBRANCH   1  17
TORSDOF 4
