REMARK  Name = ZINC12809459
REMARK  9 active torsions:
REMARK  status: ('A' for Active; 'I' for Inactive)
REMARK    1  A    between atoms: C_1  and  C_2
REMARK    2  A    between atoms: C_8  and  N_10
REMARK    3  A    between atoms: N_15  and  C_18
REMARK    4  A    between atoms: C_18  and  C_19
REMARK    5  A    between atoms: N_21  and  C_22
REMARK    6  A    between atoms: C_27  and  C_28
REMARK    7  A    between atoms: N_30  and  C_31
REMARK    8  A    between atoms: C_31  and  C_32
REMARK    9  A    between atoms: C_32  and  C_33
REMARK                            x       y       z     vdW  Elec       q    Type
REMARK                         _______ _______ _______ _____ _____    ______ ____
ROOT
ATOM      1  C   UNL     1      -1.726   2.619   7.562  0.00  0.00    +0.235 C 
ATOM      2  O   UNL     1      -0.990   2.257   8.455  0.00  0.00    -0.274 OA
ATOM      3  N   UNL     1      -1.509   2.201   6.299  0.00  0.00    -0.284 N 
ATOM      4  H   UNL     1      -2.049   2.551   5.573  0.00  0.00    +0.155 HD
ENDROOT
BRANCH   3   5
ATOM      5  C   UNL     1      -0.509   1.268   6.036  0.00  0.00    +0.046 A 
ATOM      6  C   UNL     1      -0.236   0.262   6.953  0.00  0.00    +0.024 A 
ATOM      7  C   UNL     1       0.759  -0.659   6.694  0.00  0.00    +0.002 A 
ATOM      8  C   UNL     1       1.487  -0.591   5.517  0.00  0.00    +0.001 A 
ATOM      9  C   UNL     1       1.226   0.397   4.592  0.00  0.00    +0.015 A 
ATOM     10  C   UNL     1       0.222   1.336   4.841  0.00  0.00    +0.058 A 
BRANCH  10  11
ATOM     11  C   UNL     1      -0.063   2.396   3.856  0.00  0.00    +0.246 C 
ATOM     12  O   UNL     1      -0.996   3.155   4.033  0.00  0.00    -0.270 OA
ATOM     13  N   UNL     1       0.710   2.523   2.760  0.00  0.00    -0.311 N 
ATOM     14  H   UNL     1       1.454   1.917   2.618  0.00  0.00    +0.149 HD
BRANCH  13  15
ATOM     15  C   UNL     1       0.427   3.576   1.781  0.00  0.00    +0.109 C 
BRANCH  15  16
ATOM     16  C   UNL     1       1.445   3.500   0.642  0.00  0.00    +0.054 C 
BRANCH  16  17
ATOM     17  C   UNL     1       1.154   4.583  -0.365  0.00  0.00    -0.046 A 
ATOM     18  C   UNL     1       0.303   4.331  -1.425  0.00  0.00    +0.004 A 
ATOM     19  C   UNL     1       0.032   5.326  -2.345  0.00  0.00    +0.000 A 
ATOM     20  C   UNL     1       0.620   6.570  -2.212  0.00  0.00    +0.000 A 
ATOM     21  C   UNL     1       1.475   6.821  -1.155  0.00  0.00    +0.000 A 
ATOM     22  C   UNL     1       1.742   5.827  -0.231  0.00  0.00    +0.004 A 
ENDBRANCH  16  17
ENDBRANCH  15  16
ENDBRANCH  13  15
ENDBRANCH  10  11
ENDBRANCH   3   5
BRANCH   1  23
ATOM     23  C   UNL     1      -2.882   3.537   7.864  0.00  0.00    +0.214 C 
BRANCH  23  29
ATOM     24  N   UNL     1      -3.377   3.674  11.457  0.00  0.00    -0.214 N 
ATOM     25  C   UNL     1      -2.588   4.765  11.347  0.00  0.00    +0.310 C 
ATOM     26  O   UNL     1      -2.219   5.497  12.241  0.00  0.00    -0.264 OA
ATOM     27  C   UNL     1      -2.267   4.880   9.887  0.00  0.00    +0.310 C 
ATOM     28  O   UNL     1      -1.581   5.724   9.350  0.00  0.00    -0.264 OA
ATOM     29  N   UNL     1      -2.901   3.844   9.296  0.00  0.00    -0.209 N 
ATOM     30  C   UNL     1      -3.557   3.144  10.236  0.00  0.00    +0.319 C 
ATOM     31  O   UNL     1      -4.226   2.155  10.011  0.00  0.00    -0.252 OA
BRANCH  24  38
ATOM     32  C   UNL     1      -1.925   1.728  13.036  0.00  0.00    +0.009 C 
ATOM     33  C   UNL     1      -2.818   2.796  13.670  0.00  0.00    +0.007 C 
ATOM     34  C   UNL     1      -1.986   4.044  13.970  0.00  0.00    +0.005 C 
ATOM     35  C   UNL     1      -2.879   5.112  14.604  0.00  0.00    +0.000 C 
ATOM     36  C   UNL     1      -4.008   5.473  13.637  0.00  0.00    +0.002 C 
ATOM     37  C   UNL     1      -4.841   4.225  13.337  0.00  0.00    +0.023 C 
ATOM     38  C   UNL     1      -3.948   3.156  12.703  0.00  0.00    +0.089 C 
ENDBRANCH  24  38
ENDBRANCH  23  29
ENDBRANCH   1  23
TORSDOF 8
