REMARK  Name = ZINC38617839
REMARK  7 active torsions:
REMARK  status: ('A' for Active; 'I' for Inactive)
REMARK    1  A    between atoms: C_1  and  C_2
REMARK    2  A    between atoms: C_2  and  O_3
REMARK    3  A    between atoms: O_3  and  C_4
REMARK    4  A    between atoms: C_4  and  C_6
REMARK    5  A    between atoms: C_8  and  N_19
REMARK    6  A    between atoms: C_20  and  C_22
REMARK    7  A    between atoms: C_22  and  N_23
REMARK                            x       y       z     vdW  Elec       q    Type
REMARK                         _______ _______ _______ _____ _____    ______ ____
ROOT
ATOM      1  C   UNL     1       0.876  -3.945   4.415  0.00  0.00    +0.234 C 
ATOM      2  C   UNL     1       0.670  -2.592   3.773  0.00  0.00    +0.053 C 
ATOM      3  C   UNL     1       1.309  -2.654   2.550  0.00  0.00    +0.021 A 
ATOM      4  C   UNL     1       1.464  -1.709   1.505  0.00  0.00    +0.061 A 
ATOM      5  C   UNL     1       2.157  -2.042   0.386  0.00  0.00    +0.167 A 
ATOM      6  C   UNL     1       2.735  -3.321   0.235  0.00  0.00    +0.168 A 
ATOM      7  C   UNL     1       2.620  -4.271   1.205  0.00  0.00    +0.075 A 
ATOM      8  C   UNL     1       1.910  -3.990   2.396  0.00  0.00    +0.049 A 
ATOM      9  N   UNL     1       1.664  -4.732   3.461  0.00  0.00    -0.367 N 
ATOM     10  O   UNL     1       3.362  -3.366  -0.977  0.00  0.00    -0.453 OA
ATOM     11  C   UNL     1       2.817  -2.273  -1.737  0.00  0.00    +0.466 C 
ATOM     12  O   UNL     1       2.434  -1.311  -0.738  0.00  0.00    -0.453 OA
ATOM     13  H   UNL     1       1.956  -5.647   3.591  0.00  0.00    +0.161 HD
ENDROOT
BRANCH   2  14
ATOM     14  N   UNL     1      -0.009  -1.528   4.294  0.00  0.00    -0.288 N 
ATOM     15  C   UNL     1      -0.710  -1.670   5.436  0.00  0.00    +0.200 C 
ATOM     16  O   UNL     1      -0.698  -2.729   6.027  0.00  0.00    -0.278 OA
ATOM     17  H   UNL     1       0.013  -0.670   3.842  0.00  0.00    +0.155 HD
BRANCH  15  18
ATOM     18  C   UNL     1      -1.510  -0.514   5.979  0.00  0.00    +0.019 C 
BRANCH  18  19
ATOM     19  N   UNL     1      -2.115  -0.896   7.261  0.00  0.00    +0.386 N 
ATOM     20  C   UNL     1      -1.057  -1.100   8.258  0.00  0.00    -0.073 C 
ATOM     21  C   UNL     1      -1.675  -1.580   9.573  0.00  0.00    +0.046 C 
ATOM     22  C   UNL     1      -2.667  -0.529  10.077  0.00  0.00    +0.167 C 
ATOM     23  C   UNL     1      -3.721  -0.262   9.000  0.00  0.00    +0.046 C 
ATOM     24  C   UNL     1      -3.023   0.167   7.708  0.00  0.00    -0.073 C 
ATOM     25  O   UNL     1      -1.964   0.689  10.371  0.00  0.00    -0.346 OA
ATOM     26  C   UNL     1      -2.640   1.235  11.529  0.00  0.00    +0.191 C 
ATOM     27  C   UNL     1      -3.004  -0.049  12.316  0.00  0.00    +0.191 C 
ATOM     28  O   UNL     1      -3.303  -0.998  11.271  0.00  0.00    -0.346 OA
ATOM     29  H   UNL     1      -2.634  -1.753   7.145  0.00  0.00    -0.081 HD
ENDBRANCH  18  19
ENDBRANCH  15  18
ENDBRANCH   2  14
BRANCH   1  30
ATOM     30  C   UNL     1       1.631  -3.795   5.711  0.00  0.00    +0.336 C 
ATOM     31  O   UNL     1       2.802  -3.497   5.697  0.00  0.00    -0.248 OA
BRANCH  30  32
ATOM     32  O   UNL     1       1.002  -3.992   6.881  0.00  0.00    -0.463 OA
BRANCH  32  34
ATOM     33  C   UNL     1       0.945  -4.309   9.276  0.00  0.00    +0.048 C 
ATOM     34  C   UNL     1       1.801  -3.935   8.064  0.00  0.00    +0.229 C 
ENDBRANCH  32  34
ENDBRANCH  30  32
ENDBRANCH   1  30
TORSDOF 6
