REMARK  Name = ZINC37561851
REMARK  3 active torsions:
REMARK  status: ('A' for Active; 'I' for Inactive)
REMARK    1  A    between atoms: C_1  and  C_2
REMARK    2  A    between atoms: N_12  and  C_13
REMARK    3  A    between atoms: C_16  and  C_19
REMARK                            x       y       z     vdW  Elec       q    Type
REMARK                         _______ _______ _______ _____ _____    ______ ____
ROOT
ATOM      1  C   UNL     1      -0.018   1.503   0.010  0.00  0.00    +0.068 C 
ATOM      2  C   UNL     1       0.002  -0.004   0.002  0.00  0.00    +0.066 A 
ATOM      3  C   UNL     1       0.006  -0.711  -1.215  0.00  0.00    +0.008 A 
ATOM      4  C   UNL     1      -0.008  -0.072  -2.462  0.00  0.00    +0.010 A 
ATOM      5  C   UNL     1      -0.003  -0.824  -3.599  0.00  0.00    +0.001 A 
ATOM      6  C   UNL     1       0.017  -2.216  -3.540  0.00  0.00    +0.001 A 
ATOM      7  C   UNL     1       0.031  -2.869  -2.343  0.00  0.00    +0.012 A 
ATOM      8  C   UNL     1       0.026  -2.128  -1.156  0.00  0.00    +0.023 A 
ATOM      9  C   UNL     1       0.041  -2.731   0.122  0.00  0.00    +0.121 A 
ATOM     10  N   UNL     1       0.035  -1.955   1.192  0.00  0.00    -0.264 N 
ATOM     11  N   UNL     1       0.022  -0.675   1.130  0.00  0.00    -0.177 NA
ATOM     12  N   UNL     1       0.060  -4.110   0.252  0.00  0.00    -0.326 N 
ATOM     13  H   UNL     1       0.064  -4.672  -0.539  0.00  0.00    +0.148 HD
ATOM     14  H   UNL     1       0.045  -2.374   2.066  0.00  0.00    +0.190 HD
ENDROOT
BRANCH  12  15
ATOM     15  C   UNL     1       0.075  -4.721   1.584  0.00  0.00    +0.072 C 
ATOM     16  C   UNL     1       1.516  -4.799   2.093  0.00  0.00    +0.023 C 
ATOM     17  C   UNL     1       1.531  -5.437   3.483  0.00  0.00    +0.016 C 
ATOM     18  C   UNL     1       0.940  -6.846   3.405  0.00  0.00    +0.102 C 
ATOM     19  C   UNL     1      -0.500  -6.767   2.896  0.00  0.00    +0.016 C 
ATOM     20  C   UNL     1      -0.516  -6.130   1.506  0.00  0.00    +0.023 C 
BRANCH  18  21
ATOM     21  C   UNL     1       0.956  -7.474   4.775  0.00  0.00    +0.359 C 
ATOM     22  O   UNL     1       0.103  -8.290   5.081  0.00  0.00    -0.246 OA
ATOM     23  O   UNL     1       1.821  -7.165   5.577  0.00  0.00    -0.246 OA
ENDBRANCH  18  21
ENDBRANCH  12  15
TORSDOF 2
