REMARK  Name = ZINC63731141
REMARK  10 active torsions:
REMARK  status: ('A' for Active; 'I' for Inactive)
REMARK    1  A    between atoms: C_1  and  N_2
REMARK    2  A    between atoms: N_2  and  C_3
REMARK    3  A    between atoms: C_3  and  C_4
REMARK    4  A    between atoms: N_6  and  C_7
REMARK    5  A    between atoms: C_12  and  C_13
REMARK    6  A    between atoms: C_17  and  C_19
REMARK    7  A    between atoms: C_19  and  S_20
REMARK    8  A    between atoms: S_20  and  C_21
REMARK    9  A    between atoms: C_27  and  O_31
REMARK   10  A    between atoms: O_31  and  C_32
REMARK                            x       y       z     vdW  Elec       q    Type
REMARK                         _______ _______ _______ _____ _____    ______ ____
ROOT
ATOM      1  C   UNL     1      -0.027   1.475   0.021  0.00  0.00    +0.132 C 
ATOM      2  N   UNL     1       0.003   0.010   0.011  0.00  0.00    -0.295 N 
ATOM      3  C   UNL     1       0.010  -0.656  -1.161  0.00  0.00    +0.226 C 
ATOM      4  O   UNL     1       0.035  -1.868  -1.169  0.00  0.00    -0.275 OA
ENDROOT
BRANCH   2   5
ATOM      5  C   UNL     1       0.024  -0.730   1.275  0.00  0.00    +0.203 C 
BRANCH   5   6
ATOM      6  C   UNL     1      -1.389  -1.013   1.716  0.00  0.00    +0.235 C 
ATOM      7  O   UNL     1      -2.322  -0.634   1.040  0.00  0.00    -0.274 OA
ATOM      8  N   UNL     1      -1.615  -1.688   2.860  0.00  0.00    -0.284 N 
ATOM      9  H   UNL     1      -0.871  -2.061   3.358  0.00  0.00    +0.155 HD
BRANCH   8  10
ATOM     10  C   UNL     1      -2.924  -1.851   3.329  0.00  0.00    +0.045 A 
ATOM     11  C   UNL     1      -3.911  -0.944   2.965  0.00  0.00    +0.024 A 
ATOM     12  C   UNL     1      -5.201  -1.107   3.430  0.00  0.00    +0.002 A 
ATOM     13  C   UNL     1      -5.510  -2.172   4.257  0.00  0.00    +0.001 A 
ATOM     14  C   UNL     1      -4.529  -3.076   4.621  0.00  0.00    +0.014 A 
ATOM     15  C   UNL     1      -3.239  -2.922   4.154  0.00  0.00    +0.076 A 
BRANCH  15  16
ATOM     16  C   UNL     1      -2.172  -3.912   4.546  0.00  0.00    +0.419 C 
ATOM     17  F   UNL     1      -2.727  -4.893   5.375  0.00  0.00    -0.166 F 
ATOM     18  F   UNL     1      -1.650  -4.514   3.396  0.00  0.00    -0.166 F 
ATOM     19  F   UNL     1      -1.148  -3.248   5.231  0.00  0.00    -0.166 F 
ENDBRANCH  15  16
ENDBRANCH   8  10
ENDBRANCH   5   6
ENDBRANCH   2   5
BRANCH   3  20
ATOM     20  C   UNL     1      -0.012   0.106  -2.461  0.00  0.00    +0.168 C 
BRANCH  20  21
ATOM     21  S   UNL     1       0.004  -1.063  -3.847  0.00  0.00    -0.106 S 
BRANCH  21  22
ATOM     22  C   UNL     1      -0.025  -0.001  -5.318  0.00  0.00    +0.236 C 
ATOM     23  N   UNL     1       1.123   0.912  -5.302  0.00  0.00    -0.355 N 
ATOM     24  C   UNL     1       0.657   2.128  -5.283  0.00  0.00    +0.061 A 
ATOM     25  C   UNL     1       1.320   3.441  -5.261  0.00  0.00    +0.031 A 
ATOM     26  C   UNL     1       0.578   4.564  -5.244  0.00  0.00    +0.048 A 
ATOM     27  C   UNL     1      -0.879   4.524  -5.246  0.00  0.00    +0.122 A 
ATOM     28  C   UNL     1      -1.562   3.354  -5.266  0.00  0.00    +0.073 A 
ATOM     29  C   UNL     1      -0.830   2.086  -5.286  0.00  0.00    +0.064 A 
ATOM     30  N   UNL     1      -1.227   0.841  -5.306  0.00  0.00    -0.355 N 
ATOM     31  H   UNL     1       2.059   0.657  -5.304  0.00  0.00    +0.162 HD
ATOM     32  H   UNL     1      -2.146   0.531  -5.314  0.00  0.00    +0.162 HD
BRANCH  27  33
ATOM     33  O   UNL     1      -1.570   5.691  -5.227  0.00  0.00    -0.495 OA
ATOM     34  C   UNL     1      -0.806   6.898  -5.206  0.00  0.00    +0.277 C 
ENDBRANCH  27  33
ENDBRANCH  21  22
ENDBRANCH  20  21
ENDBRANCH   3  20
TORSDOF 8
