REMARK  Name = ZINC10128730
REMARK  9 active torsions:
REMARK  status: ('A' for Active; 'I' for Inactive)
REMARK    1  A    between atoms: C_1  and  C_2
REMARK    2  A    between atoms: C_2  and  O_3
REMARK    3  A    between atoms: O_3  and  C_4
REMARK    4  A    between atoms: C_4  and  C_6
REMARK    5  A    between atoms: C_7  and  C_31
REMARK    6  A    between atoms: C_9  and  N_11
REMARK    7  A    between atoms: C_12  and  C_14
REMARK    8  A    between atoms: C_14  and  N_59
REMARK    9  A    between atoms: C_18  and  C_20
REMARK                            x       y       z     vdW  Elec       q    Type
REMARK                         _______ _______ _______ _____ _____    ______ ____
ROOT
ATOM      1  C   UNL     1      -2.107   5.128   7.619  0.00  0.00    -0.077 C 
ATOM      2  C   UNL     1      -2.843   5.636   8.878  0.00  0.00    -0.020 C 
ATOM      3  C   UNL     1      -2.272   4.798  10.041  0.00  0.00    -0.013 C 
ATOM      4  C   UNL     1      -1.239   3.855   9.387  0.00  0.00    -0.037 C 
ATOM      5  N   UNL     1      -1.679   3.776   7.996  0.00  0.00    +0.390 N 
ATOM      6  H   UNL     1      -2.466   3.122   7.914  0.00  0.00    -0.080 HD
ENDROOT
BRANCH   4   7
ATOM      7  C   UNL     1      -1.272   2.501  10.047  0.00  0.00    -0.057 A 
ATOM      8  C   UNL     1      -2.311   1.628   9.778  0.00  0.00    +0.006 A 
ATOM      9  C   UNL     1      -2.347   0.383  10.379  0.00  0.00    +0.049 A 
ATOM     10  C   UNL     1      -1.338   0.013  11.253  0.00  0.00    +0.162 A 
ATOM     11  C   UNL     1      -0.297   0.889  11.524  0.00  0.00    +0.162 A 
ATOM     12  C   UNL     1      -0.261   2.133  10.916  0.00  0.00    +0.051 A 
ATOM     13  O   UNL     1       0.692   0.515  12.387  0.00  0.00    -0.488 OA
ATOM     14  C   UNL     1       0.307   0.381  13.757  0.00  0.00    +0.232 C 
ATOM     15  C   UNL     1      -0.287  -0.994  14.018  0.00  0.00    +0.082 C 
ATOM     16  C   UNL     1      -1.588  -1.215  13.263  0.00  0.00    +0.232 C 
ATOM     17  O   UNL     1      -1.361  -1.213  11.852  0.00  0.00    -0.488 OA
ENDBRANCH   4   7
BRANCH   5  18
ATOM     18  C   UNL     1      -0.563   3.315   7.111  0.00  0.00    +0.020 C 
BRANCH  18  20
ATOM     19  N   UNL     1      -0.247   2.561   4.776  0.00  0.00    -0.282 N 
ATOM     20  C   UNL     1      -1.090   2.985   5.738  0.00  0.00    +0.201 C 
ATOM     21  O   UNL     1      -2.273   3.102   5.498  0.00  0.00    -0.278 OA
ATOM     22  H   UNL     1       0.700   2.467   4.968  0.00  0.00    +0.155 HD
BRANCH  19  26
ATOM     23  C   UNL     1      -2.088   1.799   1.258  0.00  0.00    +0.101 A 
ATOM     24  C   UNL     1      -0.718   1.572   1.248  0.00  0.00    -0.028 A 
ATOM     25  C   UNL     1      -0.034   1.813   2.408  0.00  0.00    +0.035 A 
ATOM     26  C   UNL     1      -0.733   2.257   3.511  0.00  0.00    +0.073 A 
ATOM     27  S   UNL     1      -2.365   2.343   2.934  0.00  0.00    -0.067 S 
ATOM     28  C   UNL     1      -0.013   1.086   0.008  0.00  0.00    +0.045 C 
BRANCH  23  29
ATOM     29  C   UNL     1      -3.025   1.639   0.207  0.00  0.00    +0.346 C 
ATOM     30  O   UNL     1      -2.654   1.252  -0.885  0.00  0.00    -0.244 OA
BRANCH  29  31
ATOM     31  O   UNL     1      -4.329   1.915   0.418  0.00  0.00    -0.461 OA
BRANCH  31  33
ATOM     32  C   UNL     1      -6.642   2.092  -0.259  0.00  0.00    +0.048 C 
ATOM     33  C   UNL     1      -5.218   1.731  -0.685  0.00  0.00    +0.229 C 
ENDBRANCH  31  33
ENDBRANCH  29  31
ENDBRANCH  23  29
ENDBRANCH  19  26
ENDBRANCH  18  20
ENDBRANCH   5  18
TORSDOF 7
