REMARK  Name = ZINC53735878
REMARK  4 active torsions:
REMARK  status: ('A' for Active; 'I' for Inactive)
REMARK    1  A    between atoms: C_5  and  N_7
REMARK    2  A    between atoms: C_11  and  N_18
REMARK    3  A    between atoms: C_15  and  C_16
REMARK    4  A    between atoms: C_16  and  O_17
REMARK                            x       y       z     vdW  Elec       q    Type
REMARK                         _______ _______ _______ _____ _____    ______ ____
ROOT
ATOM      1  N   UNL     1       1.237  -2.082  -0.021  0.00  0.00    -0.293 N 
ATOM      2  C   UNL     1       1.255  -2.909   1.089  0.00  0.00    +0.074 A 
ATOM      3  C   UNL     1       1.258  -2.685   2.458  0.00  0.00    +0.030 A 
ATOM      4  C   UNL     1       1.279  -3.751   3.330  0.00  0.00    +0.025 A 
ATOM      5  C   UNL     1       1.298  -5.058   2.845  0.00  0.00    +0.027 A 
ATOM      6  C   UNL     1       1.295  -5.298   1.484  0.00  0.00    +0.052 A 
ATOM      7  C   UNL     1       1.273  -4.223   0.591  0.00  0.00    +0.091 A 
ATOM      8  N   UNL     1       1.266  -4.134  -0.764  0.00  0.00    -0.229 NA
ATOM      9  C   UNL     1       1.238  -2.884  -1.122  0.00  0.00    +0.141 A 
ENDROOT
BRANCH   1  14
ATOM     10  C   UNL     1      -0.017   1.377   0.010  0.00  0.00    +0.002 A 
ATOM     11  C   UNL     1       1.171   2.086   0.002  0.00  0.00    +0.001 A 
ATOM     12  C   UNL     1       2.380   1.416  -0.013  0.00  0.00    +0.017 A 
ATOM     13  C   UNL     1       2.405   0.034  -0.021  0.00  0.00    +0.042 A 
ATOM     14  C   UNL     1       1.214  -0.681  -0.013  0.00  0.00    +0.062 A 
ATOM     15  C   UNL     1       0.002  -0.004   0.002  0.00  0.00    +0.027 A 
ATOM     16 BR   UNL     1       4.059  -0.882  -0.042  0.00  0.00    -0.048 Br
ENDBRANCH   1  14
BRANCH   5  17
ATOM     17  N   UNL     1       1.320  -6.132   3.741  0.00  0.00    -0.358 N 
ATOM     18  H   UNL     1       1.322  -5.967   4.697  0.00  0.00    +0.142 HD
ATOM     19  H   UNL     1       1.333  -7.043   3.406  0.00  0.00    +0.142 HD
ENDBRANCH   5  17
BRANCH   9  20
ATOM     20  C   UNL     1       1.216  -2.394  -2.547  0.00  0.00    +0.230 C 
BRANCH  20  21
ATOM     21  O   UNL     1       2.555  -2.217  -3.012  0.00  0.00    -0.387 OA
ATOM     22  H   UNL     1       2.617  -1.902  -3.924  0.00  0.00    +0.210 HD
ENDBRANCH  20  21
ENDBRANCH   9  20
TORSDOF 4
