REMARK  Name = ZINC22986733
REMARK  11 active torsions:
REMARK  status: ('A' for Active; 'I' for Inactive)
REMARK    1  A    between atoms: C_1  and  C_2
REMARK    2  A    between atoms: C_3  and  C_7
REMARK    3  A    between atoms: C_10  and  S_19
REMARK    4  A    between atoms: N_11  and  C_12
REMARK    5  A    between atoms: C_12  and  C_13
REMARK    6  A    between atoms: S_19  and  C_20
REMARK    7  A    between atoms: C_20  and  C_21
REMARK    8  A    between atoms: C_21  and  C_23
REMARK    9  A    between atoms: C_23  and  C_35
REMARK   10  A    between atoms: N_25  and  C_34
REMARK   11  A    between atoms: N_32  and  C_33
REMARK                            x       y       z     vdW  Elec       q    Type
REMARK                         _______ _______ _______ _____ _____    ______ ____
ROOT
ATOM      1  C   UNL     1      -2.718   0.022   1.250  0.00  0.00    +0.168 A 
ATOM      2  N   UNL     1      -3.300  -0.060   2.423  0.00  0.00    -0.128 NA
ATOM      3  N   UNL     1      -4.042   0.971   2.619  0.00  0.00    -0.122 NA
ATOM      4  C   UNL     1      -3.975   1.778   1.585  0.00  0.00    +0.193 A 
ATOM      5  N   UNL     1      -3.127   1.204   0.678  0.00  0.00    -0.298 N 
ENDROOT
BRANCH   1   8
ATOM      6  C   UNL     1      -0.268  -1.320   2.672  0.00  0.00    +0.087 C 
ATOM      7  C   UNL     1      -0.727  -1.560   1.257  0.00  0.00    +0.112 A 
ATOM      8  C   UNL     1      -1.794  -0.968   0.656  0.00  0.00    +0.060 A 
ATOM      9  C   UNL     1      -1.834  -1.511  -0.708  0.00  0.00    +0.053 A 
ATOM     10  C   UNL     1      -0.805  -2.370  -0.795  0.00  0.00    +0.196 A 
ATOM     11  O   UNL     1      -0.154  -2.395   0.378  0.00  0.00    -0.467 OA
ENDBRANCH   1   8
BRANCH   5  12
ATOM     12  C   UNL     1      -2.740   1.736  -0.631  0.00  0.00    +0.161 C 
BRANCH  12  13
ATOM     13  C   UNL     1      -1.473   2.539  -0.492  0.00  0.00    -0.028 A 
ATOM     14  C   UNL     1      -0.244   1.909  -0.552  0.00  0.00    +0.005 A 
ATOM     15  C   UNL     1       0.918   2.647  -0.431  0.00  0.00    +0.000 A 
ATOM     16  C   UNL     1       0.852   4.015  -0.244  0.00  0.00    +0.000 A 
ATOM     17  C   UNL     1      -0.377   4.645  -0.178  0.00  0.00    +0.000 A 
ATOM     18  C   UNL     1      -1.539   3.907  -0.300  0.00  0.00    +0.005 A 
ENDBRANCH  12  13
ENDBRANCH   5  12
BRANCH   4  19
ATOM     19  S   UNL     1      -4.821   3.312   1.400  0.00  0.00    -0.078 S 
BRANCH  19  20
ATOM     20  C   UNL     1      -5.714   3.370   2.973  0.00  0.00    +0.157 C 
BRANCH  20  21
ATOM     21  C   UNL     1      -6.531   4.635   3.040  0.00  0.00    +0.187 C 
ATOM     22  O   UNL     1      -6.511   5.422   2.114  0.00  0.00    -0.290 OA
BRANCH  21  23
ATOM     23  C   UNL     1      -7.316   4.905   4.174  0.00  0.00    +0.131 C 
ATOM     24  C   UNL     1      -7.000   5.995   5.005  0.00  0.00    +0.118 C 
ATOM     25  N   UNL     1      -5.902   6.785   4.882  0.00  0.00    -0.289 N 
ATOM     26  C   UNL     1      -5.946   7.750   5.882  0.00  0.00    +0.056 A 
ATOM     27  C   UNL     1      -5.103   8.799   6.224  0.00  0.00    +0.025 A 
ATOM     28  C   UNL     1      -5.412   9.606   7.301  0.00  0.00    +0.002 A 
ATOM     29  C   UNL     1      -6.559   9.374   8.040  0.00  0.00    +0.002 A 
ATOM     30  C   UNL     1      -7.404   8.335   7.708  0.00  0.00    +0.025 A 
ATOM     31  C   UNL     1      -7.103   7.517   6.628  0.00  0.00    +0.056 A 
ATOM     32  N   UNL     1      -7.741   6.419   6.061  0.00  0.00    -0.289 N 
ATOM     33  C   UNL     1      -8.996   5.823   6.524  0.00  0.00    +0.137 C 
ATOM     34  C   UNL     1      -4.854   6.647   3.868  0.00  0.00    +0.137 C 
BRANCH  23  35
ATOM     35  C   UNL     1      -8.438   4.070   4.484  0.00  0.00    +0.106 C 
ATOM     36  N   UNL     1      -9.328   3.408   4.729  0.00  0.00    -0.191 NA
ENDBRANCH  23  35
ENDBRANCH  21  23
ENDBRANCH  20  21
ENDBRANCH  19  20
ENDBRANCH   4  19
TORSDOF 8
