REMARK  Name = ZINC39990431
REMARK  11 active torsions:
REMARK  status: ('A' for Active; 'I' for Inactive)
REMARK    1  A    between atoms: C_1  and  C_2
REMARK    2  A    between atoms: C_2  and  C_3
REMARK    3  A    between atoms: C_3  and  C_4
REMARK    4  A    between atoms: C_4  and  N_5
REMARK    5  A    between atoms: C_6  and  N_30
REMARK    6  A    between atoms: C_7  and  C_15
REMARK    7  A    between atoms: C_8  and  C_14
REMARK    8  A    between atoms: C_9  and  C_12
REMARK    9  A    between atoms: N_19  and  C_23
REMARK   10  A    between atoms: C_23  and  C_24
REMARK   11  A    between atoms: C_34  and  C_37
REMARK                            x       y       z     vdW  Elec       q    Type
REMARK                         _______ _______ _______ _____ _____    ______ ____
ROOT
ATOM      1  N   UNL     1       1.882  -2.410  -2.510  0.00  0.00    -0.295 N 
ATOM      2  C   UNL     1       1.042  -2.677  -3.543  0.00  0.00    +0.112 A 
ATOM      3  C   UNL     1       1.454  -3.503  -4.602  0.00  0.00    +0.019 A 
ATOM      4  C   UNL     1       2.746  -4.054  -4.587  0.00  0.00    -0.017 A 
ATOM      5  C   UNL     1       3.588  -3.764  -3.517  0.00  0.00    +0.120 A 
ATOM      6  C   UNL     1       3.126  -2.920  -2.475  0.00  0.00    +0.270 A 
ATOM      7  O   UNL     1       3.860  -2.659  -1.538  0.00  0.00    -0.266 OA
ATOM      8  C   UNL     1       3.213  -4.944  -5.709  0.00  0.00    +0.046 C 
ENDROOT
BRANCH   3   9
ATOM      9  C   UNL     1       0.543  -3.789  -5.713  0.00  0.00    +0.032 C 
ATOM     10  C   UNL     1       0.839  -3.349  -6.966  0.00  0.00    +0.077 C 
ATOM     11  C   UNL     1       0.134  -3.551  -8.191  0.00  0.00    +0.258 C 
ATOM     12  O   UNL     1      -0.896  -4.201  -8.221  0.00  0.00    -0.269 OA
ATOM     13  N   UNL     1       0.631  -3.013  -9.290  0.00  0.00    -0.253 N 
ATOM     14  C   UNL     1       1.774  -2.292  -9.256  0.00  0.00    +0.121 C 
ATOM     15  S   UNL     1       2.590  -1.513 -10.544  0.00  0.00    -0.027 S 
ATOM     16  S   UNL     1       2.214  -2.352  -7.526  0.00  0.00    -0.061 S 
BRANCH  13  17
ATOM     17  C   UNL     1      -0.066  -3.200 -10.565  0.00  0.00    +0.146 C 
BRANCH  17  18
ATOM     18  C   UNL     1      -1.073  -2.066 -10.767  0.00  0.00    +0.136 C 
ATOM     19  C   UNL     1      -1.847  -2.264 -12.094  0.00  0.00    +0.035 C 
ATOM     20  C   UNL     1      -3.153  -1.478 -11.795  0.00  0.00    +0.031 C 
ATOM     21  C   UNL     1      -3.348  -1.732 -10.284  0.00  0.00    +0.160 C 
ATOM     22  O   UNL     1      -2.075  -2.099  -9.738  0.00  0.00    -0.375 OA
ENDBRANCH  17  18
ENDBRANCH  13  17
ENDBRANCH   3   9
BRANCH   2  23
ATOM     23  N   UNL     1      -0.212  -2.139  -3.553  0.00  0.00    -0.316 N 
ATOM     24  C   UNL     1      -0.476  -0.869  -4.241  0.00  0.00    +0.106 C 
ATOM     25  C   UNL     1      -1.635  -1.071  -5.223  0.00  0.00    +0.019 C 
ATOM     26  C   UNL     1      -2.840  -1.642  -4.472  0.00  0.00    +0.006 C 
ATOM     27  C   UNL     1      -2.473  -3.001  -3.872  0.00  0.00    +0.003 C 
ATOM     28  C   UNL     1      -1.325  -2.823  -2.880  0.00  0.00    +0.109 C 
ATOM     29  C   UNL     1      -3.688  -3.586  -3.150  0.00  0.00    +0.009 C 
ENDBRANCH   2  23
BRANCH   5  30
ATOM     30  C   UNL     1       4.911  -4.310  -3.470  0.00  0.00    +0.105 C 
ATOM     31  N   UNL     1       5.961  -4.743  -3.433  0.00  0.00    -0.191 NA
ENDBRANCH   5  30
BRANCH   1  32
ATOM     32  C   UNL     1       1.427  -1.545  -1.419  0.00  0.00    +0.126 C 
BRANCH  32  33
ATOM     33  C   UNL     1       1.881  -0.108  -1.683  0.00  0.00    +0.021 C 
BRANCH  33  35
ATOM     34  C   UNL     1       1.859   2.232  -0.808  0.00  0.00    +0.004 C 
ATOM     35  C   UNL     1       1.406   0.795  -0.543  0.00  0.00    -0.002 C 
ENDBRANCH  33  35
ENDBRANCH  32  33
ENDBRANCH   1  32
TORSDOF 8
