REMARK  Name = ZINC41726888
REMARK  11 active torsions:
REMARK  status: ('A' for Active; 'I' for Inactive)
REMARK    1  A    between atoms: C_1  and  C_2
REMARK    2  A    between atoms: C_5  and  C_29
REMARK    3  A    between atoms: N_8  and  C_10
REMARK    4  A    between atoms: C_10  and  C_11
REMARK    5  A    between atoms: C_11  and  N_12
REMARK    6  A    between atoms: C_13  and  C_15
REMARK    7  A    between atoms: N_17  and  C_18
REMARK    8  A    between atoms: C_20  and  O_27
REMARK    9  A    between atoms: C_23  and  O_24
REMARK   10  A    between atoms: O_24  and  C_25
REMARK   11  A    between atoms: O_27  and  C_28
REMARK                            x       y       z     vdW  Elec       q    Type
REMARK                         _______ _______ _______ _____ _____    ______ ____
ROOT
ATOM      1  N   UNL     1       2.936  -0.222   4.818  0.00  0.00    -0.309 N 
ATOM      2  C   UNL     1       4.174   0.263   5.038  0.00  0.00    +0.299 C 
ATOM      3  O   UNL     1       4.669   1.042   4.250  0.00  0.00    -0.265 OA
ATOM      4  H   UNL     1       2.540  -0.845   5.447  0.00  0.00    +0.149 HD
ENDROOT
BRANCH   2   5
ATOM      5  C   UNL     1       4.937  -0.159   6.250  0.00  0.00    +0.303 C 
ATOM      6  O   UNL     1       4.441  -0.938   7.038  0.00  0.00    -0.265 OA
ATOM      7  N   UNL     1       6.175   0.326   6.470  0.00  0.00    -0.275 N 
ATOM      8  H   UNL     1       6.596   0.897   5.809  0.00  0.00    +0.155 HD
BRANCH   7   9
ATOM      9  C   UNL     1       6.852   0.005   7.652  0.00  0.00    +0.079 A 
ATOM     10  C   UNL     1       6.686  -1.245   8.230  0.00  0.00    +0.074 A 
ATOM     11  C   UNL     1       7.358  -1.560   9.400  0.00  0.00    +0.140 A 
ATOM     12  C   UNL     1       8.197  -0.626   9.994  0.00  0.00    +0.086 A 
ATOM     13  C   UNL     1       8.364   0.620   9.419  0.00  0.00    +0.071 A 
ATOM     14  C   UNL     1       7.699   0.938   8.246  0.00  0.00    +0.143 A 
ATOM     15 CL   UNL     1       9.036  -1.024  11.460  0.00  0.00    -0.080 Cl
BRANCH  14  16
ATOM     16  O   UNL     1       7.868   2.163   7.678  0.00  0.00    -0.493 OA
ATOM     17  C   UNL     1       8.752   3.069   8.342  0.00  0.00    +0.277 C 
ENDBRANCH  14  16
BRANCH  11  18
ATOM     18  O   UNL     1       7.196  -2.786   9.968  0.00  0.00    -0.494 OA
ATOM     19  C   UNL     1       6.318  -3.697   9.304  0.00  0.00    +0.277 C 
ENDBRANCH  11  18
ENDBRANCH   7   9
ENDBRANCH   2   5
BRANCH   1  20
ATOM     20  C   UNL     1       2.188   0.192   3.628  0.00  0.00    +0.086 C 
BRANCH  20  21
ATOM     21  C   UNL     1       0.822  -0.498   3.619  0.00  0.00    -0.060 C 
BRANCH  21  27
ATOM     22  C   UNL     1       0.007   1.469  -0.024  0.00  0.00    +0.005 C 
ATOM     23  C   UNL     1       0.033  -0.061  -0.024  0.00  0.00    -0.031 C 
ATOM     24  C   UNL     1      -1.402  -0.597  -0.014  0.00  0.00    +0.003 C 
ATOM     25  C   UNL     1      -2.092  -0.156   1.280  0.00  0.00    -0.031 C 
ATOM     26  C   UNL     1      -1.280  -0.650   2.478  0.00  0.00    -0.076 C 
ATOM     27  N   UNL     1       0.072  -0.083   2.426  0.00  0.00    +0.381 N 
ATOM     28  C   UNL     1       0.767  -0.559   1.223  0.00  0.00    -0.076 C 
ATOM     29  C   UNL     1      -3.501  -0.750   1.335  0.00  0.00    +0.005 C 
ATOM     30  H   UNL     1       0.013   0.924   2.402  0.00  0.00    -0.082 HD
ENDBRANCH  21  27
ENDBRANCH  20  21
ENDBRANCH   1  20
TORSDOF 7
