REMARK  Name = ZINC09603387
REMARK  7 active torsions:
REMARK  status: ('A' for Active; 'I' for Inactive)
REMARK    1  A    between atoms: C_1  and  C_2
REMARK    2  A    between atoms: C_5  and  N_8
REMARK    3  A    between atoms: C_9  and  C_32
REMARK    4  A    between atoms: C_11  and  C_17
REMARK    5  A    between atoms: C_17  and  O_19
REMARK    6  A    between atoms: O_19  and  C_20
REMARK    7  A    between atoms: C_20  and  N_21
REMARK                            x       y       z     vdW  Elec       q    Type
REMARK                         _______ _______ _______ _____ _____    ______ ____
ROOT
ATOM      1  N   UNL     1      -0.325  -3.849  -1.825  0.00  0.00    -0.263 N 
ATOM      2  C   UNL     1       0.237  -5.185  -1.977  0.00  0.00    +0.132 C 
ATOM      3  C   UNL     1       0.866  -5.652  -0.662  0.00  0.00    +0.124 C 
ATOM      4  C   UNL     1      -0.158  -5.462   0.463  0.00  0.00    +0.026 C 
ATOM      5  C   UNL     1      -0.377  -3.961   0.671  0.00  0.00    +0.097 C 
ATOM      6  C   UNL     1      -0.628  -3.294  -0.651  0.00  0.00    +0.220 C 
ATOM      7  O   UNL     1      -1.133  -2.191  -0.650  0.00  0.00    -0.275 OA
ENDROOT
BRANCH   1  12
ATOM      8  C   UNL     1      -1.303  -0.825  -6.524  0.00  0.00    +0.044 C 
ATOM      9  C   UNL     1      -1.043  -1.628  -5.276  0.00  0.00    -0.050 A 
ATOM     10  C   UNL     1      -1.766  -2.781  -5.035  0.00  0.00    +0.005 A 
ATOM     11  C   UNL     1      -1.527  -3.523  -3.894  0.00  0.00    +0.024 A 
ATOM     12  C   UNL     1      -0.566  -3.103  -2.985  0.00  0.00    +0.037 A 
ATOM     13  C   UNL     1       0.156  -1.942  -3.227  0.00  0.00    +0.024 A 
ATOM     14  C   UNL     1      -0.085  -1.208  -4.372  0.00  0.00    +0.005 A 
ENDBRANCH   1  12
BRANCH   2  15
ATOM     15  C   UNL     1       1.293  -5.163  -3.052  0.00  0.00    +0.011 A 
ATOM     16  C   UNL     1       1.510  -6.050  -4.054  0.00  0.00    +0.013 A 
ATOM     17  C   UNL     1       2.551  -5.823  -4.935  0.00  0.00    +0.008 A 
ATOM     18  C   UNL     1       3.323  -4.721  -4.771  0.00  0.00    +0.045 A 
ATOM     19  S   UNL     1       2.578  -3.957  -3.340  0.00  0.00    -0.100 S 
ENDBRANCH   2  15
BRANCH   3  20
ATOM     20  C   UNL     1       2.098  -4.835  -0.367  0.00  0.00    +0.314 C 
ATOM     21  O   UNL     1       2.118  -3.656  -0.630  0.00  0.00    -0.250 OA
BRANCH  20  22
ATOM     22  O   UNL     1       3.173  -5.418   0.187  0.00  0.00    -0.444 OA
BRANCH  22  23
ATOM     23  C   UNL     1       4.323  -4.570   0.443  0.00  0.00    +0.352 C 
BRANCH  23  24
ATOM     24  N   UNL     1       4.107  -3.812   1.678  0.00  0.00    -0.199 N 
ATOM     25  C   UNL     1       3.287  -2.752   1.787  0.00  0.00    +0.256 C 
ATOM     26  O   UNL     1       2.618  -2.278   0.890  0.00  0.00    -0.269 OA
ATOM     27  C   UNL     1       3.333  -2.261   3.181  0.00  0.00    +0.049 A 
ATOM     28  C   UNL     1       2.713  -1.227   3.864  0.00  0.00    +0.014 A 
ATOM     29  C   UNL     1       2.988  -1.029   5.208  0.00  0.00    +0.001 A 
ATOM     30  C   UNL     1       3.875  -1.857   5.871  0.00  0.00    +0.001 A 
ATOM     31  C   UNL     1       4.502  -2.895   5.200  0.00  0.00    +0.014 A 
ATOM     32  C   UNL     1       4.237  -3.105   3.856  0.00  0.00    +0.049 A 
ATOM     33  C   UNL     1       4.707  -4.082   2.852  0.00  0.00    +0.256 C 
ATOM     34  O   UNL     1       5.500  -4.979   3.052  0.00  0.00    -0.269 OA
ENDBRANCH  23  24
ENDBRANCH  22  23
ENDBRANCH  20  22
ENDBRANCH   3  20
TORSDOF 6
