REMARK  Name = ZINC40799480
REMARK  3 active torsions:
REMARK  status: ('A' for Active; 'I' for Inactive)
REMARK    1  A    between atoms: N_6  and  C_20
REMARK    2  A    between atoms: C_7  and  C_9
REMARK    3  A    between atoms: N_11  and  C_12
REMARK                            x       y       z     vdW  Elec       q    Type
REMARK                         _______ _______ _______ _____ _____    ______ ____
ROOT
ATOM      1  C   UNL     1      -0.207   0.909  -1.662  0.00  0.00    +0.034 A 
ATOM      2  C   UNL     1       0.645   1.949  -1.533  0.00  0.00    +0.048 A 
ATOM      3  S   UNL     1       1.958   1.257  -0.540  0.00  0.00    -0.095 S 
ATOM      4  C   UNL     1       1.297  -0.380  -0.353  0.00  0.00    +0.038 A 
ATOM      5  C   UNL     1       0.092  -0.323  -1.064  0.00  0.00    +0.057 A 
ATOM      6  N   UNL     1      -0.474  -1.591  -0.951  0.00  0.00    -0.333 N 
ATOM      7  C   UNL     1       0.357  -2.392  -0.197  0.00  0.00    +0.106 A 
ATOM      8  C   UNL     1       1.456  -1.650   0.178  0.00  0.00    +0.048 A 
ENDROOT
BRANCH   6   9
ATOM      9  C   UNL     1      -1.750  -2.006  -1.538  0.00  0.00    +0.088 C 
ATOM     10  C   UNL     1      -2.627  -0.770  -1.824  0.00  0.00    +0.025 C 
ATOM     11  C   UNL     1      -2.355  -0.448  -3.315  0.00  0.00    +0.002 C 
ATOM     12  C   UNL     1      -2.245  -1.854  -3.954  0.00  0.00    +0.002 C 
ATOM     13  C   UNL     1      -1.507  -2.695  -2.892  0.00  0.00    +0.025 C 
ENDBRANCH   6   9
BRANCH   7  14
ATOM     14  C   UNL     1       0.113  -3.795   0.148  0.00  0.00    +0.265 C 
ATOM     15  O   UNL     1      -0.839  -4.383  -0.332  0.00  0.00    -0.268 OA
ATOM     16  N   UNL     1       0.942  -4.434   0.996  0.00  0.00    -0.280 N 
ATOM     17  H   UNL     1       1.669  -3.952   1.420  0.00  0.00    +0.155 HD
BRANCH  16  18
ATOM     18  C   UNL     1       0.755  -5.793   1.265  0.00  0.00    +0.036 A 
ATOM     19  C   UNL     1      -0.529  -6.321   1.323  0.00  0.00    +0.043 A 
ATOM     20  C   UNL     1      -0.711  -7.665   1.589  0.00  0.00    +0.044 A 
ATOM     21  C   UNL     1       0.384  -8.485   1.797  0.00  0.00    +0.040 A 
ATOM     22  C   UNL     1       1.664  -7.962   1.740  0.00  0.00    +0.044 A 
ATOM     23  C   UNL     1       1.852  -6.620   1.469  0.00  0.00    +0.043 A 
ATOM     24 CL   UNL     1       3.034  -8.995   2.003  0.00  0.00    -0.083 Cl
ATOM     25 CL   UNL     1      -2.315  -8.324   1.661  0.00  0.00    -0.083 Cl
ENDBRANCH  16  18
ENDBRANCH   7  14
TORSDOF 3
