REMARK  Name = ZINC64566847
REMARK  8 active torsions:
REMARK  status: ('A' for Active; 'I' for Inactive)
REMARK    1  A    between atoms: C_1  and  C_2
REMARK    2  A    between atoms: C_7  and  S_8
REMARK    3  A    between atoms: S_8  and  N_11
REMARK    4  A    between atoms: C_16  and  C_20
REMARK    5  A    between atoms: N_18  and  C_19
REMARK    6  A    between atoms: C_20  and  N_21
REMARK    7  A    between atoms: N_21  and  C_22
REMARK    8  A    between atoms: C_28  and  C_30
REMARK                            x       y       z     vdW  Elec       q    Type
REMARK                         _______ _______ _______ _____ _____    ______ ____
ROOT
ATOM      1  N   UNL     1       5.011   4.563   0.087  0.00  0.00    -0.172 NA
ATOM      2  C   UNL     1       5.811   5.219  -0.958  0.00  0.00    +0.116 C 
ATOM      3  C   UNL     1       5.078   5.102  -2.300  0.00  0.00    +0.072 C 
ATOM      4  C   UNL     1       3.624   5.443  -2.091  0.00  0.00    +0.045 A 
ATOM      5  C   UNL     1       3.002   5.453  -0.885  0.00  0.00    +0.014 A 
ATOM      6  C   UNL     1       1.671   5.806  -1.086  0.00  0.00    +0.085 A 
ATOM      7  N   UNL     1       1.494   6.006  -2.369  0.00  0.00    -0.174 NA
ATOM      8  N   UNL     1       2.716   5.784  -3.022  0.00  0.00    -0.271 N 
ATOM      9  C   UNL     1       2.958   5.902  -4.462  0.00  0.00    +0.172 C 
ATOM     10  C   UNL     1       3.690   5.128   0.416  0.00  0.00    +0.148 C 
ENDROOT
BRANCH   1  11
ATOM     11  S   UNL     1       5.579   3.220   0.872  0.00  0.00    +0.061 S 
ATOM     12  O   UNL     1       4.873   3.140   2.103  0.00  0.00    -0.153 OA
ATOM     13  O   UNL     1       6.997   3.281   0.809  0.00  0.00    -0.153 OA
BRANCH  11  20
ATOM     14  C   UNL     1       6.698   0.436   1.255  0.00  0.00    +0.046 C 
ATOM     15  C   UNL     1       5.662   0.583   0.171  0.00  0.00    -0.024 A 
ATOM     16  C   UNL     1       5.277  -0.518  -0.571  0.00  0.00    +0.005 A 
ATOM     17  C   UNL     1       4.327  -0.383  -1.566  0.00  0.00    +0.000 A 
ATOM     18  C   UNL     1       3.761   0.853  -1.818  0.00  0.00    +0.002 A 
ATOM     19  C   UNL     1       4.146   1.953  -1.076  0.00  0.00    +0.029 A 
ATOM     20  C   UNL     1       5.093   1.818  -0.079  0.00  0.00    +0.108 A 
ENDBRANCH  11  20
ENDBRANCH   1  11
BRANCH   6  21
ATOM     21  C   UNL     1       0.618   5.936  -0.016  0.00  0.00    +0.171 C 
BRANCH  21  22
ATOM     22  N   UNL     1       1.210   6.536   1.182  0.00  0.00    -0.262 N 
ATOM     23  C   UNL     1       0.894   6.058   2.402  0.00  0.00    +0.251 C 
ATOM     24  O   UNL     1       1.305   6.619   3.399  0.00  0.00    -0.270 OA
BRANCH  22  25
ATOM     25  C   UNL     1       2.103   7.606   1.059  0.00  0.00    +0.037 A 
ATOM     26  C   UNL     1       2.287   8.221  -0.172  0.00  0.00    +0.023 A 
ATOM     27  C   UNL     1       3.169   9.277  -0.290  0.00  0.00    +0.002 A 
ATOM     28  C   UNL     1       3.870   9.721   0.817  0.00  0.00    +0.000 A 
ATOM     29  C   UNL     1       3.689   9.111   2.044  0.00  0.00    +0.002 A 
ATOM     30  C   UNL     1       2.803   8.058   2.170  0.00  0.00    +0.023 A 
ENDBRANCH  22  25
BRANCH  23  31
ATOM     31  C   UNL     1       0.049   4.852   2.527  0.00  0.00    +0.037 A 
ATOM     32  C   UNL     1       0.130   3.837   1.572  0.00  0.00    +0.013 A 
ATOM     33  C   UNL     1      -0.662   2.714   1.695  0.00  0.00    +0.001 A 
ATOM     34  C   UNL     1      -1.536   2.593   2.761  0.00  0.00    +0.000 A 
ATOM     35  C   UNL     1      -1.621   3.595   3.711  0.00  0.00    +0.001 A 
ATOM     36  C   UNL     1      -0.830   4.721   3.604  0.00  0.00    +0.013 A 
ENDBRANCH  23  31
ENDBRANCH  21  22
ENDBRANCH   6  21
TORSDOF 6
