REMARK  Name = ZINC37293646
REMARK  7 active torsions:
REMARK  status: ('A' for Active; 'I' for Inactive)
REMARK    1  A    between atoms: C_1  and  C_2
REMARK    2  A    between atoms: C_2  and  C_4
REMARK    3  A    between atoms: C_2  and  N_10
REMARK    4  A    between atoms: N_8  and  C_9
REMARK    5  A    between atoms: N_10  and  C_11
REMARK    6  A    between atoms: C_11  and  C_12
REMARK    7  A    between atoms: C_16  and  N_18
REMARK                            x       y       z     vdW  Elec       q    Type
REMARK                         _______ _______ _______ _____ _____    ______ ____
ROOT
ATOM      1  N   UNL     1       0.713  -0.491   1.192  0.00  0.00    +0.388 N 
ATOM      2  H   UNL     1       0.798  -1.495   1.145  0.00  0.00    -0.084 HD
ATOM      3  H   UNL     1       1.632  -0.076   1.228  0.00  0.00    -0.084 HD
ENDROOT
BRANCH   1   5
ATOM      4  C   UNL     1      -0.019   1.526   0.010  0.00  0.00    -0.006 C 
ATOM      5  C   UNL     1       0.002  -0.004   0.002  0.00  0.00    -0.005 C 
BRANCH   5   6
ATOM      6  C   UNL     1       0.707  -0.490  -1.238  0.00  0.00    +0.119 A 
ATOM      7  N   UNL     1       1.995  -0.478  -1.450  0.00  0.00    -0.136 NA
ATOM      8  N   UNL     1       2.247  -0.968  -2.612  0.00  0.00    -0.138 NA
ATOM      9  C   UNL     1       1.131  -1.315  -3.194  0.00  0.00    +0.224 A 
ATOM     10  N   UNL     1       0.123  -1.026  -2.336  0.00  0.00    -0.322 N 
ATOM     11  C   UNL     1      -1.309  -1.246  -2.554  0.00  0.00    +0.151 C 
ENDBRANCH   5   6
ENDBRANCH   1   5
BRANCH   1  12
ATOM     12  C   UNL     1      -0.040  -0.119   2.398  0.00  0.00    -0.046 C 
BRANCH  12  13
ATOM     13  C   UNL     1       0.689  -0.618   3.619  0.00  0.00    -0.062 A 
ATOM     14  C   UNL     1       0.422  -1.881   4.115  0.00  0.00    +0.003 A 
ATOM     15  C   UNL     1       1.090  -2.339   5.234  0.00  0.00    +0.018 A 
ATOM     16  C   UNL     1       2.027  -1.534   5.858  0.00  0.00    +0.048 A 
ATOM     17  C   UNL     1       2.294  -0.272   5.361  0.00  0.00    +0.140 A 
ATOM     18  C   UNL     1       1.629   0.184   4.238  0.00  0.00    +0.035 A 
ATOM     19 BR   UNL     1       2.942  -2.161   7.390  0.00  0.00    -0.048 Br
BRANCH  17  20
ATOM     20  N   UNL     1       3.296   0.590   6.028  0.00  0.00    +0.058 N 
ATOM     21  O   UNL     1       3.530   1.693   5.594  0.00  0.00    -0.126 OA
ATOM     22  O   UNL     1       3.881   0.189   7.008  0.00  0.00    -0.126 OA
ENDBRANCH  17  20
ENDBRANCH  12  13
ENDBRANCH   1  12
TORSDOF 5
