REMARK  Name = ZINC65508932
REMARK  6 active torsions:
REMARK  status: ('A' for Active; 'I' for Inactive)
REMARK    1  A    between atoms: C_1  and  C_2
REMARK    2  A    between atoms: C_6  and  C_11
REMARK    3  A    between atoms: C_19  and  C_21
REMARK    4  A    between atoms: C_24  and  C_27
REMARK    5  A    between atoms: C_27  and  C_28
REMARK    6  A    between atoms: C_27  and  C_29
REMARK                            x       y       z     vdW  Elec       q    Type
REMARK                         _______ _______ _______ _____ _____    ______ ____
ROOT
ATOM      1  C   UNL     1      -0.019   1.526   0.010  0.00  0.00    +0.035 C 
ATOM      2  C   UNL     1       0.002  -0.004   0.002  0.00  0.00    +0.123 C 
ATOM      3  C   UNL     1       0.739  -0.498  -1.216  0.00  0.00    +0.072 A 
ATOM      4  C   UNL     1       1.827  -1.243  -0.805  0.00  0.00    +0.019 A 
ATOM      5  C   UNL     1       2.659  -1.805  -1.774  0.00  0.00    +0.081 A 
ATOM      6  N   UNL     1       2.376  -1.603  -3.060  0.00  0.00    -0.214 NA
ATOM      7  C   UNL     1       1.323  -0.882  -3.411  0.00  0.00    +0.213 A 
ATOM      8  N   UNL     1       0.517  -0.338  -2.511  0.00  0.00    -0.217 NA
ATOM      9  N   UNL     1       1.056  -0.691  -4.756  0.00  0.00    -0.327 N 
ATOM     10  C   UNL     1       1.860  -1.276   0.699  0.00  0.00    +0.147 C 
ATOM     11  N   UNL     1       0.713  -0.498   1.186  0.00  0.00    -0.287 N 
ATOM     12  C   UNL     1       0.378  -0.279   2.473  0.00  0.00    +0.247 C 
ATOM     13  O   UNL     1      -0.600   0.386   2.741  0.00  0.00    -0.273 OA
ATOM     14  H   UNL     1       1.638  -1.084  -5.426  0.00  0.00    +0.145 HD
ATOM     15  H   UNL     1       0.288  -0.166  -5.029  0.00  0.00    +0.145 HD
ENDROOT
BRANCH   5  16
ATOM     16  C   UNL     1       3.840  -2.612  -1.380  0.00  0.00    +0.004 A 
ATOM     17  C   UNL     1       4.577  -2.295  -0.236  0.00  0.00    +0.030 A 
ATOM     18  C   UNL     1       5.669  -3.072   0.095  0.00  0.00    +0.111 A 
ATOM     19  N   UNL     1       6.018  -4.101  -0.653  0.00  0.00    -0.263 NA
ATOM     20  C   UNL     1       5.351  -4.434  -1.740  0.00  0.00    +0.111 A 
ATOM     21  C   UNL     1       4.243  -3.714  -2.139  0.00  0.00    +0.030 A 
ENDBRANCH   5  16
BRANCH  12  22
ATOM     22  C   UNL     1       1.219  -0.862   3.580  0.00  0.00    +0.238 C 
ATOM     23  C   UNL     1       2.427   0.017   3.856  0.00  0.00    +0.036 C 
ATOM     24  C   UNL     1       2.261   0.402   5.123  0.00  0.00    +0.064 C 
ATOM     25  N   UNL     1       1.127  -0.122   5.640  0.00  0.00    -0.158 NA
ATOM     26  N   UNL     1       0.488  -0.837   4.858  0.00  0.00    -0.170 NA
BRANCH  24  27
ATOM     27  C   UNL     1       3.209   1.299   5.876  0.00  0.00    +0.033 C 
ATOM     28  C   UNL     1       2.469   2.560   6.326  0.00  0.00    +0.014 C 
ATOM     29  C   UNL     1       3.748   0.559   7.102  0.00  0.00    +0.014 C 
ENDBRANCH  24  27
ENDBRANCH  12  22
TORSDOF 3
