REMARK  Name = ZINC39143948
REMARK  6 active torsions:
REMARK  status: ('A' for Active; 'I' for Inactive)
REMARK    1  A    between atoms: C_1  and  C_2
REMARK    2  A    between atoms: C_3  and  C_29
REMARK    3  A    between atoms: C_6  and  N_15
REMARK    4  A    between atoms: N_15  and  S_16
REMARK    5  A    between atoms: S_16  and  C_19
REMARK    6  A    between atoms: C_29  and  C_31
REMARK                            x       y       z     vdW  Elec       q    Type
REMARK                         _______ _______ _______ _____ _____    ______ ____
ROOT
ATOM      1  C   UNL     1       0.524   1.357  -0.838  0.00  0.00    +0.087 C 
ATOM      2  C   UNL     1       0.432  -0.139  -0.687  0.00  0.00    +0.114 A 
ATOM      3  C   UNL     1      -0.727  -0.846  -0.532  0.00  0.00    +0.066 A 
ATOM      4  C   UNL     1      -0.319  -2.262  -0.426  0.00  0.00    +0.033 A 
ATOM      5  C   UNL     1      -1.025  -3.462  -0.257  0.00  0.00    +0.037 A 
ATOM      6  C   UNL     1      -0.365  -4.653  -0.192  0.00  0.00    +0.057 A 
ATOM      7  C   UNL     1       1.045  -4.688  -0.295  0.00  0.00    +0.008 A 
ATOM      8  C   UNL     1       1.743  -5.903  -0.231  0.00  0.00    +0.010 A 
ATOM      9  C   UNL     1       3.101  -5.910  -0.333  0.00  0.00    +0.001 A 
ATOM     10  C   UNL     1       3.812  -4.724  -0.501  0.00  0.00    +0.001 A 
ATOM     11  C   UNL     1       3.167  -3.526  -0.567  0.00  0.00    +0.012 A 
ATOM     12  C   UNL     1       1.768  -3.483  -0.466  0.00  0.00    +0.027 A 
ATOM     13  C   UNL     1       1.070  -2.257  -0.532  0.00  0.00    +0.144 A 
ATOM     14  O   UNL     1       1.470  -0.980  -0.691  0.00  0.00    -0.459 OA
ENDROOT
BRANCH   3  15
ATOM     15  C   UNL     1      -2.088  -0.312  -0.480  0.00  0.00    +0.164 C 
ATOM     16  O   UNL     1      -3.030  -1.063  -0.336  0.00  0.00    -0.292 OA
ATOM     17  C   UNL     1      -2.320   1.172  -0.605  0.00  0.00    +0.092 C 
ENDBRANCH   3  15
BRANCH   6  18
ATOM     18  N   UNL     1      -1.082  -5.839  -0.022  0.00  0.00    -0.216 N 
ATOM     19  H   UNL     1      -0.710  -6.559   0.512  0.00  0.00    +0.174 HD
BRANCH  18  20
ATOM     20  S   UNL     1      -2.567  -6.018  -0.733  0.00  0.00    +0.072 S 
ATOM     21  O   UNL     1      -2.973  -7.359  -0.493  0.00  0.00    -0.150 OA
ATOM     22  O   UNL     1      -3.348  -4.902  -0.328  0.00  0.00    -0.150 OA
BRANCH  20  23
ATOM     23  C   UNL     1      -2.334  -5.865  -2.472  0.00  0.00    +0.110 A 
ATOM     24  C   UNL     1      -2.427  -4.545  -3.085  0.00  0.00    +0.031 A 
ATOM     25  C   UNL     1      -2.259  -4.358  -4.412  0.00  0.00    +0.027 A 
ATOM     26  C   UNL     1      -1.974  -5.506  -5.271  0.00  0.00    +0.056 A 
ATOM     27  N   UNL     1      -1.765  -5.670  -6.553  0.00  0.00    -0.268 N 
ATOM     28  C   UNL     1      -1.546  -7.007  -6.789  0.00  0.00    +0.308 C 
ATOM     29  O   UNL     1      -1.319  -7.495  -7.876  0.00  0.00    -0.252 OA
ATOM     30  N   UNL     1      -1.622  -7.707  -5.608  0.00  0.00    -0.267 N 
ATOM     31  C   UNL     1      -1.879  -6.862  -4.642  0.00  0.00    +0.058 A 
ATOM     32  C   UNL     1      -2.070  -6.974  -3.198  0.00  0.00    +0.054 A 
ATOM     33  H   UNL     1      -1.504  -8.665  -5.508  0.00  0.00    +0.156 HD
ATOM     34  H   UNL     1      -1.764  -4.968  -7.222  0.00  0.00    +0.156 HD
ENDBRANCH  20  23
ENDBRANCH  18  20
ENDBRANCH   6  18
TORSDOF 4
