REMARK  Name = ZINC58871882
REMARK  4 active torsions:
REMARK  status: ('A' for Active; 'I' for Inactive)
REMARK    1  A    between atoms: C_9  and  O_28
REMARK    2  A    between atoms: C_10  and  C_11
REMARK    3  A    between atoms: N_12  and  C_13
REMARK    4  A    between atoms: C_16  and  N_19
REMARK                            x       y       z     vdW  Elec       q    Type
REMARK                         _______ _______ _______ _____ _____    ______ ____
ROOT
ATOM      1  C   UNL     1       7.295   0.123  -0.069  0.00  0.00    +0.064 A 
ATOM      2  C   UNL     1       7.461   1.222  -0.917  0.00  0.00    +0.029 A 
ATOM      3  C   UNL     1       8.655   1.910  -0.922  0.00  0.00    +0.025 A 
ATOM      4  C   UNL     1       9.693   1.513  -0.086  0.00  0.00    +0.030 A 
ATOM      5  C   UNL     1       9.531   0.420   0.758  0.00  0.00    +0.025 A 
ATOM      6  C   UNL     1       8.338  -0.269   0.774  0.00  0.00    +0.029 A 
ENDROOT
BRANCH   4   7
ATOM      7  N   UNL     1      10.901   2.213  -0.095  0.00  0.00    -0.321 N 
ATOM      8  C   UNL     1      11.226   3.383  -0.917  0.00  0.00    +0.141 C 
ATOM      9  C   UNL     1      12.639   3.796  -0.588  0.00  0.00    -0.026 A 
ATOM     10  C   UNL     1      13.425   4.827  -1.075  0.00  0.00    +0.005 A 
ATOM     11  C   UNL     1      14.712   4.998  -0.604  0.00  0.00    +0.000 A 
ATOM     12  C   UNL     1      15.217   4.139   0.354  0.00  0.00    +0.000 A 
ATOM     13  C   UNL     1      14.433   3.110   0.841  0.00  0.00    +0.005 A 
ATOM     14  C   UNL     1      13.143   2.938   0.369  0.00  0.00    -0.026 A 
ATOM     15  C   UNL     1      12.084   1.923   0.721  0.00  0.00    +0.141 C 
ENDBRANCH   4   7
BRANCH   1  17
ATOM     16  C   UNL     1       4.979   0.088  -0.046  0.00  0.00    +0.123 C 
ATOM     17  N   UNL     1       6.111  -0.563  -0.060  0.00  0.00    -0.255 NA
BRANCH  16  27
ATOM     18  C   UNL     1      -0.016   1.358   0.009  0.00  0.00    +0.001 A 
ATOM     19  C   UNL     1       1.167   2.091   0.002  0.00  0.00    +0.001 A 
ATOM     20  C   UNL     1       2.378   1.464  -0.013  0.00  0.00    +0.009 A 
ATOM     21  C   UNL     1       2.434   0.066  -0.021  0.00  0.00    -0.006 A 
ATOM     22  C   UNL     1       1.232  -0.682  -0.013  0.00  0.00    -0.017 A 
ATOM     23  C   UNL     1       0.002  -0.004   0.002  0.00  0.00    +0.008 A 
ATOM     24  C   UNL     1       1.290  -2.088  -0.020  0.00  0.00    +0.012 A 
ATOM     25  C   UNL     1       2.485  -2.736  -0.035  0.00  0.00    +0.046 A 
ATOM     26  C   UNL     1       3.696  -2.044  -0.043  0.00  0.00    +0.126 A 
ATOM     27  C   UNL     1       3.712  -0.646  -0.037  0.00  0.00    +0.042 A 
BRANCH  26  28
ATOM     28  O   UNL     1       4.865  -2.731  -0.057  0.00  0.00    -0.506 OA
ATOM     29  H   UNL     1       5.196  -2.927  -0.944  0.00  0.00    +0.292 HD
ENDBRANCH  26  28
ENDBRANCH  16  27
ENDBRANCH   1  17
TORSDOF 4
