REMARK  Name = ZINC22063536
REMARK  7 active torsions:
REMARK  status: ('A' for Active; 'I' for Inactive)
REMARK    1  A    between atoms: C_3  and  C_6
REMARK    2  A    between atoms: C_6  and  N_7
REMARK    3  A    between atoms: N_7  and  C_8
REMARK    4  A    between atoms: N_7  and  C_15
REMARK    5  A    between atoms: C_8  and  C_9
REMARK    6  A    between atoms: C_15  and  C_16
REMARK    7  A    between atoms: N_18  and  C_19
REMARK                            x       y       z     vdW  Elec       q    Type
REMARK                         _______ _______ _______ _____ _____    ______ ____
ROOT
ATOM      1  C   UNL     1       5.383   2.727   1.256  0.00  0.00    +0.019 C 
ENDROOT
BRANCH   1   2
ATOM      2  C   UNL     1       6.397   1.748   0.724  0.00  0.00    +0.201 C 
ATOM      3  O   UNL     1       6.029   0.706   0.223  0.00  0.00    -0.278 OA
ATOM      4  N   UNL     1       7.712   2.029   0.804  0.00  0.00    -0.286 N 
ATOM      5  H   UNL     1       8.050   2.937   1.326  0.00  0.00    +0.155 HD
BRANCH   4   6
ATOM      6  C   UNL     1       8.651   1.167   0.222  0.00  0.00    +0.051 A 
ATOM      7  C   UNL     1       8.382  -0.192   0.131  0.00  0.00    +0.073 A 
ATOM      8  C   UNL     1       9.310  -1.046  -0.445  0.00  0.00    +0.164 A 
ATOM      9  C   UNL     1      10.508  -0.539  -0.934  0.00  0.00    +0.163 A 
ATOM     10  C   UNL     1      10.774   0.819  -0.841  0.00  0.00    +0.066 A 
ATOM     11  C   UNL     1       9.847   1.671  -0.270  0.00  0.00    +0.043 A 
ATOM     12 BR   UNL     1      10.212   3.523  -0.152  0.00  0.00    -0.048 Br
ATOM     13  O   UNL     1      11.430  -1.361  -1.507  0.00  0.00    -0.485 OA
ATOM     14  C   UNL     1      11.294  -2.762  -1.245  0.00  0.00    +0.270 C 
ATOM     15  C   UNL     1       9.820  -3.146  -1.438  0.00  0.00    +0.270 C 
ATOM     16  O   UNL     1       9.033  -2.377  -0.523  0.00  0.00    -0.485 OA
ENDBRANCH   4   6
ENDBRANCH   1   2
BRANCH   1  17
ATOM     17  N   UNL     1       4.030   2.191   1.052  0.00  0.00    +0.390 N 
ATOM     18  H   UNL     1       4.022   1.149   1.404  0.00  0.00    -0.081 HD
BRANCH  17  19
ATOM     19  C   UNL     1       3.676   2.187  -0.374  0.00  0.00    -0.035 C 
BRANCH  19  22
ATOM     20  C   UNL     1       0.249   0.585  -0.829  0.00  0.00    +0.008 A 
ATOM     21  C   UNL     1       1.171   1.590  -0.602  0.00  0.00    +0.009 A 
ATOM     22  C   UNL     1       2.491   1.282  -0.595  0.00  0.00    -0.027 A 
ATOM     23  S   UNL     1       2.462  -0.474  -0.915  0.00  0.00    -0.103 S 
ATOM     24  C   UNL     1       0.693  -0.678  -1.037  0.00  0.00    +0.045 A 
ENDBRANCH  19  22
ENDBRANCH  17  19
BRANCH  17  25
ATOM     25  C   UNL     1       3.042   2.941   1.838  0.00  0.00    -0.046 C 
BRANCH  25  26
ATOM     26  C   UNL     1       3.188   2.580   3.318  0.00  0.00    +0.102 C 
ATOM     27  C   UNL     1       2.042   3.209   4.141  0.00  0.00    +0.032 C 
ATOM     28  C   UNL     1       2.715   3.624   5.468  0.00  0.00    +0.030 C 
ATOM     29  C   UNL     1       4.189   3.197   5.290  0.00  0.00    +0.160 C 
ATOM     30  O   UNL     1       4.394   3.162   3.861  0.00  0.00    -0.378 OA
ENDBRANCH  25  26
ENDBRANCH  17  25
ENDBRANCH   1  17
TORSDOF 7
