REMARK  Name = ZINC06442436
REMARK  7 active torsions:
REMARK  status: ('A' for Active; 'I' for Inactive)
REMARK    1  A    between atoms: C_1  and  C_2
REMARK    2  A    between atoms: C_7  and  C_15
REMARK    3  A    between atoms: C_13  and  C_14
REMARK    4  A    between atoms: C_15  and  C_17
REMARK    5  A    between atoms: C_15  and  N_68
REMARK    6  A    between atoms: N_21  and  C_22
REMARK    7  A    between atoms: C_29  and  C_32
REMARK                            x       y       z     vdW  Elec       q    Type
REMARK                         _______ _______ _______ _____ _____    ______ ____
ROOT
ATOM      1  C   UNL     1       2.466   1.063  -0.015  0.00  0.00    +0.039 C 
ENDROOT
BRANCH   1   8
ATOM      2  C   UNL     1      -3.326   6.236   1.805  0.00  0.00    +0.044 C 
ATOM      3  C   UNL     1      -2.138   5.319   1.667  0.00  0.00    -0.046 A 
ATOM      4  C   UNL     1      -1.192   5.262   2.681  0.00  0.00    +0.004 A 
ATOM      5  C   UNL     1      -0.108   4.438   2.576  0.00  0.00    +0.010 A 
ATOM      6  C   UNL     1       0.050   3.643   1.435  0.00  0.00    -0.001 A 
ATOM      7  C   UNL     1       1.200   2.748   1.290  0.00  0.00    +0.017 A 
ATOM      8  C   UNL     1       1.298   1.998   0.165  0.00  0.00    +0.011 A 
ATOM      9  C   UNL     1       0.311   2.090  -0.840  0.00  0.00    +0.251 A 
ATOM     10  O   UNL     1       0.418   1.407  -1.843  0.00  0.00    -0.268 OA
ATOM     11  N   UNL     1      -0.746   2.913  -0.717  0.00  0.00    -0.322 N 
ATOM     12  H   UNL     1      -1.407   2.951  -1.426  0.00  0.00    +0.169 HD
ATOM     13  C   UNL     1      -0.904   3.701   0.403  0.00  0.00    +0.052 A 
ATOM     14  C   UNL     1      -1.998   4.552   0.531  0.00  0.00    -0.024 A 
ATOM     15  C   UNL     1      -3.033   4.623  -0.563  0.00  0.00    +0.046 C 
ENDBRANCH   1   8
BRANCH   1  21
ATOM     16  C   UNL     1       4.464   0.667  -1.330  0.00  0.00    -0.072 C 
ATOM     17  C   UNL     1       5.036   0.864  -2.736  0.00  0.00    +0.017 C 
ATOM     18  C   UNL     1       5.072   2.330  -3.068  0.00  0.00    -0.048 C 
ATOM     19  C   UNL     1       4.388   3.228  -2.394  0.00  0.00    -0.041 C 
ATOM     20  C   UNL     1       3.510   2.881  -1.226  0.00  0.00    -0.049 C 
ATOM     21  N   UNL     1       3.207   1.438  -1.241  0.00  0.00    +0.392 N 
ATOM     22  H   UNL     1       2.625   1.226  -2.060  0.00  0.00    -0.080 HD
BRANCH  18  23
ATOM     23  C   UNL     1       5.912   2.780  -4.197  0.00  0.00    -0.022 A 
ATOM     24  C   UNL     1       5.613   2.374  -5.498  0.00  0.00    +0.011 A 
ATOM     25  C   UNL     1       6.397   2.802  -6.549  0.00  0.00    +0.039 A 
ATOM     26  C   UNL     1       7.487   3.624  -6.314  0.00  0.00    +0.123 A 
ATOM     27  C   UNL     1       7.792   4.026  -5.023  0.00  0.00    +0.039 A 
ATOM     28  C   UNL     1       7.011   3.609  -3.966  0.00  0.00    +0.011 A 
ATOM     29  F   UNL     1       8.255   4.036  -7.346  0.00  0.00    -0.205 F 
ENDBRANCH  18  23
ENDBRANCH   1  21
BRANCH   1  30
ATOM     30  C   UNL     1       3.370   1.151   1.188  0.00  0.00    +0.143 A 
ATOM     31  N   UNL     1       4.203   2.122   1.472  0.00  0.00    -0.115 NA
ATOM     32  N   UNL     1       4.790   1.832   2.581  0.00  0.00    -0.023 NA
ATOM     33  N   UNL     1       4.359   0.697   3.009  0.00  0.00    -0.044 NA
ATOM     34  N   UNL     1       3.482   0.245   2.177  0.00  0.00    -0.227 N 
BRANCH  34  35
ATOM     35  C   UNL     1       2.746  -1.017   2.289  0.00  0.00    +0.111 C 
ATOM     36  C   UNL     1       1.958  -1.054   3.614  0.00  0.00    +0.027 C 
ATOM     37  C   UNL     1       2.060  -2.530   4.075  0.00  0.00    +0.002 C 
ATOM     38  C   UNL     1       3.507  -2.914   3.677  0.00  0.00    +0.002 C 
ATOM     39  C   UNL     1       3.730  -2.199   2.328  0.00  0.00    +0.027 C 
ENDBRANCH  34  35
ENDBRANCH   1  30
TORSDOF 5
