REMARK  Name = ZINC48694539
REMARK  6 active torsions:
REMARK  status: ('A' for Active; 'I' for Inactive)
REMARK    1  A    between atoms: C_1  and  C_2
REMARK    2  A    between atoms: C_7  and  N_12
REMARK    3  A    between atoms: C_9  and  C_11
REMARK    4  A    between atoms: N_12  and  C_13
REMARK    5  A    between atoms: C_13  and  C_14
REMARK    6  A    between atoms: N_18  and  C_19
REMARK                            x       y       z     vdW  Elec       q    Type
REMARK                         _______ _______ _______ _____ _____    ______ ____
ROOT
ATOM      1  C   UNL     1       1.379  -4.050   2.462  0.00  0.00    -0.003 C 
ENDROOT
BRANCH   1   2
ATOM      2  C   UNL     1       2.216  -4.525   3.622  0.00  0.00    +0.140 A 
ATOM      3  N   UNL     1       3.503  -4.755   3.606  0.00  0.00    -0.115 NA
ATOM      4  N   UNL     1       3.906  -5.149   4.760  0.00  0.00    -0.023 NA
ATOM      5  N   UNL     1       2.917  -5.197   5.585  0.00  0.00    -0.039 NA
ATOM      6  N   UNL     1       1.777  -4.786   4.872  0.00  0.00    -0.199 N 
BRANCH   6   7
ATOM      7  C   UNL     1       0.465  -4.674   5.355  0.00  0.00    +0.069 A 
ATOM      8  C   UNL     1      -0.598  -5.145   4.596  0.00  0.00    +0.028 A 
ATOM      9  C   UNL     1      -1.889  -5.033   5.074  0.00  0.00    +0.002 A 
ATOM     10  C   UNL     1      -2.124  -4.452   6.306  0.00  0.00    +0.000 A 
ATOM     11  C   UNL     1      -1.067  -3.981   7.064  0.00  0.00    +0.002 A 
ATOM     12  C   UNL     1       0.227  -4.096   6.594  0.00  0.00    +0.028 A 
ENDBRANCH   6   7
ENDBRANCH   1   2
BRANCH   1  13
ATOM     13  N   UNL     1       1.460  -2.587   2.366  0.00  0.00    +0.386 N 
ATOM     14  H   UNL     1       2.405  -2.316   2.136  0.00  0.00    -0.085 HD
ATOM     15  H   UNL     1       1.199  -2.177   3.250  0.00  0.00    -0.085 HD
BRANCH  13  21
ATOM     16  C   UNL     1      -0.424   1.440   0.196  0.00  0.00    +0.008 C 
ATOM     17  C   UNL     1      -0.415  -0.090   0.211  0.00  0.00    -0.013 C 
ATOM     18  C   UNL     1       0.055  -0.611  -1.149  0.00  0.00    +0.003 C 
ATOM     19  C   UNL     1       0.064  -2.141  -1.133  0.00  0.00    -0.001 C 
ATOM     20  C   UNL     1       1.016  -2.634  -0.042  0.00  0.00    -0.015 C 
ATOM     21  C   UNL     1       0.546  -2.113   1.318  0.00  0.00    -0.068 C 
ATOM     22  C   UNL     1       0.537  -0.583   1.302  0.00  0.00    -0.025 C 
ATOM     23  C   UNL     1       0.067  -0.062   2.662  0.00  0.00    +0.006 C 
ENDBRANCH  13  21
ENDBRANCH   1  13
TORSDOF 4
