REMARK  Name = ZINC00071901
REMARK  5 active torsions:
REMARK  status: ('A' for Active; 'I' for Inactive)
REMARK    1  A    between atoms: C_1  and  C_2
REMARK    2  A    between atoms: C_3  and  C_12
REMARK    3  A    between atoms: N_13  and  N_14
REMARK    4  A    between atoms: C_15  and  C_17
REMARK    5  A    between atoms: C_19  and  C_23
REMARK                            x       y       z     vdW  Elec       q    Type
REMARK                         _______ _______ _______ _____ _____    ______ ____
ROOT
ATOM      1  N   UNL     1      -0.016   1.344   0.009  0.00  0.00    -0.202 N 
ATOM      2  C   UNL     1       0.002  -0.004   0.002  0.00  0.00    +0.281 C 
ATOM      3  O   UNL     1      -1.043  -0.627   0.009  0.00  0.00    -0.267 OA
ATOM      4  H   UNL     1       0.817   1.840   0.004  0.00  0.00    +0.178 HD
ENDROOT
BRANCH   2   5
ATOM      5  C   UNL     1       1.286  -0.722  -0.014  0.00  0.00    +0.122 A 
ATOM      6  C   UNL     1       1.467  -2.092  -0.023  0.00  0.00    +0.065 A 
ATOM      7  C   UNL     1       2.863  -2.282  -0.037  0.00  0.00    +0.128 A 
ATOM      8  N   UNL     1       3.426  -1.090  -0.036  0.00  0.00    -0.170 NA
ATOM      9  N   UNL     1       2.535  -0.166  -0.029  0.00  0.00    -0.272 N 
ATOM     10  H   UNL     1       2.725   0.816  -0.033  0.00  0.00    +0.189 HD
BRANCH   7  11
ATOM     11  C   UNL     1       3.568  -3.582  -0.052  0.00  0.00    +0.155 A 
ATOM     12  C   UNL     1       4.916  -3.758  -0.071  0.00  0.00    +0.051 A 
ATOM     13  C   UNL     1       5.144  -5.149  -0.076  0.00  0.00    +0.042 A 
ATOM     14  C   UNL     1       3.937  -5.747  -0.069  0.00  0.00    +0.196 A 
ATOM     15  O   UNL     1       2.987  -4.797  -0.054  0.00  0.00    -0.461 OA
ENDBRANCH   7  11
ENDBRANCH   2   5
BRANCH   1  17
ATOM     16  C   UNL     1      -1.256   3.327   0.026  0.00  0.00    +0.140 C 
ATOM     17  N   UNL     1      -1.239   2.027   0.019  0.00  0.00    -0.187 NA
BRANCH  16  20
ATOM     18  C   UNL     1      -4.073   2.011   0.019  0.00  0.00    +0.064 C 
ATOM     19  C   UNL     1      -3.783   3.490   0.033  0.00  0.00    +0.023 A 
ATOM     20  C   UNL     1      -2.541   4.045   0.036  0.00  0.00    +0.023 A 
ATOM     21  C   UNL     1      -2.733   5.506   0.045  0.00  0.00    +0.009 A 
ATOM     22  C   UNL     1      -1.864   6.596   0.048  0.00  0.00    +0.010 A 
ATOM     23  C   UNL     1      -2.374   7.875   0.058  0.00  0.00    +0.001 A 
ATOM     24  C   UNL     1      -3.747   8.082   0.064  0.00  0.00    +0.002 A 
ATOM     25  C   UNL     1      -4.617   7.014   0.062  0.00  0.00    +0.026 A 
ATOM     26  C   UNL     1      -4.122   5.714   0.052  0.00  0.00    +0.047 A 
ATOM     27  N   UNL     1      -4.726   4.475   0.048  0.00  0.00    -0.358 N 
ATOM     28  H   UNL     1      -5.684   4.325   0.051  0.00  0.00    +0.166 HD
ENDBRANCH  16  20
ENDBRANCH   1  17
TORSDOF 4
