REMARK  Name = ZINC67273500
REMARK  8 active torsions:
REMARK  status: ('A' for Active; 'I' for Inactive)
REMARK    1  A    between atoms: C_1  and  C_2
REMARK    2  A    between atoms: C_2  and  C_3
REMARK    3  A    between atoms: C_3  and  N_4
REMARK    4  A    between atoms: C_5  and  C_7
REMARK    5  A    between atoms: C_7  and  N_13
REMARK    6  A    between atoms: C_14  and  C_16
REMARK    7  A    between atoms: C_17  and  C_27
REMARK    8  A    between atoms: C_19  and  C_21
REMARK                            x       y       z     vdW  Elec       q    Type
REMARK                         _______ _______ _______ _____ _____    ______ ____
ROOT
ATOM      1  N   UNL     1       0.055  -4.579  -1.608  0.00  0.00    -0.297 N 
ATOM      2  C   UNL     1      -0.362  -4.091  -0.423  0.00  0.00    +0.253 C 
ATOM      3  O   UNL     1       0.356  -3.343   0.214  0.00  0.00    -0.270 OA
ATOM      4  H   UNL     1      -0.485  -5.231  -2.081  0.00  0.00    +0.150 HD
ENDROOT
BRANCH   1   5
ATOM      5  C   UNL     1       1.325  -4.126  -2.180  0.00  0.00    +0.111 C 
ATOM      6  C   UNL     1       2.478  -4.568  -1.277  0.00  0.00    +0.035 C 
ATOM      7  C   UNL     1       2.484  -6.094  -1.167  0.00  0.00    +0.003 C 
ATOM      8  C   UNL     1       2.663  -6.705  -2.559  0.00  0.00    +0.000 C 
ATOM      9  C   UNL     1       1.510  -6.263  -3.462  0.00  0.00    +0.003 C 
ATOM     10  C   UNL     1       1.504  -4.737  -3.572  0.00  0.00    +0.035 C 
BRANCH   5  12
ATOM     11  N   UNL     1       0.179  -1.974  -2.596  0.00  0.00    -0.314 N 
ATOM     12  C   UNL     1       1.319  -2.623  -2.289  0.00  0.00    +0.237 C 
ATOM     13  O   UNL     1       2.341  -1.998  -2.099  0.00  0.00    -0.273 OA
ATOM     14  H   UNL     1      -0.620  -2.477  -2.819  0.00  0.00    +0.149 HD
BRANCH  11  15
ATOM     15  C   UNL     1       0.146  -0.509  -2.594  0.00  0.00    +0.104 C 
BRANCH  15  17
ATOM     16  C   UNL     1      -1.290   1.500  -2.972  0.00  0.00    +0.005 C 
ATOM     17  C   UNL     1      -1.256  -0.030  -2.975  0.00  0.00    +0.015 C 
ENDBRANCH  15  17
ENDBRANCH  11  15
ENDBRANCH   5  12
ENDBRANCH   1   5
BRANCH   2  18
ATOM     18  C   UNL     1      -1.682  -4.460   0.098  0.00  0.00    +0.097 A 
ATOM     19  C   UNL     1      -2.310  -4.076   1.276  0.00  0.00    +0.058 A 
ATOM     20  N   UNL     1      -3.503  -4.567   1.485  0.00  0.00    -0.240 NA
ATOM     21  C   UNL     1      -4.075  -5.385   0.618  0.00  0.00    +0.148 A 
ATOM     22  S   UNL     1      -2.932  -5.521  -0.610  0.00  0.00    -0.059 S 
ATOM     23  C   UNL     1      -1.651  -3.144   2.260  0.00  0.00    +0.067 C 
BRANCH  21  24
ATOM     24  C   UNL     1      -5.406  -6.022   0.703  0.00  0.00    +0.206 A 
ATOM     25  N   UNL     1      -6.283  -5.872   1.707  0.00  0.00    -0.213 NA
ATOM     26  H   UNL     1      -7.832  -7.790  -0.152  0.00  0.00    +0.190 HD
ATOM     27  C   UNL     1      -7.357  -6.573   1.464  0.00  0.00    +0.216 A 
ATOM     28  N   UNL     1      -7.197  -7.200   0.283  0.00  0.00    -0.265 N 
ATOM     29  N   UNL     1      -5.931  -6.828  -0.198  0.00  0.00    -0.150 NA
ENDBRANCH  21  24
ENDBRANCH   2  18
TORSDOF 6
