REMARK  Name = ZINC39443563
REMARK  7 active torsions:
REMARK  status: ('A' for Active; 'I' for Inactive)
REMARK    1  A    between atoms: C_1  and  C_2
REMARK    2  A    between atoms: C_2  and  C_3
REMARK    3  A    between atoms: C_2  and  C_4
REMARK    4  A    between atoms: C_4  and  C_6
REMARK    5  A    between atoms: C_4  and  O_12
REMARK    6  A    between atoms: O_12  and  C_13
REMARK    7  A    between atoms: C_13  and  C_15
REMARK                            x       y       z     vdW  Elec       q    Type
REMARK                         _______ _______ _______ _____ _____    ______ ____
ROOT
ATOM      1  C   UNL     1      -2.685   0.910  -1.389  0.00  0.00    +0.340 C 
ATOM      2  O   UNL     1      -2.772   1.639  -0.420  0.00  0.00    -0.245 OA
ENDROOT
BRANCH   1   3
ATOM      3  C   UNL     1      -3.321   1.295  -2.660  0.00  0.00    +0.060 A 
ATOM      4  C   UNL     1      -3.213   0.406  -3.812  0.00  0.00    +0.017 A 
ATOM      5  C   UNL     1      -3.777   0.725  -4.995  0.00  0.00    +0.027 A 
ATOM      6  C   UNL     1      -4.514   1.985  -5.135  0.00  0.00    +0.043 A 
ATOM      7  N   UNL     1      -5.157   2.498  -6.160  0.00  0.00    -0.378 N 
ATOM      8  C   UNL     1      -5.650   3.820  -5.784  0.00  0.00    +0.106 C 
ATOM      9  C   UNL     1      -7.165   3.947  -5.961  0.00  0.00    +0.029 C 
ATOM     10  C   UNL     1      -7.627   5.241  -5.282  0.00  0.00    +0.003 C 
ATOM     11  C   UNL     1      -7.414   5.178  -3.771  0.00  0.00    +0.004 C 
ATOM     12  C   UNL     1      -5.911   5.075  -3.457  0.00  0.00    +0.033 C 
ATOM     13  C   UNL     1      -5.349   3.956  -4.302  0.00  0.00    -0.038 C 
ATOM     14  C   UNL     1      -4.626   2.876  -3.955  0.00  0.00    -0.000 A 
ATOM     15  C   UNL     1      -4.010   2.483  -2.737  0.00  0.00    +0.025 A 
ATOM     16  H   UNL     1      -5.282   2.071  -7.022  0.00  0.00    +0.160 HD
ENDBRANCH   1   3
BRANCH   1  17
ATOM     17  O   UNL     1      -2.007  -0.252  -1.299  0.00  0.00    -0.448 OA
BRANCH  17  18
ATOM     18  C   UNL     1      -1.416  -0.562  -0.035  0.00  0.00    +0.265 C 
BRANCH  18  19
ATOM     19  C   UNL     1      -1.368  -2.057   0.144  0.00  0.00    +0.261 C 
ATOM     20  O   UNL     1      -1.697  -2.787  -0.767  0.00  0.00    -0.271 OA
ATOM     21  N   UNL     1      -0.961  -2.583   1.316  0.00  0.00    -0.237 N 
ATOM     22  C   UNL     1      -1.015  -3.915   1.512  0.00  0.00    +0.303 C 
ATOM     23  O   UNL     1      -1.431  -4.643   0.632  0.00  0.00    -0.253 OA
ATOM     24  N   UNL     1      -0.607  -4.441   2.684  0.00  0.00    -0.313 N 
ATOM     25  H   UNL     1      -0.628  -2.003   2.018  0.00  0.00    +0.159 HD
ATOM     26  H   UNL     1      -0.275  -3.861   3.386  0.00  0.00    +0.146 HD
ATOM     27  H   UNL     1      -0.646  -5.400   2.825  0.00  0.00    +0.146 HD
ENDBRANCH  18  19
BRANCH  18  29
ATOM     28  C   UNL     1       0.801  -0.510  -1.186  0.00  0.00    +0.011 C 
ATOM     29  C   UNL     1       0.005   0.004   0.016  0.00  0.00    +0.033 C 
ATOM     30  C   UNL     1      -0.052   1.532  -0.026  0.00  0.00    +0.011 C 
ENDBRANCH  18  29
ENDBRANCH  17  18
ENDBRANCH   1  17
TORSDOF 5
