REMARK  Name = ZINC00971272
REMARK  3 active torsions:
REMARK  status: ('A' for Active; 'I' for Inactive)
REMARK    1  A    between atoms: N_21  and  N_24
REMARK    2  A    between atoms: C_25  and  C_27
REMARK    3  A    between atoms: C_31  and  N_33
REMARK                            x       y       z     vdW  Elec       q    Type
REMARK                         _______ _______ _______ _____ _____    ______ ____
ROOT
ATOM      1  C   UNL     1       9.897   2.012  -1.373  0.00  0.00    +0.000 A 
ATOM      2  C   UNL     1       9.443   2.453  -2.602  0.00  0.00    +0.000 A 
ATOM      3  C   UNL     1       8.682   3.607  -2.708  0.00  0.00    +0.004 A 
ATOM      4  C   UNL     1       8.376   4.314  -1.572  0.00  0.00    -0.035 A 
ATOM      5  C   UNL     1       8.802   3.838  -0.315  0.00  0.00    -0.035 A 
ATOM      6  C   UNL     1       9.577   2.731  -0.184  0.00  0.00    +0.004 A 
ATOM      7  C   UNL     1       8.280   4.696   0.857  0.00  0.00    +0.062 C 
ATOM      8  C   UNL     1       8.824   6.090   0.521  0.00  0.00    -0.035 A 
ATOM      9  C   UNL     1       9.592   6.840   1.369  0.00  0.00    +0.004 A 
ATOM     10  C   UNL     1      10.099   8.051   0.920  0.00  0.00    +0.000 A 
ATOM     11  C   UNL     1       9.832   8.495  -0.362  0.00  0.00    +0.000 A 
ATOM     12  C   UNL     1       9.039   7.738  -1.216  0.00  0.00    +0.004 A 
ATOM     13  C   UNL     1       8.537   6.555  -0.763  0.00  0.00    -0.035 A 
ATOM     14  C   UNL     1       7.625   5.623  -1.565  0.00  0.00    +0.062 C 
ATOM     15  C   UNL     1       6.387   5.577  -0.650  0.00  0.00    +0.102 C 
ATOM     16  C   UNL     1       6.839   4.659   0.520  0.00  0.00    +0.102 C 
ATOM     17  C   UNL     1       5.609   4.132   1.082  0.00  0.00    +0.243 C 
ATOM     18  O   UNL     1       5.357   3.869   2.239  0.00  0.00    -0.273 OA
ATOM     19  N   UNL     1       4.800   4.005  -0.024  0.00  0.00    -0.155 N 
ATOM     20  C   UNL     1       5.278   4.643  -1.129  0.00  0.00    +0.243 C 
ATOM     21  O   UNL     1       4.896   4.498  -2.270  0.00  0.00    -0.273 OA
ENDROOT
BRANCH  19  22
ATOM     22  N   UNL     1       3.599   3.284  -0.016  0.00  0.00    -0.221 N 
ATOM     23  C   UNL     1       2.420   3.937  -0.001  0.00  0.00    +0.261 C 
ATOM     24  O   UNL     1       2.399   5.153   0.005  0.00  0.00    -0.269 OA
ATOM     25  H   UNL     1       3.615   2.314  -0.021  0.00  0.00    +0.174 HD
BRANCH  23  26
ATOM     26  C   UNL     1       1.153   3.176   0.008  0.00  0.00    +0.040 A 
ATOM     27  C   UNL     1       1.173   1.780   0.000  0.00  0.00    +0.013 A 
ATOM     28  C   UNL     1      -0.013   1.076   0.008  0.00  0.00    +0.003 A 
ATOM     29  C   UNL     1      -1.221   1.750   0.017  0.00  0.00    +0.033 A 
ATOM     30  C   UNL     1      -1.249   3.133   0.030  0.00  0.00    +0.127 A 
ATOM     31  C   UNL     1      -0.070   3.849   0.022  0.00  0.00    +0.045 A 
BRANCH  30  32
ATOM     32  N   UNL     1      -2.546   3.846   0.045  0.00  0.00    +0.056 N 
ATOM     33  O   UNL     1      -2.572   5.063   0.051  0.00  0.00    -0.126 OA
ATOM     34  O   UNL     1      -3.587   3.214   0.052  0.00  0.00    -0.126 OA
ENDBRANCH  30  32
ENDBRANCH  23  26
ENDBRANCH  19  22
TORSDOF 3
