REMARK  Name = ZINC66410009
REMARK  8 active torsions:
REMARK  status: ('A' for Active; 'I' for Inactive)
REMARK    1  A    between atoms: C_1  and  C_2
REMARK    2  A    between atoms: C_6  and  N_9
REMARK    3  A    between atoms: C_7  and  C_8
REMARK    4  A    between atoms: N_9  and  C_10
REMARK    5  A    between atoms: C_10  and  N_12
REMARK    6  A    between atoms: N_12  and  N_13
REMARK    7  A    between atoms: C_14  and  C_16
REMARK    8  A    between atoms: C_19  and  C_26
REMARK                            x       y       z     vdW  Elec       q    Type
REMARK                         _______ _______ _______ _____ _____    ______ ____
ROOT
ATOM      1  N   UNL     1      -0.121  -4.123   4.764  0.00  0.00    -0.231 N 
ATOM      2  C   UNL     1      -0.207  -4.799   5.927  0.00  0.00    +0.262 C 
ATOM      3  O   UNL     1      -0.282  -6.012   5.920  0.00  0.00    -0.269 OA
ATOM      4  H   UNL     1      -0.061  -3.155   4.769  0.00  0.00    +0.173 HD
ENDROOT
BRANCH   2   5
ATOM      5  C   UNL     1      -0.211  -4.066   7.209  0.00  0.00    +0.057 A 
ATOM      6  C   UNL     1      -0.295  -4.758   8.418  0.00  0.00    +0.028 A 
ATOM      7  C   UNL     1      -0.294  -4.013   9.599  0.00  0.00    +0.042 A 
ATOM      8  C   UNL     1      -0.365  -4.356  11.016  0.00  0.00    +0.069 A 
ATOM      9  N   UNL     1      -0.325  -3.244  11.692  0.00  0.00    -0.177 NA
ATOM     10  N   UNL     1      -0.230  -2.154  10.821  0.00  0.00    -0.260 N 
ATOM     11  H   UNL     1      -0.185  -1.223  11.090  0.00  0.00    +0.191 HD
ATOM     12  C   UNL     1      -0.209  -2.606   9.532  0.00  0.00    +0.156 A 
ATOM     13  N   UNL     1      -0.132  -1.996   8.354  0.00  0.00    -0.235 NA
ATOM     14  C   UNL     1      -0.125  -2.667   7.226  0.00  0.00    +0.126 A 
ATOM     15  C   UNL     1      -0.467  -5.745  11.592  0.00  0.00    +0.068 C 
ENDBRANCH   2   5
BRANCH   1  16
ATOM     16  N   UNL     1      -0.117  -4.819   3.548  0.00  0.00    -0.245 N 
ATOM     17  H   UNL     1      -0.177  -5.787   3.543  0.00  0.00    +0.172 HD
BRANCH  16  18
ATOM     18  C   UNL     1      -0.031  -4.143   2.385  0.00  0.00    +0.151 C 
ATOM     19  S   UNL     1      -0.026  -4.992   0.899  0.00  0.00    -0.017 S 
BRANCH  18  20
ATOM     20  N   UNL     1       0.052  -2.797   2.392  0.00  0.00    -0.296 N 
ATOM     21  H   UNL     1       0.130  -2.321   3.233  0.00  0.00    +0.154 HD
BRANCH  20  27
ATOM     22  C   UNL     1       1.865   0.777  -0.455  0.00  0.00    +0.044 C 
ATOM     23  C   UNL     1       0.894  -0.351  -0.220  0.00  0.00    -0.046 A 
ATOM     24  C   UNL     1      -0.025  -0.686  -1.198  0.00  0.00    +0.004 A 
ATOM     25  C   UNL     1      -0.917  -1.721  -0.987  0.00  0.00    +0.002 A 
ATOM     26  C   UNL     1      -0.894  -2.423   0.203  0.00  0.00    +0.023 A 
ATOM     27  C   UNL     1       0.027  -2.088   1.187  0.00  0.00    +0.036 A 
ATOM     28  C   UNL     1       0.926  -1.052   0.969  0.00  0.00    -0.026 A 
ATOM     29  C   UNL     1       1.931  -0.690   2.032  0.00  0.00    +0.046 C 
ENDBRANCH  20  27
ENDBRANCH  18  20
ENDBRANCH  16  18
ENDBRANCH   1  16
TORSDOF 5
