REMARK  Name = ZINC20717315
REMARK  5 active torsions:
REMARK  status: ('A' for Active; 'I' for Inactive)
REMARK    1  A    between atoms: C_1  and  C_2
REMARK    2  A    between atoms: C_2  and  C_3
REMARK    3  A    between atoms: C_2  and  O_4
REMARK    4  A    between atoms: O_4  and  C_5
REMARK    5  A    between atoms: C_10  and  C_11
REMARK                            x       y       z     vdW  Elec       q    Type
REMARK                         _______ _______ _______ _____ _____    ______ ____
ROOT
ATOM      1  C   UNL     1      -4.018  -1.376  -0.162  0.00  0.00    +0.115 C 
ATOM      2  C   UNL     1      -4.104  -1.780   1.276  0.00  0.00    +0.029 A 
ATOM      3  C   UNL     1      -3.022  -2.250   1.964  0.00  0.00    +0.111 A 
ATOM      4  N   UNL     1      -3.412  -2.526   3.220  0.00  0.00    -0.283 N 
ATOM      5  H   UNL     1      -2.849  -2.875   3.929  0.00  0.00    +0.188 HD
ATOM      6  N   UNL     1      -4.769  -2.222   3.323  0.00  0.00    -0.158 NA
ATOM      7  C   UNL     1      -5.193  -1.768   2.147  0.00  0.00    +0.151 A 
ATOM      8  N   UNL     1      -6.508  -1.386   1.962  0.00  0.00    -0.268 N 
ATOM      9  C   UNL     1      -7.196  -0.956   0.947  0.00  0.00    +0.228 C 
ATOM     10  O   UNL     1      -8.382  -0.818   1.161  0.00  0.00    -0.275 OA
ATOM     11  C   UNL     1      -6.772  -0.609  -0.424  0.00  0.00    +0.166 C 
ATOM     12  S   UNL     1      -5.521  -1.719  -1.081  0.00  0.00    -0.138 S 
ATOM     13  H   UNL     1      -7.036  -1.453   2.773  0.00  0.00    +0.156 HD
ENDROOT
BRANCH   1  19
ATOM     14  C   UNL     1      -1.580  -1.639  -0.686  0.00  0.00    +0.125 A 
ATOM     15  C   UNL     1      -0.530  -2.329  -1.276  0.00  0.00    +0.046 A 
ATOM     16  C   UNL     1      -0.779  -3.488  -1.985  0.00  0.00    +0.004 A 
ATOM     17  C   UNL     1      -2.072  -3.961  -2.107  0.00  0.00    +0.001 A 
ATOM     18  C   UNL     1      -3.120  -3.276  -1.521  0.00  0.00    +0.008 A 
ATOM     19  C   UNL     1      -2.876  -2.119  -0.806  0.00  0.00    +0.012 A 
BRANCH  14  20
ATOM     20  O   UNL     1      -1.339  -0.499   0.012  0.00  0.00    -0.489 OA
BRANCH  20  22
ATOM     21  C   UNL     1      -0.011   1.505   0.263  0.00  0.00    +0.051 C 
ATOM     22  C   UNL     1       0.001  -0.002  -0.000  0.00  0.00    +0.167 C 
ATOM     23  C   UNL     1       0.815  -0.703   1.089  0.00  0.00    +0.051 C 
ENDBRANCH  20  22
ENDBRANCH  14  20
ENDBRANCH   1  19
TORSDOF 3
