REMARK  Name = ZINC19171568
REMARK  6 active torsions:
REMARK  status: ('A' for Active; 'I' for Inactive)
REMARK    1  A    between atoms: C_4  and  N_24
REMARK    2  A    between atoms: C_5  and  N_7
REMARK    3  A    between atoms: N_7  and  N_8
REMARK    4  A    between atoms: C_9  and  C_11
REMARK    5  A    between atoms: C_12  and  C_13
REMARK    6  A    between atoms: C_16  and  N_19
REMARK                            x       y       z     vdW  Elec       q    Type
REMARK                         _______ _______ _______ _____ _____    ______ ____
ROOT
ATOM      1  N   UNL     1      -0.138  -2.675   0.637  0.00  0.00    -0.233 N 
ATOM      2  C   UNL     1      -0.184  -4.002   0.869  0.00  0.00    +0.253 C 
ATOM      3  O   UNL     1       0.848  -4.644   0.936  0.00  0.00    -0.269 OA
ATOM      4  H   UNL     1      -0.960  -2.163   0.584  0.00  0.00    +0.173 HD
ENDROOT
BRANCH   1   5
ATOM      5  N   UNL     1       1.098  -2.035   0.473  0.00  0.00    -0.262 N 
ATOM      6  H   UNL     1       1.920  -2.546   0.526  0.00  0.00    +0.170 HD
BRANCH   5  11
ATOM      7  C   UNL     1       0.030   1.454   0.031  0.00  0.00    +0.002 A 
ATOM      8  C   UNL     1       1.240   2.065  -0.243  0.00  0.00    +0.002 A 
ATOM      9  C   UNL     1       2.403   1.317  -0.280  0.00  0.00    +0.034 A 
ATOM     10  C   UNL     1       2.359  -0.043  -0.043  0.00  0.00    +0.148 A 
ATOM     11  C   UNL     1       1.145  -0.659   0.233  0.00  0.00    +0.075 A 
ATOM     12  C   UNL     1      -0.021   0.095   0.269  0.00  0.00    +0.027 A 
BRANCH  10  13
ATOM     13  N   UNL     1       3.604  -0.842  -0.084  0.00  0.00    +0.058 N 
ATOM     14  O   UNL     1       4.637  -0.375   0.338  0.00  0.00    -0.126 OA
ATOM     15  O   UNL     1       3.589  -1.963  -0.538  0.00  0.00    -0.126 OA
ENDBRANCH  10  13
ENDBRANCH   5  11
ENDBRANCH   1   5
BRANCH   2  16
ATOM     16  C   UNL     1      -1.474  -4.670   1.040  0.00  0.00    +0.069 C 
ATOM     17  C   UNL     1      -1.520  -5.998   1.272  0.00  0.00    +0.013 C 
BRANCH  17  18
ATOM     18  C   UNL     1      -2.817  -6.670   1.444  0.00  0.00    -0.025 A 
ATOM     19  C   UNL     1      -4.005  -5.935   1.361  0.00  0.00    +0.010 A 
ATOM     20  C   UNL     1      -5.216  -6.568   1.523  0.00  0.00    +0.027 A 
ATOM     21  C   UNL     1      -5.261  -7.936   1.768  0.00  0.00    +0.047 A 
ATOM     22  C   UNL     1      -4.083  -8.671   1.851  0.00  0.00    +0.027 A 
ATOM     23  C   UNL     1      -2.867  -8.048   1.684  0.00  0.00    +0.010 A 
BRANCH  21  24
ATOM     24  N   UNL     1      -6.495  -8.575   1.931  0.00  0.00    -0.306 N 
ATOM     25  C   UNL     1      -6.695  -9.909   2.182  0.00  0.00    +0.112 A 
ATOM     26  C   UNL     1      -8.026 -10.094   2.266  0.00  0.00    +0.130 A 
ATOM     27  N   UNL     1      -8.627  -8.910   2.074  0.00  0.00    -0.244 NA
ATOM     28  C   UNL     1      -7.721  -7.991   1.878  0.00  0.00    +0.204 A 
ENDBRANCH  21  24
ENDBRANCH  17  18
ENDBRANCH   2  16
TORSDOF 6
