REMARK  Name = ZINC57939649
REMARK  5 active torsions:
REMARK  status: ('A' for Active; 'I' for Inactive)
REMARK    1  A    between atoms: C_1  and  C_2
REMARK    2  A    between atoms: C_2  and  C_3
REMARK    3  A    between atoms: C_2  and  C_4
REMARK    4  A    between atoms: C_9  and  O_10
REMARK    5  A    between atoms: O_10  and  C_11
REMARK                            x       y       z     vdW  Elec       q    Type
REMARK                         _______ _______ _______ _____ _____    ______ ____
ROOT
ATOM      1  C   UNL     1      -1.412  -0.526   0.013  0.00  0.00    -0.003 A 
ATOM      2  C   UNL     1      -2.259  -0.203   1.058  0.00  0.00    +0.013 A 
ATOM      3  C   UNL     1      -3.550  -0.689   1.068  0.00  0.00    -0.026 A 
ATOM      4  C   UNL     1      -3.999  -1.510   0.047  0.00  0.00    +0.034 A 
ATOM      5  C   UNL     1      -3.158  -1.821  -1.012  0.00  0.00    +0.069 A 
ATOM      6  C   UNL     1      -1.863  -1.324  -1.029  0.00  0.00    +0.125 A 
ATOM      7  N   UNL     1      -5.285  -2.053   0.108  0.00  0.00    -0.344 N 
ATOM      8  C   UNL     1      -5.565  -3.047   1.157  0.00  0.00    +0.101 C 
ATOM      9  C   UNL     1      -5.923  -2.361   2.454  0.00  0.00    +0.019 C 
ATOM     10  C   UNL     1      -4.783  -1.542   3.044  0.00  0.00    +0.006 C 
ATOM     11  C   UNL     1      -4.495  -0.308   2.193  0.00  0.00    +0.037 C 
ATOM     12  H   UNL     1      -5.973  -1.784  -0.521  0.00  0.00    +0.146 HD
ENDROOT
BRANCH   1  14
ATOM     13  C   UNL     1      -0.019   1.526   0.010  0.00  0.00    +0.012 C 
ATOM     14  C   UNL     1       0.002  -0.004   0.002  0.00  0.00    +0.016 C 
ATOM     15  C   UNL     1       0.742  -0.511   1.242  0.00  0.00    +0.012 C 
ENDBRANCH   1  14
BRANCH   6  16
ATOM     16  O   UNL     1      -1.035  -1.623  -2.063  0.00  0.00    -0.495 OA
ATOM     17  C   UNL     1      -1.565  -2.450  -3.101  0.00  0.00    +0.277 C 
ENDBRANCH   6  16
TORSDOF 2
