REMARK  Name = ZINC11936332
REMARK  4 active torsions:
REMARK  status: ('A' for Active; 'I' for Inactive)
REMARK    1  A    between atoms: C_4  and  C_7
REMARK    2  A    between atoms: C_9  and  C_12
REMARK    3  A    between atoms: C_12  and  N_45
REMARK    4  A    between atoms: C_21  and  C_23
REMARK                            x       y       z     vdW  Elec       q    Type
REMARK                         _______ _______ _______ _____ _____    ______ ____
ROOT
ATOM      1  C   UNL     1       3.980   2.124  -0.434  0.00  0.00    -0.070 C 
ATOM      2  C   UNL     1       3.559   0.702  -0.036  0.00  0.00    +0.039 C 
ATOM      3  C   UNL     1       2.050   0.654  -0.016  0.00  0.00    +0.059 A 
ATOM      4  C   UNL     1       1.278   1.765  -0.001  0.00  0.00    +0.031 A 
ATOM      5  N   UNL     1      -0.016   1.350   0.009  0.00  0.00    -0.349 N 
ATOM      6  H   UNL     1      -0.828   1.933   0.021  0.00  0.00    +0.166 HD
ATOM      7  C   UNL     1       0.002  -0.004   0.002  0.00  0.00    +0.196 A 
ATOM      8  N   UNL     1       1.246  -0.408  -0.013  0.00  0.00    -0.241 NA
ATOM      9  C   UNL     1       1.828   3.167   0.007  0.00  0.00    +0.031 C 
ATOM     10  N   UNL     1       3.253   3.094   0.415  0.00  0.00    +0.395 N 
ATOM     11  H   UNL     1       3.303   2.784   1.393  0.00  0.00    -0.080 HD
ENDROOT
BRANCH   9  12
ATOM     12  C   UNL     1       1.073   4.003   1.008  0.00  0.00    +0.034 A 
ATOM     13  C   UNL     1      -0.098   4.631   0.628  0.00  0.00    +0.022 A 
ATOM     14  C   UNL     1      -0.784   5.398   1.556  0.00  0.00    +0.003 A 
ATOM     15  C   UNL     1      -0.265   5.505   2.838  0.00  0.00    +0.020 A 
ATOM     16  C   UNL     1       0.911   4.848   3.144  0.00  0.00    +0.111 A 
ATOM     17  N   UNL     1       1.535   4.123   2.237  0.00  0.00    -0.261 NA
ENDBRANCH   9  12
BRANCH  10  18
ATOM     18  C   UNL     1       3.877   4.429   0.303  0.00  0.00    +0.023 C 
BRANCH  18  21
ATOM     19  C   UNL     1       7.324   4.172   1.288  0.00  0.00    +0.202 A 
ATOM     20  N   UNL     1       6.371   4.096   0.332  0.00  0.00    -0.193 NA
ATOM     21  C   UNL     1       5.244   4.379   0.936  0.00  0.00    +0.211 A 
ATOM     22  O   UNL     1       5.534   4.620   2.218  0.00  0.00    -0.340 OA
ATOM     23  N   UNL     1       6.726   4.494   2.406  0.00  0.00    -0.056 NA
BRANCH  19  27
ATOM     24  C   UNL     1      11.489   3.494   0.761  0.00  0.00    +0.000 A 
ATOM     25  C   UNL     1      10.998   3.829   2.010  0.00  0.00    +0.001 A 
ATOM     26  C   UNL     1       9.648   4.050   2.187  0.00  0.00    +0.012 A 
ATOM     27  C   UNL     1       8.778   3.935   1.104  0.00  0.00    +0.022 A 
ATOM     28  C   UNL     1       9.277   3.592  -0.150  0.00  0.00    +0.012 A 
ATOM     29  C   UNL     1      10.630   3.379  -0.317  0.00  0.00    +0.001 A 
ENDBRANCH  19  27
ENDBRANCH  18  21
ENDBRANCH  10  18
TORSDOF 4
