REMARK  Name = ZINC64450379
REMARK  4 active torsions:
REMARK  status: ('A' for Active; 'I' for Inactive)
REMARK    1  A    between atoms: C_1  and  C_2
REMARK    2  A    between atoms: C_3  and  C_11
REMARK    3  A    between atoms: C_20  and  C_32
REMARK    4  A    between atoms: N_22  and  C_23
REMARK                            x       y       z     vdW  Elec       q    Type
REMARK                         _______ _______ _______ _____ _____    ______ ____
ROOT
ATOM      1  C   UNL     1      -2.284  -0.058  -0.403  0.00  0.00    +0.060 C 
ATOM      2  C   UNL     1      -2.432   0.830  -1.649  0.00  0.00    +0.108 C 
ATOM      3  C   UNL     1      -3.585   1.772  -1.529  0.00  0.00    +0.215 C 
ATOM      4  O   UNL     1      -3.998   2.247  -2.567  0.00  0.00    -0.276 OA
ATOM      5  N   UNL     1      -4.215   2.154  -0.417  0.00  0.00    -0.295 N 
ATOM      6  C   UNL     1      -3.985   1.508   0.869  0.00  0.00    +0.194 C 
ATOM      7  C   UNL     1      -2.634   0.813   0.777  0.00  0.00    -0.008 C 
ATOM      8  C   UNL     1      -1.956   1.154   1.835  0.00  0.00    +0.019 C 
ATOM      9  N   UNL     1      -2.644   2.088   2.595  0.00  0.00    -0.277 N 
ATOM     10  N   UNL     1      -3.843   2.441   1.990  0.00  0.00    -0.164 NA
ATOM     11  C   UNL     1      -0.599   0.604   2.188  0.00  0.00    +0.062 C 
ATOM     12  H   UNL     1      -4.848   2.887  -0.465  0.00  0.00    +0.151 HD
ATOM     13  H   UNL     1      -2.332   2.446   3.441  0.00  0.00    +0.166 HD
ENDROOT
BRANCH  10  14
ATOM     14  C   UNL     1      -4.971   2.321   2.922  0.00  0.00    +0.270 C 
ATOM     15  N   UNL     1      -5.080   0.938   3.405  0.00  0.00    -0.350 N 
ATOM     16  C   UNL     1      -6.247   0.489   3.043  0.00  0.00    +0.061 A 
ATOM     17  C   UNL     1      -6.923  -0.802   3.231  0.00  0.00    +0.027 A 
ATOM     18  C   UNL     1      -8.162  -0.983   2.732  0.00  0.00    +0.002 A 
ATOM     19  C   UNL     1      -8.851   0.022   2.028  0.00  0.00    +0.002 A 
ATOM     20  C   UNL     1      -8.323   1.241   1.800  0.00  0.00    +0.027 A 
ATOM     21  C   UNL     1      -6.976   1.553   2.299  0.00  0.00    +0.061 A 
ATOM     22  N   UNL     1      -6.231   2.618   2.229  0.00  0.00    -0.350 N 
ATOM     23  H   UNL     1      -4.406   0.449   3.902  0.00  0.00    +0.163 HD
ATOM     24  H   UNL     1      -6.466   3.455   1.799  0.00  0.00    +0.163 HD
ENDBRANCH  10  14
BRANCH   1  27
ATOM     25  C   UNL     1      -1.599  -2.989  -0.004  0.00  0.00    +0.052 C 
ATOM     26  C   UNL     1      -0.613  -1.855  -0.107  0.00  0.00    -0.008 A 
ATOM     27  C   UNL     1      -0.865  -0.549  -0.282  0.00  0.00    -0.022 A 
ATOM     28  C   UNL     1       0.246   0.388  -0.355  0.00  0.00    -0.007 A 
ATOM     29  C   UNL     1       0.211   1.791  -0.534  0.00  0.00    +0.009 A 
ATOM     30  C   UNL     1       1.361   2.514  -0.579  0.00  0.00    +0.001 A 
ATOM     31  C   UNL     1       2.605   1.910  -0.452  0.00  0.00    +0.001 A 
ATOM     32  C   UNL     1       2.682   0.543  -0.275  0.00  0.00    +0.015 A 
ATOM     33  C   UNL     1       1.523  -0.202  -0.228  0.00  0.00    +0.020 A 
ATOM     34  S   UNL     1       1.166  -1.927  -0.018  0.00  0.00    -0.093 S 
ENDBRANCH   1  27
TORSDOF 2
