REMARK  Name = ZINC46567828
REMARK  4 active torsions:
REMARK  status: ('A' for Active; 'I' for Inactive)
REMARK    1  A    between atoms: C_1  and  C_2
REMARK    2  A    between atoms: C_5  and  N_11
REMARK    3  A    between atoms: C_7  and  N_8
REMARK    4  A    between atoms: C_12  and  C_14
REMARK                            x       y       z     vdW  Elec       q    Type
REMARK                         _______ _______ _______ _____ _____    ______ ____
ROOT
ATOM      1  N   UNL     1      -0.303  -3.994   0.367  0.00  0.00    -0.280 N 
ATOM      2  C   UNL     1      -0.573  -4.741  -0.722  0.00  0.00    +0.265 C 
ATOM      3  O   UNL     1      -0.774  -4.202  -1.794  0.00  0.00    -0.268 OA
ATOM      4  H   UNL     1      -0.209  -4.418   1.235  0.00  0.00    +0.155 HD
ENDROOT
BRANCH   2   5
ATOM      5  C   UNL     1      -0.624  -6.206  -0.615  0.00  0.00    +0.103 A 
ATOM      6  C   UNL     1      -0.879  -7.062  -1.638  0.00  0.00    +0.040 A 
ATOM      7  C   UNL     1      -0.837  -8.379  -1.119  0.00  0.00    +0.000 A 
ATOM      8  C   UNL     1      -1.019  -9.645  -1.692  0.00  0.00    +0.011 A 
ATOM      9  C   UNL     1      -0.914 -10.762  -0.917  0.00  0.00    +0.016 A 
ATOM     10  C   UNL     1      -0.627 -10.658   0.440  0.00  0.00    +0.020 A 
ATOM     11  C   UNL     1      -0.444  -9.424   1.026  0.00  0.00    +0.041 A 
ATOM     12  C   UNL     1      -0.546  -8.270   0.255  0.00  0.00    +0.048 A 
ATOM     13  N   UNL     1      -0.414  -6.932   0.542  0.00  0.00    -0.351 N 
ATOM     14  H   UNL     1      -0.209  -6.559   1.414  0.00  0.00    +0.166 HD
ATOM     15 BR   UNL     1      -0.488 -12.224   1.491  0.00  0.00    -0.050 Br
ENDBRANCH   2   5
BRANCH   1  20
ATOM     16  C   UNL     1       0.279   1.627  -0.122  0.00  0.00    +0.046 C 
ATOM     17  C   UNL     1       0.124   0.134   0.009  0.00  0.00    -0.020 A 
ATOM     18  C   UNL     1       0.895  -0.563   0.922  0.00  0.00    +0.007 A 
ATOM     19  C   UNL     1       0.755  -1.932   1.043  0.00  0.00    +0.024 A 
ATOM     20  C   UNL     1      -0.160  -2.608   0.247  0.00  0.00    +0.036 A 
ATOM     21  C   UNL     1      -0.932  -1.906  -0.668  0.00  0.00    +0.056 A 
ATOM     22  C   UNL     1      -0.792  -0.536  -0.781  0.00  0.00    +0.131 A 
BRANCH  22  23
ATOM     23  N   UNL     1      -1.619   0.214  -1.753  0.00  0.00    +0.057 N 
ATOM     24  O   UNL     1      -2.039   1.312  -1.469  0.00  0.00    -0.126 OA
ATOM     25  O   UNL     1      -1.873  -0.270  -2.831  0.00  0.00    -0.126 OA
ENDBRANCH  22  23
ENDBRANCH   1  20
TORSDOF 3
