REMARK  Name = ZINC18240396
REMARK  6 active torsions:
REMARK  status: ('A' for Active; 'I' for Inactive)
REMARK    1  A    between atoms: C_1  and  C_2
REMARK    2  A    between atoms: C_7  and  S_10
REMARK    3  A    between atoms: S_10  and  C_11
REMARK    4  A    between atoms: C_11  and  C_12
REMARK    5  A    between atoms: N_14  and  C_15
REMARK    6  A    between atoms: C_16  and  C_24
REMARK                            x       y       z     vdW  Elec       q    Type
REMARK                         _______ _______ _______ _____ _____    ______ ____
ROOT
ATOM      1  C   UNL     1      -3.533   5.596  -5.844  0.00  0.00    +0.228 C 
ATOM      2  O   UNL     1      -4.032   4.898  -6.701  0.00  0.00    -0.275 OA
ATOM      3  N   UNL     1      -3.607   6.938  -5.941  0.00  0.00    -0.279 N 
ATOM      4  H   UNL     1      -3.207   7.497  -5.256  0.00  0.00    +0.155 HD
ENDROOT
BRANCH   3   5
ATOM      5  C   UNL     1      -4.253   7.521  -7.021  0.00  0.00    +0.084 A 
ATOM      6  C   UNL     1      -4.420   8.871  -7.287  0.00  0.00    +0.068 A 
ATOM      7  C   UNL     1      -5.143   9.225  -8.496  0.00  0.00    -0.023 A 
ATOM      8  C   UNL     1      -5.566   8.165  -9.217  0.00  0.00    -0.004 A 
ATOM      9  S   UNL     1      -5.007   6.753  -8.310  0.00  0.00    -0.077 S 
ATOM     10  C   UNL     1      -6.334   8.200 -10.502  0.00  0.00    +0.043 C 
ATOM     11  C   UNL     1      -6.899   9.616 -10.688  0.00  0.00    +0.005 C 
ATOM     12  C   UNL     1      -5.781  10.632 -10.436  0.00  0.00    +0.005 C 
ATOM     13  C   UNL     1      -5.420  10.651  -8.949  0.00  0.00    +0.037 C 
BRANCH   6  14
ATOM     14  C   UNL     1      -3.890   9.898  -6.385  0.00  0.00    +0.244 C 
ATOM     15  O   UNL     1      -2.765  10.331  -6.550  0.00  0.00    -0.270 OA
ATOM     16  N   UNL     1      -4.649  10.364  -5.373  0.00  0.00    -0.325 N 
ATOM     17  H   UNL     1      -5.546  10.019  -5.242  0.00  0.00    +0.145 HD
ATOM     18  H   UNL     1      -4.298  11.043  -4.777  0.00  0.00    +0.145 HD
ENDBRANCH   6  14
ENDBRANCH   3   5
BRANCH   1  19
ATOM     19  C   UNL     1      -2.830   4.963  -4.671  0.00  0.00    +0.173 C 
BRANCH  19  20
ATOM     20  S   UNL     1      -2.901   3.157  -4.827  0.00  0.00    -0.077 S 
BRANCH  20  27
ATOM     21  C   UNL     1      -0.013   1.086   0.008  0.00  0.00    +0.073 C 
ATOM     22  C   UNL     1      -0.742   1.585  -1.213  0.00  0.00    +0.124 A 
ATOM     23  C   UNL     1      -0.899   3.022  -1.451  0.00  0.00    +0.295 A 
ATOM     24  O   UNL     1      -0.439   3.831  -0.659  0.00  0.00    -0.264 OA
ATOM     25  N   UNL     1      -1.550   3.441  -2.542  0.00  0.00    -0.182 NA
ATOM     26  H   UNL     1      -2.291   0.614  -3.848  0.00  0.00    +0.191 HD
ATOM     27  C   UNL     1      -2.049   2.572  -3.400  0.00  0.00    +0.187 A 
ATOM     28  N   UNL     1      -1.916   1.235  -3.203  0.00  0.00    -0.255 N 
ATOM     29  N   UNL     1      -1.239   0.744  -2.079  0.00  0.00    -0.172 NA
ENDBRANCH  20  27
ENDBRANCH  19  20
ENDBRANCH   1  19
TORSDOF 5
