REMARK  Name = ZINC26842094
REMARK  5 active torsions:
REMARK  status: ('A' for Active; 'I' for Inactive)
REMARK    1  A    between atoms: C_1  and  C_2
REMARK    2  A    between atoms: C_9  and  N_28
REMARK    3  A    between atoms: C_10  and  C_13
REMARK    4  A    between atoms: N_17  and  C_21
REMARK    5  A    between atoms: C_21  and  C_22
REMARK                            x       y       z     vdW  Elec       q    Type
REMARK                         _______ _______ _______ _____ _____    ______ ____
ROOT
ATOM      1  C   UNL     1       6.453   0.464  -2.183  0.00  0.00    +0.047 C 
ATOM      2  C   UNL     1       6.695   1.737  -1.413  0.00  0.00    -0.007 A 
ATOM      3  C   UNL     1       7.891   2.384  -1.514  0.00  0.00    +0.008 A 
ATOM      4  C   UNL     1       8.100   3.567  -0.792  0.00  0.00    +0.019 A 
ATOM      5  C   UNL     1       7.122   4.061  -0.001  0.00  0.00    +0.096 A 
ATOM      6  N   UNL     1       5.922   3.422   0.107  0.00  0.00    -0.267 N 
ATOM      7  C   UNL     1       5.688   2.266  -0.585  0.00  0.00    +0.145 A 
ATOM      8  N   UNL     1       4.522   1.626  -0.492  0.00  0.00    -0.213 NA
ATOM      9  C   UNL     1       3.540   2.079   0.273  0.00  0.00    +0.136 A 
ATOM     10  C   UNL     1       3.722   3.275   1.008  0.00  0.00    +0.081 A 
ATOM     11  C   UNL     1       4.966   3.942   0.905  0.00  0.00    +0.267 A 
ATOM     12  O   UNL     1       5.169   4.973   1.524  0.00  0.00    -0.267 OA
ENDROOT
BRANCH   9  13
ATOM     13  N   UNL     1       2.346   1.395   0.347  0.00  0.00    -0.310 N 
ATOM     14  C   UNL     1       2.445   0.088  -0.323  0.00  0.00    +0.111 C 
ATOM     15  C   UNL     1       1.249  -0.765   0.099  0.00  0.00    +0.054 C 
ATOM     16  C   UNL     1      -0.029   0.014  -0.086  0.00  0.00    -0.041 A 
ATOM     17  C   UNL     1      -1.230  -0.680  -0.102  0.00  0.00    +0.004 A 
ATOM     18  C   UNL     1      -2.422  -0.005  -0.265  0.00  0.00    +0.000 A 
ATOM     19  C   UNL     1      -2.420   1.370  -0.412  0.00  0.00    +0.000 A 
ATOM     20  C   UNL     1      -1.225   2.060  -0.401  0.00  0.00    +0.005 A 
ATOM     21  C   UNL     1      -0.026   1.384  -0.235  0.00  0.00    -0.027 A 
ATOM     22  C   UNL     1       1.252   2.181  -0.232  0.00  0.00    +0.142 C 
ENDBRANCH   9  13
BRANCH  10  23
ATOM     23  C   UNL     1       2.690   3.787   1.827  0.00  0.00    +0.037 C 
ATOM     24  C   UNL     1       2.152   3.010   2.813  0.00  0.00    +0.077 C 
ATOM     25  C   UNL     1       1.048   3.274   3.673  0.00  0.00    +0.258 C 
ATOM     26  O   UNL     1       0.428   4.320   3.594  0.00  0.00    -0.269 OA
ATOM     27  N   UNL     1       0.715   2.352   4.559  0.00  0.00    -0.253 N 
ATOM     28  C   UNL     1       1.403   1.191   4.647  0.00  0.00    +0.121 C 
ATOM     29  S   UNL     1       1.150  -0.129   5.707  0.00  0.00    -0.027 S 
ATOM     30  S   UNL     1       2.637   1.382   3.369  0.00  0.00    -0.061 S 
BRANCH  27  31
ATOM     31  C   UNL     1      -0.415   2.591   5.460  0.00  0.00    +0.146 C 
BRANCH  31  32
ATOM     32  C   UNL     1      -1.701   2.073   4.813  0.00  0.00    +0.136 C 
ATOM     33  C   UNL     1      -2.920   2.392   5.707  0.00  0.00    +0.035 C 
ATOM     34  C   UNL     1      -3.831   1.154   5.555  0.00  0.00    +0.031 C 
ATOM     35  C   UNL     1      -3.056   0.233   4.587  0.00  0.00    +0.160 C 
ATOM     36  O   UNL     1      -1.673   0.631   4.723  0.00  0.00    -0.375 OA
ENDBRANCH  31  32
ENDBRANCH  27  31
ENDBRANCH  10  23
TORSDOF 4
