REMARK  Name = ZINC13565136
REMARK  9 active torsions:
REMARK  status: ('A' for Active; 'I' for Inactive)
REMARK    1  A    between atoms: C_1  and  C_2
REMARK    2  A    between atoms: C_2  and  C_3
REMARK    3  A    between atoms: C_2  and  N_4
REMARK    4  A    between atoms: C_5  and  C_17
REMARK    5  A    between atoms: C_8  and  S_9
REMARK    6  A    between atoms: S_9  and  C_10
REMARK    7  A    between atoms: C_10  and  C_11
REMARK    8  A    between atoms: C_23  and  C_24
REMARK    9  A    between atoms: C_23  and  N_70
REMARK                            x       y       z     vdW  Elec       q    Type
REMARK                         _______ _______ _______ _____ _____    ______ ____
ROOT
ATOM      1  C   UNL     1       0.086   1.768  -0.306  0.00  0.00    +0.040 C 
ATOM      2  C   UNL     1      -0.666   2.213   0.952  0.00  0.00    +0.007 C 
ATOM      3  C   UNL     1      -0.076   1.495   2.170  0.00  0.00    -0.018 C 
ATOM      4  C   UNL     1       1.419   1.807   2.265  0.00  0.00    -0.078 C 
ATOM      5  C   UNL     1       1.576   2.072  -0.138  0.00  0.00    -0.067 C 
ATOM      6  N   UNL     1       2.088   1.333   1.036  0.00  0.00    +0.386 N 
ATOM      7  H   UNL     1       1.888   0.333   0.912  0.00  0.00    -0.081 HD
ENDROOT
BRANCH   1   9
ATOM      8  N   UNL     1      -1.023   1.959  -2.612  0.00  0.00    -0.303 N 
ATOM      9  C   UNL     1      -0.449   2.514  -1.502  0.00  0.00    +0.136 A 
ATOM     10  N   UNL     1      -0.454   3.806  -1.667  0.00  0.00    -0.133 NA
ATOM     11  N   UNL     1      -0.980   4.104  -2.801  0.00  0.00    -0.122 NA
ATOM     12  C   UNL     1      -1.351   3.008  -3.422  0.00  0.00    +0.192 A 
BRANCH   8  14
ATOM     13  C   UNL     1      -2.737   0.273  -3.060  0.00  0.00    +0.030 C 
ATOM     14  C   UNL     1      -1.241   0.535  -2.877  0.00  0.00    +0.085 C 
ATOM     15  C   UNL     1      -0.493   0.133  -4.151  0.00  0.00    +0.030 C 
ENDBRANCH   8  14
BRANCH  12  16
ATOM     16  S   UNL     1      -2.124   2.910  -5.002  0.00  0.00    -0.081 S 
BRANCH  16  17
ATOM     17  C   UNL     1      -2.216   4.669  -5.417  0.00  0.00    +0.112 C 
BRANCH  17  18
ATOM     18  C   UNL     1      -2.862   4.833  -6.769  0.00  0.00    -0.037 A 
ATOM     19  C   UNL     1      -2.083   4.847  -7.910  0.00  0.00    +0.004 A 
ATOM     20  C   UNL     1      -2.676   4.993  -9.150  0.00  0.00    +0.000 A 
ATOM     21  C   UNL     1      -4.048   5.136  -9.248  0.00  0.00    +0.000 A 
ATOM     22  C   UNL     1      -4.826   5.127  -8.106  0.00  0.00    +0.000 A 
ATOM     23  C   UNL     1      -4.234   4.976  -6.866  0.00  0.00    +0.004 A 
ENDBRANCH  17  18
ENDBRANCH  16  17
ENDBRANCH  12  16
ENDBRANCH   1   9
BRANCH   6  24
ATOM     24  C   UNL     1       3.549   1.520   1.151  0.00  0.00    +0.019 C 
BRANCH  24  25
ATOM     25  C   UNL     1       4.221   0.805   0.008  0.00  0.00    +0.203 C 
ATOM     26  O   UNL     1       3.564   0.129  -0.755  0.00  0.00    -0.277 OA
ATOM     27  N   UNL     1       5.553   0.917  -0.167  0.00  0.00    -0.273 N 
ATOM     28  C   UNL     1       6.376   1.642   0.810  0.00  0.00    +0.114 C 
ATOM     29  C   UNL     1       7.346   2.539   0.031  0.00  0.00    +0.024 C 
ATOM     30  C   UNL     1       8.276   1.657  -0.802  0.00  0.00    +0.038 C 
ATOM     31  C   UNL     1       7.478   0.676  -1.621  0.00  0.00    -0.026 A 
ATOM     32  C   UNL     1       6.176   0.338  -1.282  0.00  0.00    +0.039 A 
ATOM     33  C   UNL     1       5.469  -0.570  -2.059  0.00  0.00    +0.024 A 
ATOM     34  C   UNL     1       6.063  -1.143  -3.166  0.00  0.00    +0.002 A 
ATOM     35  C   UNL     1       7.362  -0.808  -3.502  0.00  0.00    +0.000 A 
ATOM     36  C   UNL     1       8.066   0.097  -2.732  0.00  0.00    +0.005 A 
ENDBRANCH  24  25
ENDBRANCH   6  24
TORSDOF 7
