REMARK  Name = ZINC63172776
REMARK  3 active torsions:
REMARK  status: ('A' for Active; 'I' for Inactive)
REMARK    1  A    between atoms: C_8  and  C_12
REMARK    2  A    between atoms: N_14  and  C_15
REMARK    3  A    between atoms: C_19  and  C_21
REMARK                            x       y       z     vdW  Elec       q    Type
REMARK                         _______ _______ _______ _____ _____    ______ ____
ROOT
ATOM      1  C   UNL     1       3.984  -6.134   0.622  0.00  0.00    +0.034 A 
ATOM      2  C   UNL     1       2.897  -6.979   0.437  0.00  0.00    +0.023 A 
ATOM      3  C   UNL     1       3.058  -8.345   0.565  0.00  0.00    +0.002 A 
ATOM      4  C   UNL     1       4.298  -8.871   0.877  0.00  0.00    +0.007 A 
ATOM      5  C   UNL     1       5.382  -8.032   1.062  0.00  0.00    -0.004 A 
ATOM      6  C   UNL     1       5.229  -6.665   0.929  0.00  0.00    +0.030 A 
ENDROOT
BRANCH   5   7
ATOM      7  C   UNL     1       6.731  -8.609   1.402  0.00  0.00    +0.206 C 
ATOM      8  N   UNL     1       7.795  -7.787   0.811  0.00  0.00    -0.360 N 
ATOM      9  C   UNL     1       8.463  -8.544  -0.010  0.00  0.00    +0.060 A 
ATOM     10  C   UNL     1       9.620  -8.296  -0.881  0.00  0.00    +0.027 A 
ATOM     11  C   UNL     1      10.109  -9.297  -1.639  0.00  0.00    +0.002 A 
ATOM     12  C   UNL     1       9.555 -10.590  -1.637  0.00  0.00    +0.002 A 
ATOM     13  C   UNL     1       8.494 -10.924  -0.877  0.00  0.00    +0.027 A 
ATOM     14  C   UNL     1       7.877  -9.912  -0.007  0.00  0.00    +0.060 A 
ATOM     15  N   UNL     1       6.869  -9.948   0.815  0.00  0.00    -0.360 N 
ATOM     16  H   UNL     1       7.967  -6.851   0.998  0.00  0.00    +0.162 HD
ATOM     17  H   UNL     1       6.311 -10.719   1.006  0.00  0.00    +0.162 HD
ENDBRANCH   5   7
BRANCH   1  20
ATOM     18  C   UNL     1       2.679  -4.163   0.891  0.00  0.00    +0.255 C 
ATOM     19  O   UNL     1       1.751  -4.845   1.282  0.00  0.00    -0.270 OA
ATOM     20  N   UNL     1       3.825  -4.750   0.493  0.00  0.00    -0.281 N 
ATOM     21  H   UNL     1       4.540  -4.213   0.117  0.00  0.00    +0.155 HD
BRANCH  18  29
ATOM     22  C   UNL     1       0.249   1.423   1.694  0.00  0.00    +0.001 A 
ATOM     23  C   UNL     1       1.270   2.116   1.059  0.00  0.00    +0.004 A 
ATOM     24  C   UNL     1       2.311   1.439   0.458  0.00  0.00    +0.047 A 
ATOM     25  C   UNL     1       2.344   0.051   0.493  0.00  0.00    +0.139 A 
ATOM     26  C   UNL     1       1.323  -0.650   1.161  0.00  0.00    +0.018 A 
ATOM     27  C   UNL     1       0.263   0.059   1.746  0.00  0.00    +0.011 A 
ATOM     28  C   UNL     1       1.383  -2.064   1.257  0.00  0.00    +0.031 A 
ATOM     29  C   UNL     1       2.551  -2.697   0.853  0.00  0.00    +0.122 A 
ATOM     30  C   UNL     1       3.658  -1.843   0.385  0.00  0.00    +0.350 A 
ATOM     31  O   UNL     1       4.813  -2.220   0.449  0.00  0.00    -0.244 OA
ATOM     32  O   UNL     1       3.346  -0.626  -0.118  0.00  0.00    -0.422 OA
ENDBRANCH  18  29
ENDBRANCH   1  20
TORSDOF 3
