REMARK  Name = ZINC13418404
REMARK  9 active torsions:
REMARK  status: ('A' for Active; 'I' for Inactive)
REMARK    1  A    between atoms: C_1  and  C_2
REMARK    2  A    between atoms: N_7  and  C_10
REMARK    3  A    between atoms: C_10  and  C_11
REMARK    4  A    between atoms: N_13  and  C_14
REMARK    5  A    between atoms: C_14  and  C_15
REMARK    6  A    between atoms: C_15  and  C_16
REMARK    7  A    between atoms: C_19  and  O_22
REMARK    8  A    between atoms: O_22  and  C_23
REMARK    9  A    between atoms: C_27  and  C_28
REMARK                            x       y       z     vdW  Elec       q    Type
REMARK                         _______ _______ _______ _____ _____    ______ ____
ROOT
ATOM      1  C   UNL     1       1.231  -4.823  -2.644  0.00  0.00    +0.233 C 
ATOM      2  O   UNL     1       1.214  -4.211  -3.691  0.00  0.00    -0.274 OA
ATOM      3  N   UNL     1       1.234  -4.155  -1.474  0.00  0.00    -0.314 N 
ATOM      4  H   UNL     1       1.248  -4.644  -0.636  0.00  0.00    +0.149 HD
ENDROOT
BRANCH   1   5
ATOM      5  C   UNL     1       1.248  -6.330  -2.652  0.00  0.00    +0.221 C 
BRANCH   5  12
ATOM      6  C   UNL     1       4.859  -7.602  -6.464  0.00  0.00    +0.046 C 
ATOM      7  C   UNL     1       3.438  -7.785  -6.930  0.00  0.00    -0.015 A 
ATOM      8  C   UNL     1       2.377  -7.501  -6.068  0.00  0.00    +0.076 A 
ATOM      9  C   UNL     1       1.082  -7.705  -6.597  0.00  0.00    +0.116 A 
ATOM     10  N   UNL     1      -0.011  -7.473  -5.882  0.00  0.00    -0.230 NA
ATOM     11  C   UNL     1       0.055  -7.048  -4.649  0.00  0.00    +0.203 A 
ATOM     12  N   UNL     1       1.241  -6.811  -4.035  0.00  0.00    -0.290 N 
ATOM     13  C   UNL     1       2.412  -7.014  -4.670  0.00  0.00    +0.263 A 
ATOM     14  O   UNL     1       3.472  -6.803  -4.108  0.00  0.00    -0.267 OA
ATOM     15  S   UNL     1       1.401  -8.275  -8.248  0.00  0.00    -0.062 S 
ATOM     16  C   UNL     1       3.185  -8.230  -8.195  0.00  0.00    +0.106 A 
BRANCH  16  17
ATOM     17  C   UNL     1       4.139  -8.581  -9.249  0.00  0.00    +0.393 C 
ATOM     18  O   UNL     1       5.334  -8.491  -9.042  0.00  0.00    -0.240 OA
ATOM     19  O   UNL     1       3.693  -9.006 -10.449  0.00  0.00    -0.240 OA
ENDBRANCH  16  17
ENDBRANCH   5  12
ENDBRANCH   1   5
BRANCH   3  20
ATOM     20  C   UNL     1       1.217  -2.690  -1.466  0.00  0.00    +0.109 C 
BRANCH  20  21
ATOM     21  C   UNL     1       1.226  -2.187  -0.021  0.00  0.00    +0.054 C 
BRANCH  21  22
ATOM     22  C   UNL     1       1.208  -0.680  -0.013  0.00  0.00    -0.046 A 
ATOM     23  C   UNL     1       0.002  -0.004   0.002  0.00  0.00    +0.007 A 
ATOM     24  C   UNL     1      -0.017   1.377   0.010  0.00  0.00    +0.046 A 
ATOM     25  C   UNL     1       1.176   2.086   0.002  0.00  0.00    +0.127 A 
ATOM     26  C   UNL     1       2.385   1.405  -0.013  0.00  0.00    +0.046 A 
ATOM     27  C   UNL     1       2.398   0.024  -0.021  0.00  0.00    +0.007 A 
BRANCH  25  28
ATOM     28  O   UNL     1       1.160   3.445   0.009  0.00  0.00    -0.434 OA
BRANCH  28  29
ATOM     29  C   UNL     1       2.426   4.108   0.001  0.00  0.00    +0.541 C 
ATOM     30  F   UNL     1       3.156   3.735   1.134  0.00  0.00    -0.166 F 
ATOM     31  F   UNL     1       3.134   3.747  -1.150  0.00  0.00    -0.166 F 
ENDBRANCH  28  29
ENDBRANCH  25  28
ENDBRANCH  21  22
ENDBRANCH  20  21
ENDBRANCH   3  20
TORSDOF 8
