REMARK  Name = ZINC52094945
REMARK  5 active torsions:
REMARK  status: ('A' for Active; 'I' for Inactive)
REMARK    1  A    between atoms: C_1  and  O_2
REMARK    2  A    between atoms: O_2  and  C_3
REMARK    3  A    between atoms: C_7  and  C_9
REMARK    4  A    between atoms: C_9  and  C_11
REMARK    5  A    between atoms: C_9  and  O_24
REMARK                            x       y       z     vdW  Elec       q    Type
REMARK                         _______ _______ _______ _____ _____    ______ ____
ROOT
ATOM      1  C   UNL     1       0.249  -4.598  -3.221  0.00  0.00    +0.001 A 
ATOM      2  C   UNL     1       0.548  -4.848  -4.546  0.00  0.00    +0.035 A 
ATOM      3  C   UNL     1      -0.442  -5.301  -5.404  0.00  0.00    +0.067 A 
ATOM      4  C   UNL     1      -1.739  -5.501  -4.926  0.00  0.00    +0.068 A 
ATOM      5  C   UNL     1      -2.031  -5.247  -3.595  0.00  0.00    +0.043 A 
ATOM      6  C   UNL     1      -1.036  -4.802  -2.745  0.00  0.00    +0.026 A 
ATOM      7 BR   UNL     1      -1.431  -4.463  -0.927  0.00  0.00    -0.050 Br
ATOM      8  N   UNL     1      -2.500  -5.951  -6.002  0.00  0.00    -0.306 N 
ATOM      9  H   UNL     1      -3.443  -6.175  -5.976  0.00  0.00    +0.170 HD
ATOM     10  C   UNL     1      -1.704  -6.021  -7.085  0.00  0.00    +0.325 A 
ATOM     11  O   UNL     1      -2.057  -6.378  -8.194  0.00  0.00    -0.247 OA
ATOM     12  N   UNL     1      -0.456  -5.635  -6.757  0.00  0.00    -0.306 N 
ATOM     13  H   UNL     1       0.303  -5.596  -7.359  0.00  0.00    +0.170 HD
ENDROOT
BRANCH   1  14
ATOM     14  C   UNL     1       1.325  -4.106  -2.289  0.00  0.00    +0.176 C 
BRANCH  14  19
ATOM     15  C   UNL     1       0.606  -0.607  -1.056  0.00  0.00    +0.120 A 
ATOM     16  C   UNL     1       1.173   0.161  -2.063  0.00  0.00    +0.045 A 
ATOM     17  C   UNL     1       1.786  -0.455  -3.136  0.00  0.00    +0.004 A 
ATOM     18  C   UNL     1       1.836  -1.835  -3.208  0.00  0.00    +0.007 A 
ATOM     19  C   UNL     1       1.271  -2.602  -2.207  0.00  0.00    -0.011 A 
ATOM     20  C   UNL     1       0.661  -1.991  -1.128  0.00  0.00    +0.052 A 
BRANCH  15  22
ATOM     21  C   UNL     1      -0.017   1.425   0.010  0.00  0.00    +0.277 C 
ATOM     22  O   UNL     1       0.002  -0.004   0.002  0.00  0.00    -0.495 OA
ENDBRANCH  15  22
ENDBRANCH  14  19
BRANCH  14  23
ATOM     23  O   UNL     1       2.604  -4.510  -2.782  0.00  0.00    -0.382 OA
ATOM     24  H   UNL     1       2.812  -4.168  -3.663  0.00  0.00    +0.211 HD
ENDBRANCH  14  23
ENDBRANCH   1  14
TORSDOF 4
