REMARK  Name = ZINC20206810
REMARK  7 active torsions:
REMARK  status: ('A' for Active; 'I' for Inactive)
REMARK    1  A    between atoms: C_1  and  C_2
REMARK    2  A    between atoms: C_2  and  S_3
REMARK    3  A    between atoms: S_3  and  C_6
REMARK    4  A    between atoms: C_14  and  C_15
REMARK    5  A    between atoms: C_18  and  O_21
REMARK    6  A    between atoms: O_21  and  C_22
REMARK    7  A    between atoms: C_22  and  C_24
REMARK                            x       y       z     vdW  Elec       q    Type
REMARK                         _______ _______ _______ _____ _____    ______ ____
ROOT
ATOM      1  C   UNL     1      -0.563   1.810  -3.564  0.00  0.00    +0.257 C 
ATOM      2  N   UNL     1      -0.047   2.951  -3.901  0.00  0.00    -0.174 NA
ATOM      3  S   UNL     1       1.520   2.574  -4.362  0.00  0.00    +0.049 S 
ATOM      4  C   UNL     1       1.471   0.920  -4.161  0.00  0.00    +0.183 C 
ATOM      5  N   UNL     1       2.385   0.009  -4.407  0.00  0.00    -0.152 NA
ATOM      6  C   UNL     1       2.091  -1.292  -4.225  0.00  0.00    +0.273 C 
ATOM      7  O   UNL     1       2.955  -2.148  -4.318  0.00  0.00    -0.268 OA
ATOM      8  C   UNL     1       0.688  -1.660  -3.907  0.00  0.00    +0.079 C 
ATOM      9  C   UNL     1       0.178  -2.904  -4.200  0.00  0.00    +0.024 C 
ATOM     10  C   UNL     1      -0.138  -0.605  -3.251  0.00  0.00    +0.138 C 
ATOM     11  N   UNL     1      -1.085  -0.865  -2.391  0.00  0.00    -0.284 NA
ATOM     12  N   UNL     1       0.210   0.702  -3.647  0.00  0.00    -0.201 N 
ATOM     13  H   UNL     1      -1.282  -1.784  -2.150  0.00  0.00    +0.188 HD
ENDROOT
BRANCH   9  14
ATOM     14  C   UNL     1       0.955  -3.839  -5.019  0.00  0.00    -0.024 A 
ATOM     15  C   UNL     1       0.929  -5.212  -4.735  0.00  0.00    +0.011 A 
ATOM     16  C   UNL     1       1.657  -6.082  -5.505  0.00  0.00    +0.047 A 
ATOM     17  C   UNL     1       2.420  -5.605  -6.566  0.00  0.00    +0.132 A 
ATOM     18  C   UNL     1       2.449  -4.245  -6.852  0.00  0.00    +0.047 A 
ATOM     19  C   UNL     1       1.721  -3.365  -6.093  0.00  0.00    +0.011 A 
BRANCH  17  20
ATOM     20  O   UNL     1       3.139  -6.471  -7.324  0.00  0.00    -0.422 OA
BRANCH  20  21
ATOM     21  C   UNL     1       2.465  -7.332  -8.112  0.00  0.00    +0.344 C 
ATOM     22  O   UNL     1       1.256  -7.252  -8.205  0.00  0.00    -0.245 OA
BRANCH  21  23
ATOM     23  C   UNL     1       3.195  -8.373  -8.861  0.00  0.00    +0.060 A 
ATOM     24  C   UNL     1       4.584  -8.472  -8.752  0.00  0.00    +0.018 A 
ATOM     25  C   UNL     1       5.261  -9.446  -9.454  0.00  0.00    +0.039 A 
ATOM     26  C   UNL     1       4.565 -10.327 -10.268  0.00  0.00    +0.123 A 
ATOM     27  C   UNL     1       3.186 -10.233 -10.381  0.00  0.00    +0.039 A 
ATOM     28  C   UNL     1       2.498  -9.267  -9.679  0.00  0.00    +0.018 A 
ATOM     29  F   UNL     1       5.234 -11.279 -10.955  0.00  0.00    -0.205 F 
ENDBRANCH  21  23
ENDBRANCH  20  21
ENDBRANCH  17  20
ENDBRANCH   9  14
BRANCH   1  30
ATOM     30  S   UNL     1      -2.231   1.706  -3.005  0.00  0.00    +0.029 S 
ATOM     31  O   UNL     1      -2.691   0.444  -3.468  0.00  0.00    -0.167 OA
ATOM     32  O   UNL     1      -2.840   2.909  -3.454  0.00  0.00    -0.167 OA
BRANCH  30  34
ATOM     33  C   UNL     1      -3.521   1.614  -0.594  0.00  0.00    +0.028 C 
ATOM     34  C   UNL     1      -2.116   1.703  -1.194  0.00  0.00    +0.172 C 
ENDBRANCH  30  34
ENDBRANCH   1  30
TORSDOF 6
