REMARK  Name = ZINC24592903
REMARK  7 active torsions:
REMARK  status: ('A' for Active; 'I' for Inactive)
REMARK    1  A    between atoms: C_1  and  N_2
REMARK    2  A    between atoms: N_5  and  C_14
REMARK    3  A    between atoms: C_14  and  C_15
REMARK    4  A    between atoms: N_17  and  C_18
REMARK    5  A    between atoms: N_17  and  C_27
REMARK    6  A    between atoms: C_18  and  C_19
REMARK    7  A    between atoms: C_20  and  C_21
REMARK                            x       y       z     vdW  Elec       q    Type
REMARK                         _______ _______ _______ _____ _____    ______ ____
ROOT
ATOM      1  C   UNL     1       4.642   0.193  -0.027  0.00  0.00    +0.238 C 
ATOM      2  O   UNL     1       5.659  -0.468  -0.068  0.00  0.00    -0.273 OA
ATOM      3  N   UNL     1       3.449  -0.416   0.123  0.00  0.00    -0.266 N 
ENDROOT
BRANCH   3   4
ATOM      4  C   UNL     1       2.268   0.335   0.070  0.00  0.00    +0.040 A 
ATOM      5  C   UNL     1       1.395   0.335   1.150  0.00  0.00    +0.027 A 
ATOM      6  C   UNL     1       0.230   1.075   1.098  0.00  0.00    +0.051 A 
ATOM      7  C   UNL     1      -0.072   1.820  -0.033  0.00  0.00    +0.162 A 
ATOM      8  C   UNL     1       0.800   1.824  -1.115  0.00  0.00    +0.164 A 
ATOM      9  C   UNL     1       1.969   1.080  -1.062  0.00  0.00    +0.073 A 
ATOM     10  O   UNL     1       0.525   2.555  -2.229  0.00  0.00    -0.485 OA
ATOM     11  C   UNL     1      -0.829   2.989  -2.396  0.00  0.00    +0.270 C 
ATOM     12  C   UNL     1      -1.317   3.567  -1.060  0.00  0.00    +0.270 C 
ATOM     13  O   UNL     1      -1.230   2.537  -0.069  0.00  0.00    -0.485 OA
ENDBRANCH   3   4
BRANCH   1  14
ATOM     14  C   UNL     1       4.713   1.693  -0.143  0.00  0.00    +0.214 C 
BRANCH  14  19
ATOM     15  C   UNL     1       9.383   3.099   0.824  0.00  0.00    +0.134 C 
ATOM     16  N   UNL     1       8.189   2.728   0.061  0.00  0.00    -0.274 N 
ATOM     17  C   UNL     1       6.986   2.388   0.561  0.00  0.00    +0.312 C 
ATOM     18  O   UNL     1       6.735   2.345   1.749  0.00  0.00    -0.252 OA
ATOM     19  N   UNL     1       6.097   2.099  -0.398  0.00  0.00    -0.215 N 
ATOM     20  C   UNL     1       6.634   2.232  -1.629  0.00  0.00    +0.247 C 
ATOM     21  O   UNL     1       6.084   2.046  -2.693  0.00  0.00    -0.273 OA
ATOM     22  C   UNL     1       8.065   2.661  -1.401  0.00  0.00    +0.115 C 
ATOM     23  C   UNL     1       8.314   4.031  -2.022  0.00  0.00    +0.035 C 
ATOM     24  C   UNL     1       9.759   4.460  -1.757  0.00  0.00    +0.003 C 
ATOM     25  C   UNL     1      10.715   3.427  -2.358  0.00  0.00    +0.000 C 
ATOM     26  C   UNL     1      10.470   2.064  -1.707  0.00  0.00    +0.003 C 
ATOM     27  C   UNL     1       9.027   1.626  -1.972  0.00  0.00    +0.035 C 
ENDBRANCH  14  19
ENDBRANCH   1  14
BRANCH   3  28
ATOM     28  C   UNL     1       3.388  -1.863   0.342  0.00  0.00    +0.141 C 
BRANCH  28  29
ATOM     29  C   UNL     1       3.297  -2.569  -0.987  0.00  0.00    -0.007 C 
ATOM     30  C   UNL     1       4.180  -3.506  -1.301  0.00  0.00    +0.005 C 
BRANCH  30  31
ATOM     31  C   UNL     1       4.091  -4.198  -2.604  0.00  0.00    -0.025 A 
ATOM     32  C   UNL     1       3.075  -3.871  -3.503  0.00  0.00    +0.008 A 
ATOM     33  C   UNL     1       3.001  -4.517  -4.721  0.00  0.00    +0.001 A 
ATOM     34  C   UNL     1       3.924  -5.494  -5.046  0.00  0.00    +0.000 A 
ATOM     35  C   UNL     1       4.930  -5.827  -4.157  0.00  0.00    +0.001 A 
ATOM     36  C   UNL     1       5.019  -5.185  -2.939  0.00  0.00    +0.008 A 
ENDBRANCH  30  31
ENDBRANCH  28  29
ENDBRANCH   3  28
TORSDOF 6
