REMARK  Name = ZINC03341219
REMARK  8 active torsions:
REMARK  status: ('A' for Active; 'I' for Inactive)
REMARK    1  A    between atoms: C_1  and  C_2
REMARK    2  A    between atoms: C_2  and  C_4
REMARK    3  A    between atoms: C_2  and  N_23
REMARK    4  A    between atoms: C_4  and  O_6
REMARK    5  A    between atoms: O_6  and  C_7
REMARK    6  A    between atoms: C_7  and  C_8
REMARK    7  A    between atoms: N_10  and  C_11
REMARK    8  A    between atoms: C_12  and  C_21
REMARK                            x       y       z     vdW  Elec       q    Type
REMARK                         _______ _______ _______ _____ _____    ______ ____
ROOT
ATOM      1  C   UNL     1      -1.330   1.944   0.019  0.00  0.00    +0.328 C 
ENDROOT
BRANCH   1   2
ATOM      2  C   UNL     1      -0.014   1.209   0.009  0.00  0.00    +0.255 C 
ATOM      3  O   UNL     1       0.002  -0.004   0.002  0.00  0.00    -0.272 OA
ATOM      4  N   UNL     1       1.143   1.898   0.001  0.00  0.00    -0.276 N 
ATOM      5  H   UNL     1       1.130   2.868   0.007  0.00  0.00    +0.155 HD
BRANCH   4   6
ATOM      6  C   UNL     1       2.355   1.221  -0.014  0.00  0.00    +0.090 A 
ATOM      7  C   UNL     1       3.636   1.748  -0.029  0.00  0.00    +0.084 A 
ATOM      8  C   UNL     1       4.753   0.814  -0.035  0.00  0.00    -0.018 A 
ATOM      9  C   UNL     1       4.404  -0.491  -0.043  0.00  0.00    -0.004 A 
ATOM     10  S   UNL     1       2.632  -0.489  -0.026  0.00  0.00    -0.077 S 
ATOM     11  C   UNL     1       5.311  -1.681  -0.076  0.00  0.00    +0.043 C 
ATOM     12  C   UNL     1       6.400  -1.518   0.993  0.00  0.00    +0.005 C 
ATOM     13  C   UNL     1       7.582  -0.782   0.369  0.00  0.00    +0.001 C 
ATOM     14  C   UNL     1       7.089   0.213  -0.679  0.00  0.00    +0.005 C 
ATOM     15  C   UNL     1       6.205   1.274  -0.032  0.00  0.00    +0.037 C 
BRANCH   7  16
ATOM     16  C   UNL     1       3.854   3.163  -0.034  0.00  0.00    +0.102 C 
ATOM     17  N   UNL     1       4.027   4.285  -0.039  0.00  0.00    -0.191 NA
ENDBRANCH   7  16
ENDBRANCH   4   6
ENDBRANCH   1   2
BRANCH   1  18
ATOM     18  O   UNL     1      -2.420   0.986   0.019  0.00  0.00    -0.454 OA
BRANCH  18  19
ATOM     19  C   UNL     1      -3.667   1.482   0.028  0.00  0.00    +0.328 C 
ATOM     20  O   UNL     1      -3.842   2.678   0.035  0.00  0.00    -0.249 OA
BRANCH  19  22
ATOM     21  C   UNL     1      -4.797  -0.341   1.272  0.00  0.00    +0.040 C 
ATOM     22  C   UNL     1      -4.850   0.548   0.028  0.00  0.00    +0.190 C 
BRANCH  22  23
ATOM     23  N   UNL     1      -6.089   1.329   0.038  0.00  0.00    -0.220 N 
ATOM     24  C   UNL     1      -6.436   2.195   1.008  0.00  0.00    +0.255 C 
ATOM     25  O   UNL     1      -5.780   2.449   1.998  0.00  0.00    -0.270 OA
ATOM     26  C   UNL     1      -7.746   2.787   0.665  0.00  0.00    +0.049 A 
ATOM     27  C   UNL     1      -8.577   3.715   1.271  0.00  0.00    +0.014 A 
ATOM     28  C   UNL     1      -9.778   4.058   0.670  0.00  0.00    +0.001 A 
ATOM     29  C   UNL     1     -10.152   3.480  -0.528  0.00  0.00    +0.001 A 
ATOM     30  C   UNL     1      -9.331   2.550  -1.146  0.00  0.00    +0.014 A 
ATOM     31  C   UNL     1      -8.127   2.197  -0.557  0.00  0.00    +0.049 A 
ATOM     32  C   UNL     1      -7.034   1.271  -0.918  0.00  0.00    +0.255 C 
ATOM     33  O   UNL     1      -6.994   0.574  -1.912  0.00  0.00    -0.270 OA
ENDBRANCH  22  23
ENDBRANCH  19  22
ENDBRANCH  18  19
ENDBRANCH   1  18
TORSDOF 7
