REMARK  Name = ZINC11566854
REMARK  7 active torsions:
REMARK  status: ('A' for Active; 'I' for Inactive)
REMARK    1  A    between atoms: C_1  and  C_2
REMARK    2  A    between atoms: C_2  and  C_4
REMARK    3  A    between atoms: C_4  and  C_6
REMARK    4  A    between atoms: C_7  and  N_23
REMARK    5  A    between atoms: N_8  and  C_15
REMARK    6  A    between atoms: C_19  and  O_21
REMARK    7  A    between atoms: O_21  and  C_22
REMARK                            x       y       z     vdW  Elec       q    Type
REMARK                         _______ _______ _______ _____ _____    ______ ____
ROOT
ATOM      1  C   UNL     1      -1.292   7.293  -0.051  0.00  0.00    +0.121 A 
ATOM      2  C   UNL     1      -1.265   5.888  -0.077  0.00  0.00    +0.121 A 
ATOM      3  N   UNL     1      -0.060   5.248   0.016  0.00  0.00    -0.250 N 
ATOM      4  C   UNL     1       1.087   5.934   0.135  0.00  0.00    +0.335 A 
ATOM      5  O   UNL     1       2.131   5.319   0.219  0.00  0.00    -0.246 OA
ATOM      6  N   UNL     1       1.123   7.276   0.160  0.00  0.00    -0.274 N 
ATOM      7  H   UNL     1       2.003   7.745   0.243  0.00  0.00    +0.173 HD
ATOM      8  C   UNL     1      -0.011   8.001   0.076  0.00  0.00    +0.266 A 
ATOM      9  O   UNL     1       0.025   9.218   0.103  0.00  0.00    -0.267 OA
ENDROOT
BRANCH   3  10
ATOM     10  C   UNL     1      -0.023   3.847  -0.009  0.00  0.00    +0.056 A 
ATOM     11  C   UNL     1       0.571   3.186  -1.076  0.00  0.00    +0.026 A 
ATOM     12  C   UNL     1       0.612   1.805  -1.098  0.00  0.00    +0.006 A 
ATOM     13  C   UNL     1       0.053   1.078  -0.064  0.00  0.00    +0.046 A 
ATOM     14  C   UNL     1      -0.542   1.734   1.004  0.00  0.00    +0.122 A 
ATOM     15  C   UNL     1      -0.580   3.119   1.032  0.00  0.00    +0.072 A 
BRANCH  14  16
ATOM     16  O   UNL     1      -1.087   1.018   2.023  0.00  0.00    -0.495 OA
ATOM     17  C   UNL     1      -1.011  -0.406   1.929  0.00  0.00    +0.277 C 
ENDBRANCH  14  16
ENDBRANCH   3  10
BRANCH   2  18
ATOM     18  N   UNL     1      -2.420   5.176  -0.193  0.00  0.00    -0.343 N 
ATOM     19  H   UNL     1      -3.260   5.564   0.100  0.00  0.00    +0.144 HD
ATOM     20  H   UNL     1      -2.403   4.282  -0.567  0.00  0.00    +0.144 HD
ENDBRANCH   2  18
BRANCH   1  21
ATOM     21  C   UNL     1      -2.510   8.000  -0.142  0.00  0.00    +0.189 C 
ATOM     22  O   UNL     1      -3.564   7.397  -0.137  0.00  0.00    -0.290 OA
BRANCH  21  24
ATOM     23  C   UNL     1      -2.423  10.112   1.155  0.00  0.00    +0.033 C 
ATOM     24  C   UNL     1      -2.502   9.504  -0.247  0.00  0.00    +0.149 C 
ATOM     25 CL   UNL     1      -4.013  10.058  -1.059  0.00  0.00    -0.114 Cl
ENDBRANCH  21  24
ENDBRANCH   1  21
TORSDOF 5
