REMARK  Name = ZINC15140908
REMARK  5 active torsions:
REMARK  status: ('A' for Active; 'I' for Inactive)
REMARK    1  A    between atoms: C_3  and  S_11
REMARK    2  A    between atoms: C_6  and  N_7
REMARK    3  A    between atoms: S_11  and  C_12
REMARK    4  A    between atoms: N_17  and  C_18
REMARK    5  A    between atoms: C_18  and  C_19
REMARK                            x       y       z     vdW  Elec       q    Type
REMARK                         _______ _______ _______ _____ _____    ______ ____
ROOT
ATOM      1  C   UNL     1       4.920  -5.024   2.616  0.00  0.00    +0.165 A 
ATOM      2  N   UNL     1       3.584  -4.819   2.856  0.00  0.00    -0.133 NA
ATOM      3  N   UNL     1       2.959  -3.949   2.187  0.00  0.00    -0.125 NA
ATOM      4  C   UNL     1       3.597  -3.207   1.225  0.00  0.00    +0.182 A 
ATOM      5  S   UNL     1       5.214  -3.839   1.310  0.00  0.00    -0.024 S 
ATOM      6  N   UNL     1       3.101  -2.250   0.424  0.00  0.00    -0.320 N 
ATOM      7  H   UNL     1       3.679  -1.807  -0.217  0.00  0.00    +0.148 HD
ENDROOT
BRANCH   1   8
ATOM      8  S   UNL     1       6.006  -6.120   3.359  0.00  0.00    -0.059 S 
BRANCH   8  11
ATOM      9  C   UNL     1       3.970  -7.439   6.572  0.00  0.00    +0.034 A 
ATOM     10  C   UNL     1       4.850  -6.747   5.768  0.00  0.00    +0.019 A 
ATOM     11  C   UNL     1       4.887  -7.004   4.394  0.00  0.00    +0.033 A 
ATOM     12  C   UNL     1       4.036  -7.970   3.847  0.00  0.00    +0.057 A 
ATOM     13  C   UNL     1       3.163  -8.658   4.664  0.00  0.00    +0.053 A 
ATOM     14  C   UNL     1       3.129  -8.394   6.023  0.00  0.00    +0.128 A 
ATOM     15 CL   UNL     1       4.078  -8.303   2.143  0.00  0.00    -0.082 Cl
BRANCH  14  16
ATOM     16  N   UNL     1       2.191  -9.137   6.895  0.00  0.00    +0.056 N 
ATOM     17  O   UNL     1       1.390 -10.046   6.377  0.00  0.00    -0.126 OA
ATOM     18  O   UNL     1       2.156  -8.888   8.188  0.00  0.00    -0.126 OA
ENDBRANCH  14  16
ENDBRANCH   8  11
ENDBRANCH   1   8
BRANCH   6  19
ATOM     19  C   UNL     1       1.688  -1.875   0.519  0.00  0.00    +0.135 C 
BRANCH  19  20
ATOM     20  C   UNL     1       1.385  -0.771  -0.495  0.00  0.00    +0.135 C 
ATOM     21  C   UNL     1      -0.102  -0.359  -0.413  0.00  0.00    +0.035 C 
ATOM     22  C   UNL     1      -0.082   1.169  -0.643  0.00  0.00    +0.031 C 
ATOM     23  C   UNL     1       1.415   1.499  -0.837  0.00  0.00    +0.160 C 
ATOM     24  O   UNL     1       2.119   0.430  -0.169  0.00  0.00    -0.375 OA
ENDBRANCH  19  20
ENDBRANCH   6  19
TORSDOF 5
