REMARK  Name = ZINC06368297
REMARK  8 active torsions:
REMARK  status: ('A' for Active; 'I' for Inactive)
REMARK    1  A    between atoms: C_1  and  C_2
REMARK    2  A    between atoms: C_3  and  C_12
REMARK    3  A    between atoms: C_12  and  C_14
REMARK    4  A    between atoms: C_14  and  O_15
REMARK    5  A    between atoms: O_15  and  C_16
REMARK    6  A    between atoms: C_16  and  C_18
REMARK    7  A    between atoms: C_18  and  N_19
REMARK    8  A    between atoms: C_27  and  C_29
REMARK                            x       y       z     vdW  Elec       q    Type
REMARK                         _______ _______ _______ _____ _____    ______ ____
ROOT
ATOM      1  C   UNL     1      -6.992   5.505   0.415  0.00  0.00    +0.326 C 
ATOM      2  O   UNL     1      -6.721   6.682   0.428  0.00  0.00    -0.249 OA
ENDROOT
BRANCH   1   3
ATOM      3  O   UNL     1      -6.016   4.592   0.296  0.00  0.00    -0.455 OA
BRANCH   3   4
ATOM      4  C   UNL     1      -4.656   5.091   0.186  0.00  0.00    +0.311 C 
BRANCH   4   5
ATOM      5  C   UNL     1      -3.704   3.930   0.061  0.00  0.00    +0.203 C 
ATOM      6  O   UNL     1      -4.134   2.799  -0.033  0.00  0.00    -0.288 OA
BRANCH   5   9
ATOM      7  C   UNL     1      -1.964   4.252  -2.485  0.00  0.00    +0.064 C 
ATOM      8  C   UNL     1      -1.496   4.308  -1.053  0.00  0.00    +0.025 A 
ATOM      9  C   UNL     1      -2.305   4.160   0.053  0.00  0.00    +0.049 A 
ATOM     10  C   UNL     1      -1.421   4.287   1.229  0.00  0.00    +0.011 A 
ATOM     11  C   UNL     1      -1.627   4.229   2.604  0.00  0.00    +0.011 A 
ATOM     12  C   UNL     1      -0.560   4.397   3.461  0.00  0.00    +0.001 A 
ATOM     13  C   UNL     1       0.714   4.612   2.958  0.00  0.00    +0.002 A 
ATOM     14  C   UNL     1       0.932   4.668   1.598  0.00  0.00    +0.026 A 
ATOM     15  C   UNL     1      -0.133   4.506   0.717  0.00  0.00    +0.047 A 
ATOM     16  N   UNL     1      -0.224   4.510  -0.660  0.00  0.00    -0.358 N 
ATOM     17  H   UNL     1       0.525   4.642  -1.262  0.00  0.00    +0.166 HD
ENDBRANCH   5   9
ENDBRANCH   4   5
ENDBRANCH   3   4
ENDBRANCH   1   3
BRANCH   1  18
ATOM     18  C   UNL     1      -8.428   5.061   0.533  0.00  0.00    +0.238 C 
BRANCH  18  19
ATOM     19  N   UNL     1      -9.294   6.237   0.651  0.00  0.00    -0.213 N 
ATOM     20  C   UNL     1      -9.845   6.881  -0.398  0.00  0.00    +0.247 C 
ATOM     21  O   UNL     1      -9.722   6.608  -1.573  0.00  0.00    -0.273 OA
ATOM     22  C   UNL     1     -10.647   8.014   0.199  0.00  0.00    +0.115 C 
ATOM     23  C   UNL     1     -10.113   9.357  -0.287  0.00  0.00    +0.035 C 
ATOM     24  C   UNL     1     -10.301   9.464  -1.802  0.00  0.00    +0.003 C 
ATOM     25  C   UNL     1     -11.788   9.334  -2.141  0.00  0.00    +0.000 C 
ATOM     26  C   UNL     1     -12.304   7.974  -1.666  0.00  0.00    +0.006 C 
ATOM     27  C   UNL     1     -12.123   7.862  -0.150  0.00  0.00    +0.018 C 
ATOM     28  C   UNL     1     -12.621   6.495   0.323  0.00  0.00    +0.010 C 
ATOM     29  N   UNL     1     -10.442   7.872   1.646  0.00  0.00    -0.285 N 
ATOM     30  C   UNL     1      -9.642   6.802   1.814  0.00  0.00    +0.310 C 
ATOM     31  O   UNL     1      -9.273   6.397   2.899  0.00  0.00    -0.252 OA
ATOM     32  H   UNL     1     -10.813   8.435   2.344  0.00  0.00    +0.151 HD
ENDBRANCH  18  19
ENDBRANCH   1  18
TORSDOF 6
