REMARK  Name = ZINC12710384
REMARK  7 active torsions:
REMARK  status: ('A' for Active; 'I' for Inactive)
REMARK    1  A    between atoms: C_3  and  C_11
REMARK    2  A    between atoms: C_5  and  C_7
REMARK    3  A    between atoms: C_11  and  N_47
REMARK    4  A    between atoms: C_17  and  C_19
REMARK    5  A    between atoms: C_19  and  C_20
REMARK    6  A    between atoms: N_22  and  C_23
REMARK    7  A    between atoms: C_23  and  C_24
REMARK                            x       y       z     vdW  Elec       q    Type
REMARK                         _______ _______ _______ _____ _____    ______ ____
ROOT
ATOM      1  C   UNL     1       1.488  -0.434  -0.601  0.00  0.00    -0.058 C 
ATOM      2  C   UNL     1       0.083  -0.051  -0.132  0.00  0.00    +0.085 C 
ATOM      3  N   UNL     1      -0.014   1.398   0.024  0.00  0.00    -0.318 N 
ATOM      4  C   UNL     1       1.058   2.191   0.128  0.00  0.00    +0.200 C 
ATOM      5  O   UNL     1       0.886   3.381   0.286  0.00  0.00    -0.278 OA
ATOM      6  C   UNL     1       2.465   1.670   0.057  0.00  0.00    +0.028 C 
ATOM      7  H   UNL     1      -0.895   1.804   0.049  0.00  0.00    +0.149 HD
ATOM      8  N   UNL     1       2.463   0.214   0.298  0.00  0.00    +0.391 N 
ATOM      9  H   UNL     1       2.192   0.035   1.272  0.00  0.00    -0.080 HD
ENDROOT
BRANCH   8  10
ATOM     10  C   UNL     1       3.816  -0.340   0.064  0.00  0.00    -0.042 C 
BRANCH  10  13
ATOM     11  C   UNL     1       3.663  -4.071   0.619  0.00  0.00    +0.001 A 
ATOM     12  C   UNL     1       3.577  -2.830   0.014  0.00  0.00    +0.002 A 
ATOM     13  C   UNL     1       3.909  -1.692   0.723  0.00  0.00    -0.063 A 
ATOM     14  C   UNL     1       4.333  -1.793   2.036  0.00  0.00    +0.014 A 
ATOM     15  C   UNL     1       4.415  -3.033   2.642  0.00  0.00    +0.055 A 
ATOM     16  C   UNL     1       4.082  -4.172   1.933  0.00  0.00    +0.012 A 
BRANCH  15  17
ATOM     17  C   UNL     1       4.872  -3.143   4.073  0.00  0.00    +0.417 C 
ATOM     18  F   UNL     1       4.877  -4.487   4.459  0.00  0.00    -0.166 F 
ATOM     19  F   UNL     1       6.163  -2.618   4.192  0.00  0.00    -0.166 F 
ATOM     20  F   UNL     1       3.999  -2.425   4.898  0.00  0.00    -0.166 F 
ENDBRANCH  15  17
ENDBRANCH  10  13
ENDBRANCH   8  10
BRANCH   6  21
ATOM     21  C   UNL     1       3.313   2.350   1.133  0.00  0.00    +0.089 C 
BRANCH  21  22
ATOM     22  C   UNL     1       2.766   2.010   2.495  0.00  0.00    +0.212 C 
ATOM     23  O   UNL     1       1.857   1.213   2.602  0.00  0.00    -0.276 OA
ATOM     24  N   UNL     1       3.285   2.590   3.595  0.00  0.00    -0.310 N 
ATOM     25  H   UNL     1       4.011   3.228   3.510  0.00  0.00    +0.149 HD
BRANCH  24  26
ATOM     26  C   UNL     1       2.753   2.259   4.919  0.00  0.00    +0.163 C 
BRANCH  26  27
ATOM     27  C   UNL     1       3.501   3.038   5.970  0.00  0.00    +0.101 A 
ATOM     28  C   UNL     1       3.118   4.273   6.541  0.00  0.00    +0.069 A 
ATOM     29  C   UNL     1       4.110   4.548   7.421  0.00  0.00    +0.230 A 
ATOM     30  O   UNL     1       4.981   3.532   7.341  0.00  0.00    -0.363 OA
ATOM     31  N   UNL     1       4.624   2.703   6.537  0.00  0.00    -0.082 NA
ENDBRANCH  26  27
ENDBRANCH  24  26
ENDBRANCH  21  22
ENDBRANCH   6  21
TORSDOF 7
