REMARK  Name = ZINC16924109
REMARK  8 active torsions:
REMARK  status: ('A' for Active; 'I' for Inactive)
REMARK    1  A    between atoms: C_1  and  C_2
REMARK    2  A    between atoms: C_5  and  C_30
REMARK    3  A    between atoms: C_6  and  N_8
REMARK    4  A    between atoms: C_11  and  C_16
REMARK    5  A    between atoms: C_16  and  C_17
REMARK    6  A    between atoms: N_19  and  C_20
REMARK    7  A    between atoms: C_22  and  N_27
REMARK    8  A    between atoms: C_25  and  O_26
REMARK                            x       y       z     vdW  Elec       q    Type
REMARK                         _______ _______ _______ _____ _____    ______ ____
ROOT
ATOM      1  C   UNL     1       1.801  -5.249   4.109  0.00  0.00    +0.120 C 
ENDROOT
BRANCH   1   5
ATOM      2  N   UNL     1       0.011  -2.820   2.395  0.00  0.00    -0.200 N 
ATOM      3  C   UNL     1       1.187  -3.110   2.926  0.00  0.00    +0.241 C 
ATOM      4  O   UNL     1       2.232  -2.787   2.403  0.00  0.00    -0.274 OA
ATOM      5  C   UNL     1       1.138  -3.876   4.241  0.00  0.00    +0.151 C 
ATOM      6  S   UNL     1      -0.685  -4.027   4.448  0.00  0.00    -0.054 S 
ATOM      7  C   UNL     1      -1.162  -3.162   2.959  0.00  0.00    +0.286 C 
ATOM      8  O   UNL     1      -2.285  -2.937   2.550  0.00  0.00    -0.262 OA
BRANCH   2  14
ATOM      9  C   UNL     1      -0.094   1.473  -0.003  0.00  0.00    +0.044 C 
ATOM     10  C   UNL     1      -0.066  -0.034  -0.007  0.00  0.00    -0.049 A 
ATOM     11  C   UNL     1      -0.067  -0.722  -1.206  0.00  0.00    +0.004 A 
ATOM     12  C   UNL     1      -0.041  -2.104  -1.214  0.00  0.00    +0.005 A 
ATOM     13  C   UNL     1      -0.015  -2.802  -0.022  0.00  0.00    -0.029 A 
ATOM     14  C   UNL     1      -0.015  -2.115   1.184  0.00  0.00    +0.048 A 
ATOM     15  C   UNL     1      -0.035  -0.726   1.188  0.00  0.00    +0.027 A 
ATOM     16  C   UNL     1       0.012  -4.309  -0.030  0.00  0.00    +0.045 C 
ENDBRANCH   2  14
ENDBRANCH   1   5
BRANCH   1  17
ATOM     17  C   UNL     1       1.839  -5.919   5.459  0.00  0.00    +0.219 C 
ATOM     18  O   UNL     1       1.382  -5.354   6.430  0.00  0.00    -0.275 OA
ATOM     19  N   UNL     1       2.382  -7.146   5.586  0.00  0.00    -0.282 N 
ATOM     20  H   UNL     1       2.689  -7.625   4.801  0.00  0.00    +0.155 HD
BRANCH  19  21
ATOM     21  C   UNL     1       2.502  -7.730   6.854  0.00  0.00    +0.078 A 
ATOM     22  C   UNL     1       1.534  -7.500   7.821  0.00  0.00    +0.059 A 
ATOM     23  C   UNL     1       1.655  -8.078   9.071  0.00  0.00    +0.128 A 
ATOM     24  C   UNL     1       2.740  -8.885   9.361  0.00  0.00    +0.036 A 
ATOM     25  C   UNL     1       3.709  -9.118   8.403  0.00  0.00    +0.049 A 
ATOM     26  C   UNL     1       3.591  -8.548   7.146  0.00  0.00    +0.138 A 
BRANCH  23  27
ATOM     27  N   UNL     1       0.622  -7.831  10.101  0.00  0.00    +0.056 N 
ATOM     28  O   UNL     1      -0.327  -7.125   9.849  0.00  0.00    -0.126 OA
ATOM     29  O   UNL     1       0.726  -8.335  11.195  0.00  0.00    -0.126 OA
ENDBRANCH  23  27
BRANCH  26  30
ATOM     30  O   UNL     1       4.541  -8.782   6.200  0.00  0.00    -0.505 OA
ATOM     31  H   UNL     1       5.269  -8.145   6.208  0.00  0.00    +0.292 HD
ENDBRANCH  26  30
ENDBRANCH  19  21
ENDBRANCH   1  17
TORSDOF 6
