REMARK  Name = ZINC08726923
REMARK  7 active torsions:
REMARK  status: ('A' for Active; 'I' for Inactive)
REMARK    1  A    between atoms: C_1  and  C_2
REMARK    2  A    between atoms: C_2  and  C_29
REMARK    3  A    between atoms: N_5  and  C_9
REMARK    4  A    between atoms: C_9  and  C_10
REMARK    5  A    between atoms: C_15  and  N_18
REMARK    6  A    between atoms: C_29  and  C_30
REMARK    7  A    between atoms: C_30  and  C_31
REMARK                            x       y       z     vdW  Elec       q    Type
REMARK                         _______ _______ _______ _____ _____    ______ ____
ROOT
ATOM      1  C   UNL     1       1.647   5.143   2.446  0.00  0.00    +0.234 C 
ATOM      2  O   UNL     1       2.281   4.409   1.717  0.00  0.00    -0.274 OA
ATOM      3  N   UNL     1       2.133   6.359   2.764  0.00  0.00    -0.300 N 
ATOM      4  C   UNL     1       1.375   7.262   3.641  0.00  0.00    +0.110 C 
ATOM      5  C   UNL     1       2.285   7.694   4.801  0.00  0.00    +0.044 C 
ATOM      6  C   UNL     1       3.571   8.302   4.235  0.00  0.00    +0.095 C 
ATOM      7  C   UNL     1       4.312   7.249   3.408  0.00  0.00    +0.044 C 
ATOM      8  C   UNL     1       3.429   6.810   2.237  0.00  0.00    +0.110 C 
ENDROOT
BRANCH   6   9
ATOM      9  N   UNL     1       4.426   8.748   5.338  0.00  0.00    -0.289 N 
ATOM     10  C   UNL     1       4.861  10.054   5.554  0.00  0.00    +0.070 A 
ATOM     11  C   UNL     1       4.659  11.248   4.880  0.00  0.00    +0.028 A 
ATOM     12  C   UNL     1       5.238  12.410   5.351  0.00  0.00    +0.002 A 
ATOM     13  C   UNL     1       6.018  12.387   6.495  0.00  0.00    +0.002 A 
ATOM     14  C   UNL     1       6.224  11.202   7.174  0.00  0.00    +0.028 A 
ATOM     15  C   UNL     1       5.647  10.030   6.708  0.00  0.00    +0.067 A 
ATOM     16  N   UNL     1       5.666   8.712   7.156  0.00  0.00    -0.306 N 
ATOM     17  H   UNL     1       6.134   8.386   7.941  0.00  0.00    +0.170 HD
ATOM     18  C   UNL     1       4.921   7.968   6.317  0.00  0.00    +0.328 A 
ATOM     19  O   UNL     1       4.727   6.772   6.425  0.00  0.00    -0.247 OA
ENDBRANCH   6   9
BRANCH   1  20
ATOM     20  C   UNL     1       0.318   4.696   2.995  0.00  0.00    +0.213 C 
BRANCH  20  25
ATOM     21  C   UNL     1      -0.013   1.086   0.008  0.00  0.00    +0.041 C 
ATOM     22  C   UNL     1      -0.729   1.579   1.267  0.00  0.00    +0.110 C 
ATOM     23  C   UNL     1      -0.654   3.090   1.365  0.00  0.00    +0.247 C 
ATOM     24  O   UNL     1      -1.103   3.898   0.580  0.00  0.00    -0.273 OA
ATOM     25  N   UNL     1       0.015   3.349   2.506  0.00  0.00    -0.215 N 
ATOM     26  C   UNL     1       0.371   2.223   3.135  0.00  0.00    +0.310 C 
ATOM     27  O   UNL     1       0.984   2.200   4.184  0.00  0.00    -0.252 OA
ATOM     28  N   UNL     1      -0.026   1.119   2.477  0.00  0.00    -0.285 N 
ATOM     29  H   UNL     1       0.121   0.199   2.746  0.00  0.00    +0.151 HD
BRANCH  22  30
ATOM     30  C   UNL     1      -2.184   1.107   1.276  0.00  0.00    +0.039 C 
BRANCH  30  31
ATOM     31  C   UNL     1      -2.224  -0.420   1.358  0.00  0.00    +0.037 C 
BRANCH  31  32
ATOM     32  C   UNL     1      -3.657  -0.886   1.367  0.00  0.00    -0.047 A 
ATOM     33  C   UNL     1      -4.326  -1.041   2.567  0.00  0.00    +0.003 A 
ATOM     34  C   UNL     1      -5.642  -1.463   2.576  0.00  0.00    +0.000 A 
ATOM     35  C   UNL     1      -6.287  -1.740   1.385  0.00  0.00    +0.000 A 
ATOM     36  C   UNL     1      -5.617  -1.590   0.185  0.00  0.00    +0.000 A 
ATOM     37  C   UNL     1      -4.302  -1.163   0.176  0.00  0.00    +0.003 A 
ENDBRANCH  31  32
ENDBRANCH  30  31
ENDBRANCH  22  30
ENDBRANCH  20  25
ENDBRANCH   1  20
TORSDOF 6
