REMARK  Name = ZINC28227859
REMARK  9 active torsions:
REMARK  status: ('A' for Active; 'I' for Inactive)
REMARK    1  A    between atoms: C_1  and  C_2
REMARK    2  A    between atoms: C_2  and  N_3
REMARK    3  A    between atoms: N_3  and  C_4
REMARK    4  A    between atoms: N_9  and  C_12
REMARK    5  A    between atoms: C_19  and  C_23
REMARK    6  A    between atoms: C_20  and  C_21
REMARK    7  A    between atoms: C_20  and  C_22
REMARK    8  A    between atoms: C_23  and  S_24
REMARK    9  A    between atoms: S_24  and  N_27
REMARK                            x       y       z     vdW  Elec       q    Type
REMARK                         _______ _______ _______ _____ _____    ______ ____
ROOT
ATOM      1  C   UNL     1      -1.788  -4.066   3.416  0.00  0.00    +0.093 C 
ATOM      2  C   UNL     1      -2.978  -3.705   4.335  0.00  0.00    +0.027 C 
ATOM      3  C   UNL     1      -3.833  -5.007   4.402  0.00  0.00    -0.003 C 
ATOM      4  C   UNL     1      -4.475  -5.126   2.986  0.00  0.00    +0.005 C 
ATOM      5  C   UNL     1      -3.296  -5.481   2.051  0.00  0.00    +0.011 C 
ATOM      6  C   UNL     1      -2.033  -5.553   3.015  0.00  0.00    +0.016 C 
ATOM      7  C   UNL     1      -2.708  -6.098   4.325  0.00  0.00    -0.023 C 
ATOM      8  C   UNL     1      -1.761  -6.031   5.525  0.00  0.00    +0.012 C 
ATOM      9  C   UNL     1      -3.282  -7.503   4.133  0.00  0.00    +0.012 C 
ENDROOT
BRANCH   1  14
ATOM     10  C   UNL     1      -1.024  -1.782   0.554  0.00  0.00    +0.025 C 
ATOM     11  C   UNL     1      -2.522  -2.074   0.337  0.00  0.00    +0.090 C 
ATOM     12  C   UNL     1      -2.873  -3.001   1.480  0.00  0.00    +0.221 C 
ATOM     13  O   UNL     1      -3.968  -3.478   1.687  0.00  0.00    -0.275 OA
ATOM     14  N   UNL     1      -1.782  -3.210   2.227  0.00  0.00    -0.240 N 
ATOM     15  C   UNL     1      -0.681  -2.574   1.797  0.00  0.00    +0.208 C 
ATOM     16  O   UNL     1       0.412  -2.624   2.318  0.00  0.00    -0.277 OA
BRANCH  10  17
ATOM     17  N   UNL     1      -0.804  -0.347   0.779  0.00  0.00    +0.387 N 
ATOM     18  H   UNL     1      -1.279  -0.062   1.623  0.00  0.00    -0.085 HD
ATOM     19  H   UNL     1      -1.168   0.176  -0.004  0.00  0.00    -0.085 HD
BRANCH  17  21
ATOM     20  C   UNL     1       0.864   1.407   1.150  0.00  0.00    -0.017 C 
ATOM     21  C   UNL     1       0.635  -0.087   0.915  0.00  0.00    -0.085 C 
ENDBRANCH  17  21
ENDBRANCH  10  17
ENDBRANCH   1  14
BRANCH   6  22
ATOM     22  C   UNL     1      -0.813  -6.315   2.494  0.00  0.00    +0.194 C 
BRANCH  22  23
ATOM     23  S   UNL     1      -0.365  -5.689   0.851  0.00  0.00    +0.032 S 
ATOM     24  O   UNL     1      -1.485  -5.759  -0.021  0.00  0.00    -0.158 OA
ATOM     25  O   UNL     1       0.384  -4.488   0.973  0.00  0.00    -0.158 OA
BRANCH  23  26
ATOM     26  N   UNL     1       0.708  -6.798   0.251  0.00  0.00    -0.181 NA
ATOM     27  C   UNL     1       2.150  -6.651   0.494  0.00  0.00    +0.110 C 
ATOM     28  C   UNL     1       2.882  -6.682  -0.852  0.00  0.00    +0.028 C 
ATOM     29  C   UNL     1       2.487  -7.944  -1.614  0.00  0.00    -0.001 C 
ATOM     30  C   UNL     1       2.903  -9.193  -0.814  0.00  0.00    +0.016 C 
ATOM     31  C   UNL     1       4.301  -9.503  -1.391  0.00  0.00    +0.036 C 
ATOM     32  C   UNL     1       4.290  -8.925  -2.791  0.00  0.00    -0.044 A 
ATOM     33  C   UNL     1       3.244  -8.028  -2.918  0.00  0.00    -0.038 A 
ATOM     34  C   UNL     1       3.042  -7.374  -4.121  0.00  0.00    +0.004 A 
ATOM     35  C   UNL     1       3.878  -7.615  -5.194  0.00  0.00    +0.000 A 
ATOM     36  C   UNL     1       4.922  -8.511  -5.066  0.00  0.00    +0.000 A 
ATOM     37  C   UNL     1       5.127  -9.165  -3.867  0.00  0.00    +0.004 A 
ATOM     38  C   UNL     1       0.983  -7.969  -1.872  0.00  0.00    +0.028 C 
ATOM     39  C   UNL     1       0.236  -7.950  -0.529  0.00  0.00    +0.110 C 
ENDBRANCH  23  26
ENDBRANCH  22  23
ENDBRANCH   6  22
TORSDOF 6
