REMARK  Name = ZINC14923613
REMARK  9 active torsions:
REMARK  status: ('A' for Active; 'I' for Inactive)
REMARK    1  A    between atoms: C_1  and  C_2
REMARK    2  A    between atoms: C_2  and  C_17
REMARK    3  A    between atoms: N_3  and  N_4
REMARK    4  A    between atoms: C_5  and  C_7
REMARK    5  A    between atoms: C_10  and  N_14
REMARK    6  A    between atoms: C_17  and  C_18
REMARK    7  A    between atoms: N_20  and  C_21
REMARK    8  A    between atoms: C_25  and  O_27
REMARK    9  A    between atoms: O_27  and  C_28
REMARK                            x       y       z     vdW  Elec       q    Type
REMARK                         _______ _______ _______ _____ _____    ______ ____
ROOT
ATOM      1  C   UNL     1       3.340   7.597   1.524  0.00  0.00    +0.063 C 
ATOM      2  C   UNL     1       2.482   7.951   0.337  0.00  0.00    +0.043 C 
ATOM      3  N   UNL     1       2.953   8.691  -0.596  0.00  0.00    -0.189 NA
ENDROOT
BRANCH   3   4
ATOM      4  N   UNL     1       4.266   9.172  -0.512  0.00  0.00    -0.203 N 
ATOM      5  C   UNL     1       4.762   9.951  -1.494  0.00  0.00    +0.263 C 
ATOM      6  O   UNL     1       4.069  10.236  -2.452  0.00  0.00    -0.268 OA
ATOM      7  H   UNL     1       4.818   8.945   0.252  0.00  0.00    +0.178 HD
BRANCH   5   8
ATOM      8  C   UNL     1       6.147  10.459  -1.406  0.00  0.00    +0.040 A 
ATOM      9  C   UNL     1       6.943  10.138  -0.304  0.00  0.00    +0.015 A 
ATOM     10  C   UNL     1       8.236  10.611  -0.230  0.00  0.00    +0.035 A 
ATOM     11  C   UNL     1       8.743  11.411  -1.239  0.00  0.00    +0.144 A 
ATOM     12  C   UNL     1       7.958  11.737  -2.332  0.00  0.00    +0.072 A 
ATOM     13  C   UNL     1       6.663  11.266  -2.421  0.00  0.00    +0.035 A 
ATOM     14 CL   UNL     1       8.603  12.741  -3.593  0.00  0.00    -0.081 Cl
BRANCH  11  15
ATOM     15  N   UNL     1      10.130  11.920  -1.150  0.00  0.00    +0.058 N 
ATOM     16  O   UNL     1      10.823  11.634  -0.189  0.00  0.00    -0.126 OA
ATOM     17  O   UNL     1      10.579  12.624  -2.036  0.00  0.00    -0.126 OA
ENDBRANCH  11  15
ENDBRANCH   5   8
ENDBRANCH   3   4
BRANCH   2  18
ATOM     18  C   UNL     1       1.070   7.433   0.247  0.00  0.00    +0.148 C 
BRANCH  18  19
ATOM     19  C   UNL     1       1.092   5.931   0.125  0.00  0.00    +0.223 C 
ATOM     20  O   UNL     1       2.151   5.339   0.113  0.00  0.00    -0.275 OA
ATOM     21  N   UNL     1      -0.064   5.245   0.030  0.00  0.00    -0.285 N 
ATOM     22  H   UNL     1      -0.907   5.721  -0.027  0.00  0.00    +0.155 HD
BRANCH  21  23
ATOM     23  C   UNL     1      -0.049   3.846   0.015  0.00  0.00    +0.037 A 
ATOM     24  C   UNL     1      -1.074   3.132   0.623  0.00  0.00    +0.023 A 
ATOM     25  C   UNL     1      -1.058   1.751   0.607  0.00  0.00    +0.005 A 
ATOM     26  C   UNL     1      -0.024   1.076  -0.013  0.00  0.00    +0.046 A 
ATOM     27  C   UNL     1       1.005   1.784  -0.617  0.00  0.00    +0.122 A 
ATOM     28  C   UNL     1       0.990   3.170  -0.609  0.00  0.00    +0.069 A 
BRANCH  27  29
ATOM     29  O   UNL     1       2.024   1.118  -1.222  0.00  0.00    -0.495 OA
ATOM     30  C   UNL     1       1.972  -0.309  -1.197  0.00  0.00    +0.277 C 
ENDBRANCH  27  29
ENDBRANCH  21  23
ENDBRANCH  18  19
ENDBRANCH   2  18
TORSDOF 7
