REMARK  Name = ZINC20080261
REMARK  9 active torsions:
REMARK  status: ('A' for Active; 'I' for Inactive)
REMARK    1  A    between atoms: C_1  and  C_2
REMARK    2  A    between atoms: C_6  and  N_9
REMARK    3  A    between atoms: C_7  and  C_8
REMARK    4  A    between atoms: N_12  and  C_15
REMARK    5  A    between atoms: C_15  and  C_17
REMARK    6  A    between atoms: C_15  and  C_31
REMARK    7  A    between atoms: C_22  and  O_29
REMARK    8  A    between atoms: O_29  and  C_30
REMARK    9  A    between atoms: N_35  and  C_36
REMARK                            x       y       z     vdW  Elec       q    Type
REMARK                         _______ _______ _______ _____ _____    ______ ____
ROOT
ATOM      1  C   UNL     1       2.591  -0.626  -0.056  0.00  0.00    +0.162 C 
ENDROOT
BRANCH   1   2
ATOM      2  C   UNL     1       3.080  -1.143   1.272  0.00  0.00    +0.042 A 
ATOM      3  C   UNL     1       3.333  -0.275   2.284  0.00  0.00    +0.021 A 
ATOM      4  C   UNL     1       3.802  -0.809   3.562  0.00  0.00    -0.001 A 
ATOM      5  C   UNL     1       4.074   0.038   4.643  0.00  0.00    +0.013 A 
ATOM      6  C   UNL     1       4.515  -0.488   5.822  0.00  0.00    +0.046 A 
ATOM      7  C   UNL     1       4.697  -1.863   5.960  0.00  0.00    +0.122 A 
ATOM      8  C   UNL     1       4.433  -2.717   4.903  0.00  0.00    +0.072 A 
ATOM      9  C   UNL     1       3.983  -2.200   3.695  0.00  0.00    +0.053 A 
ATOM     10  N   UNL     1       3.714  -3.027   2.626  0.00  0.00    -0.322 N 
ATOM     11  H   UNL     1       3.854  -4.114   2.722  0.00  0.00    +0.169 HD
ATOM     12  C   UNL     1       3.278  -2.527   1.456  0.00  0.00    +0.254 A 
ATOM     13  O   UNL     1       3.049  -3.288   0.532  0.00  0.00    -0.268 OA
BRANCH   7  14
ATOM     14  O   UNL     1       5.137  -2.369   7.140  0.00  0.00    -0.495 OA
ATOM     15  C   UNL     1       5.391  -1.436   8.192  0.00  0.00    +0.277 C 
ENDBRANCH   7  14
ENDBRANCH   1   2
BRANCH   1  19
ATOM     16  N   UNL     1       5.429  -0.506  -3.183  0.00  0.00    -0.327 N 
ATOM     17  C   UNL     1       4.076  -0.986  -3.499  0.00  0.00    +0.120 C 
ATOM     18  C   UNL     1       3.102  -0.505  -2.420  0.00  0.00    +0.104 C 
ATOM     19  N   UNL     1       3.542  -1.003  -1.109  0.00  0.00    -0.286 NA
ATOM     20  C   UNL     1       4.895  -0.523  -0.794  0.00  0.00    +0.104 C 
ATOM     21  C   UNL     1       5.869  -1.004  -1.872  0.00  0.00    +0.120 C 
BRANCH  16  27
ATOM     22  C   UNL     1       8.676   0.823  -6.624  0.00  0.00    +0.044 C 
ATOM     23  C   UNL     1       7.922  -0.242  -5.870  0.00  0.00    -0.046 A 
ATOM     24  C   UNL     1       8.126  -1.576  -6.169  0.00  0.00    +0.004 A 
ATOM     25  C   UNL     1       7.436  -2.556  -5.479  0.00  0.00    +0.002 A 
ATOM     26  C   UNL     1       6.541  -2.204  -4.488  0.00  0.00    +0.023 A 
ATOM     27  C   UNL     1       6.333  -0.865  -4.185  0.00  0.00    +0.033 A 
ATOM     28  C   UNL     1       7.024   0.117  -4.884  0.00  0.00    -0.027 A 
ATOM     29  C   UNL     1       6.798   1.572  -4.563  0.00  0.00    +0.046 C 
ENDBRANCH  16  27
ENDBRANCH   1  19
BRANCH   1  30
ATOM     30  C   UNL     1       2.475   0.876   0.002  0.00  0.00    +0.173 A 
ATOM     31  N   UNL     1       3.461   1.738  -0.030  0.00  0.00    -0.111 NA
ATOM     32  N   UNL     1       2.957   2.922   0.042  0.00  0.00    -0.023 NA
ATOM     33  N   UNL     1       1.674   2.837   0.112  0.00  0.00    -0.044 NA
ATOM     34  N   UNL     1       1.339   1.591   0.096  0.00  0.00    -0.224 N 
BRANCH  34  35
ATOM     35  C   UNL     1      -0.024   1.056   0.161  0.00  0.00    +0.111 C 
ATOM     36  C   UNL     1      -0.719   1.538   1.452  0.00  0.00    +0.027 C 
ATOM     37  C   UNL     1      -1.522   2.786   1.006  0.00  0.00    +0.002 C 
ATOM     38  C   UNL     1      -2.032   2.381  -0.400  0.00  0.00    +0.002 C 
ATOM     39  C   UNL     1      -0.858   1.593  -1.015  0.00  0.00    +0.027 C 
ENDBRANCH  34  35
ENDBRANCH   1  30
TORSDOF 6
