REMARK  Name = ZINC42350316
REMARK  7 active torsions:
REMARK  status: ('A' for Active; 'I' for Inactive)
REMARK    1  A    between atoms: C_1  and  C_2
REMARK    2  A    between atoms: C_2  and  C_4
REMARK    3  A    between atoms: C_2  and  N_8
REMARK    4  A    between atoms: N_6  and  C_7
REMARK    5  A    between atoms: N_8  and  S_9
REMARK    6  A    between atoms: S_9  and  C_12
REMARK    7  A    between atoms: N_14  and  C_17
REMARK                            x       y       z     vdW  Elec       q    Type
REMARK                         _______ _______ _______ _____ _____    ______ ____
ROOT
ATOM      1  S   UNL     1      -0.188  -0.875  -2.551  0.00  0.00    +0.079 S 
ATOM      2  O   UNL     1       0.751  -1.265  -3.545  0.00  0.00    -0.151 OA
ATOM      3  O   UNL     1      -1.236  -1.730  -2.117  0.00  0.00    -0.151 OA
ENDROOT
BRANCH   1   4
ATOM      4  C   UNL     1      -0.951   0.603  -3.133  0.00  0.00    +0.230 A 
ATOM      5  C   UNL     1      -2.162   1.067  -2.765  0.00  0.00    +0.156 A 
ATOM      6  N   UNL     1      -2.363   2.235  -3.450  0.00  0.00    -0.323 N 
ATOM      7  C   UNL     1      -1.267   2.444  -4.214  0.00  0.00    +0.202 A 
ATOM      8  N   UNL     1      -0.425   1.467  -4.015  0.00  0.00    -0.215 NA
ATOM      9  C   UNL     1      -3.545   3.096  -3.371  0.00  0.00    +0.151 C 
ATOM     10 CL   UNL     1      -3.255   0.326  -1.639  0.00  0.00    -0.060 Cl
ENDBRANCH   1   4
BRANCH   1  11
ATOM     11  N   UNL     1       0.688  -0.476  -1.203  0.00  0.00    -0.177 NA
ATOM     12  H   UNL     1       1.655  -0.556  -1.212  0.00  0.00    +0.149 HD
BRANCH  11  14
ATOM     13  C   UNL     1      -0.019   1.526   0.010  0.00  0.00    +0.035 C 
ATOM     14  C   UNL     1       0.002  -0.004   0.002  0.00  0.00    +0.159 C 
BRANCH  14  15
ATOM     15  C   UNL     1       0.731  -0.503   1.223  0.00  0.00    +0.231 C 
ATOM     16  O   UNL     1       1.725  -1.187   1.099  0.00  0.00    -0.274 OA
ATOM     17  N   UNL     1       0.278  -0.191   2.453  0.00  0.00    -0.317 N 
ATOM     18  C   UNL     1       0.986  -0.676   3.640  0.00  0.00    +0.128 C 
ATOM     19  H   UNL     1      -0.517   0.356   2.553  0.00  0.00    +0.148 HD
ENDBRANCH  14  15
ENDBRANCH  11  14
ENDBRANCH   1  11
TORSDOF 4
