REMARK  Name = ZINC34998514
REMARK  11 active torsions:
REMARK  status: ('A' for Active; 'I' for Inactive)
REMARK    1  A    between atoms: C_1  and  C_2
REMARK    2  A    between atoms: C_9  and  C_11
REMARK    3  A    between atoms: C_11  and  C_12
REMARK    4  A    between atoms: C_12  and  C_13
REMARK    5  A    between atoms: C_18  and  C_20
REMARK    6  A    between atoms: C_20  and  C_22
REMARK    7  A    between atoms: C_20  and  N_25
REMARK    8  A    between atoms: C_22  and  C_23
REMARK    9  A    between atoms: C_22  and  C_24
REMARK   10  A    between atoms: C_26  and  C_28
REMARK   11  A    between atoms: C_32  and  N_34
REMARK                            x       y       z     vdW  Elec       q    Type
REMARK                         _______ _______ _______ _____ _____    ______ ____
ROOT
ATOM      1  C   UNL     1      -0.278   2.431   0.124  0.00  0.00    +0.029 C 
ATOM      2  C   UNL     1       0.319   1.066   0.470  0.00  0.00    +0.090 C 
ATOM      3  C   UNL     1      -0.795   0.014   0.518  0.00  0.00    +0.130 C 
ATOM      4  N   UNL     1      -1.630   0.267   1.701  0.00  0.00    -0.297 N 
ATOM      5  C   UNL     1      -0.986   0.330   3.021  0.00  0.00    +0.127 C 
ATOM      6  C   UNL     1       0.128   1.383   2.973  0.00  0.00    +0.127 C 
ATOM      7  N   UNL     1       0.966   1.130   1.788  0.00  0.00    -0.296 N 
ATOM      8  C   UNL     1       2.297   0.958   1.908  0.00  0.00    +0.216 C 
ATOM      9  O   UNL     1       2.973   0.747   0.923  0.00  0.00    -0.276 OA
ATOM     10  C   UNL     1      -2.961   0.439   1.578  0.00  0.00    +0.236 C 
ATOM     11  O   UNL     1      -3.468   0.475   0.477  0.00  0.00    -0.274 OA
ENDROOT
BRANCH   8  12
ATOM     12  C   UNL     1       2.947   1.026   3.266  0.00  0.00    +0.096 C 
BRANCH  12  13
ATOM     13  C   UNL     1       4.453   0.798   3.123  0.00  0.00    +0.013 C 
BRANCH  13  14
ATOM     14  C   UNL     1       5.112   0.868   4.502  0.00  0.00    -0.011 C 
ATOM     15  C   UNL     1       5.038   2.308   5.052  0.00  0.00    +0.003 C 
ATOM     16  C   UNL     1       6.385   2.503   5.790  0.00  0.00    +0.000 C 
ATOM     17  C   UNL     1       7.388   1.756   4.876  0.00  0.00    +0.000 C 
ATOM     18  C   UNL     1       6.606   0.517   4.391  0.00  0.00    +0.003 C 
ENDBRANCH  13  14
ENDBRANCH  12  13
ENDBRANCH   8  12
BRANCH  10  19
ATOM     19  C   UNL     1      -3.819   0.586   2.808  0.00  0.00    +0.162 C 
BRANCH  19  20
ATOM     20  N   UNL     1      -5.115   1.156   2.434  0.00  0.00    -0.300 N 
ATOM     21  C   UNL     1      -5.840   1.836   3.344  0.00  0.00    +0.245 C 
ATOM     22  O   UNL     1      -5.418   1.978   4.475  0.00  0.00    -0.270 OA
ATOM     23  H   UNL     1      -5.452   1.043   1.531  0.00  0.00    +0.150 HD
BRANCH  21  24
ATOM     24  C   UNL     1      -7.149   2.411   2.966  0.00  0.00    +0.039 A 
ATOM     25  C   UNL     1      -7.639   2.245   1.669  0.00  0.00    +0.014 A 
ATOM     26  C   UNL     1      -8.860   2.783   1.323  0.00  0.00    +0.023 A 
ATOM     27  C   UNL     1      -9.600   3.487   2.258  0.00  0.00    +0.071 A 
ATOM     28  C   UNL     1      -9.119   3.655   3.546  0.00  0.00    +0.145 A 
ATOM     29  C   UNL     1      -7.902   3.116   3.906  0.00  0.00    +0.047 A 
ATOM     30 CL   UNL     1     -11.137   4.162   1.814  0.00  0.00    -0.081 Cl
BRANCH  28  31
ATOM     31  N   UNL     1      -9.916   4.409   4.540  0.00  0.00    +0.058 N 
ATOM     32  O   UNL     1      -9.497   4.557   5.664  0.00  0.00    -0.126 OA
ATOM     33  O   UNL     1     -10.986   4.878   4.227  0.00  0.00    -0.126 OA
ENDBRANCH  28  31
ENDBRANCH  21  24
ENDBRANCH  19  20
BRANCH  19  34
ATOM     34  C   UNL     1      -4.030  -0.786   3.450  0.00  0.00    +0.012 C 
ATOM     35  C   UNL     1      -4.796  -0.622   4.764  0.00  0.00    +0.009 C 
ATOM     36  C   UNL     1      -4.834  -1.675   2.499  0.00  0.00    +0.009 C 
ENDBRANCH  19  34
ENDBRANCH  10  19
TORSDOF 8
