REMARK  Name = ZINC48276550
REMARK  3 active torsions:
REMARK  status: ('A' for Active; 'I' for Inactive)
REMARK    1  A    between atoms: C_1  and  C_2
REMARK    2  A    between atoms: C_7  and  C_8
REMARK    3  A    between atoms: C_16  and  N_19
REMARK                            x       y       z     vdW  Elec       q    Type
REMARK                         _______ _______ _______ _____ _____    ______ ____
ROOT
ATOM      1  C   UNL     1       0.033  -0.392   2.496  0.00  0.00    +0.267 C 
ATOM      2  O   UNL     1       0.020   0.795   2.765  0.00  0.00    -0.268 OA
ATOM      3  N   UNL     1       0.055  -1.306   3.486  0.00  0.00    -0.266 N 
ATOM      4  C   UNL     1       0.078  -2.758   3.287  0.00  0.00    +0.119 C 
ATOM      5  C   UNL     1       0.098  -3.358   4.702  0.00  0.00    +0.056 C 
ATOM      6  C   UNL     1       0.084  -2.160   5.624  0.00  0.00    -0.024 A 
ATOM      7  C   UNL     1       0.065  -1.009   4.851  0.00  0.00    +0.042 A 
ATOM      8  C   UNL     1       0.054   0.234   5.486  0.00  0.00    +0.056 A 
ATOM      9  C   UNL     1       0.067   0.311   6.863  0.00  0.00    +0.128 A 
ATOM     10  C   UNL     1       0.090  -0.842   7.625  0.00  0.00    +0.033 A 
ATOM     11  C   UNL     1       0.092  -2.077   7.003  0.00  0.00    +0.008 A 
ENDROOT
BRANCH   1  18
ATOM     12  C   UNL     1      -0.018   1.503   0.010  0.00  0.00    +0.047 C 
ATOM     13  C   UNL     1       0.002  -0.004   0.002  0.00  0.00    -0.010 A 
ATOM     14  C   UNL     1       0.008  -0.834  -1.125  0.00  0.00    +0.042 A 
ATOM     15  C   UNL     1       0.026  -2.156  -0.678  0.00  0.00    +0.027 A 
ATOM     16  N   UNL     1       0.035  -2.137   0.655  0.00  0.00    -0.354 N 
ATOM     17  H   UNL     1       0.049  -2.920   1.227  0.00  0.00    +0.166 HD
ATOM     18  C   UNL     1       0.024  -0.827   1.094  0.00  0.00    +0.106 A 
ATOM     19  C   UNL     1       0.032  -3.337  -1.615  0.00  0.00    +0.054 C 
ATOM     20  C   UNL     1      -0.488  -2.895  -2.987  0.00  0.00    +0.014 C 
ATOM     21  C   UNL     1       0.287  -1.673  -3.491  0.00  0.00    +0.080 C 
ATOM     22  C   UNL     1       0.002  -0.505  -2.559  0.00  0.00    +0.165 C 
ATOM     23  O   UNL     1      -0.215   0.616  -2.968  0.00  0.00    -0.292 OA
ENDBRANCH   1  18
BRANCH   9  24
ATOM     24  N   UNL     1       0.056   1.634   7.527  0.00  0.00    +0.056 N 
ATOM     25  O   UNL     1       0.036   2.644   6.863  0.00  0.00    -0.126 OA
ATOM     26  O   UNL     1       0.067   1.704   8.734  0.00  0.00    -0.126 OA
ENDBRANCH   9  24
TORSDOF 2
