REMARK  Name = ZINC38625916
REMARK  11 active torsions:
REMARK  status: ('A' for Active; 'I' for Inactive)
REMARK    1  A    between atoms: C_1  and  C_2
REMARK    2  A    between atoms: C_2  and  O_3
REMARK    3  A    between atoms: O_3  and  C_4
REMARK    4  A    between atoms: C_4  and  C_6
REMARK    5  A    between atoms: C_8  and  N_17
REMARK    6  A    between atoms: C_18  and  C_20
REMARK    7  A    between atoms: C_20  and  C_21
REMARK    8  A    between atoms: C_21  and  N_22
REMARK    9  A    between atoms: C_28  and  O_30
REMARK   10  A    between atoms: O_30  and  C_31
REMARK   11  A    between atoms: C_31  and  C_32
REMARK                            x       y       z     vdW  Elec       q    Type
REMARK                         _______ _______ _______ _____ _____    ______ ____
ROOT
ATOM      1  N   UNL     1       3.914  -1.279  -2.003  0.00  0.00    -0.286 N 
ATOM      2  C   UNL     1       5.242  -1.502  -1.941  0.00  0.00    +0.218 C 
ATOM      3  O   UNL     1       5.686  -2.596  -2.217  0.00  0.00    -0.275 OA
ATOM      4  H   UNL     1       3.566  -0.385  -1.864  0.00  0.00    +0.155 HD
ENDROOT
BRANCH   1   6
ATOM      5  C   UNL     1       3.430  -3.728  -2.640  0.00  0.00    +0.234 C 
ATOM      6  C   UNL     1       3.061  -2.310  -2.261  0.00  0.00    +0.053 C 
ATOM      7  C   UNL     1       1.678  -2.278  -2.230  0.00  0.00    +0.019 A 
ATOM      8  C   UNL     1       0.753  -1.245  -1.943  0.00  0.00    +0.026 A 
ATOM      9  C   UNL     1      -0.578  -1.503  -1.989  0.00  0.00    +0.019 A 
ATOM     10  C   UNL     1      -1.068  -2.772  -2.315  0.00  0.00    +0.017 A 
ATOM     11  C   UNL     1      -0.241  -3.806  -2.601  0.00  0.00    +0.027 A 
ATOM     12  C   UNL     1       1.165  -3.615  -2.573  0.00  0.00    +0.045 A 
ATOM     13  N   UNL     1       2.163  -4.446  -2.807  0.00  0.00    -0.367 N 
ATOM     14 BR   UNL     1      -1.801  -0.114  -1.603  0.00  0.00    -0.050 Br
ATOM     15  H   UNL     1       2.074  -5.380  -3.051  0.00  0.00    +0.161 HD
BRANCH   5  16
ATOM     16  C   UNL     1       4.205  -3.734  -3.932  0.00  0.00    +0.336 C 
ATOM     17  O   UNL     1       3.632  -3.557  -4.981  0.00  0.00    -0.248 OA
BRANCH  16  18
ATOM     18  O   UNL     1       5.532  -3.937  -3.918  0.00  0.00    -0.463 OA
BRANCH  18  20
ATOM     19  C   UNL     1       7.697  -4.176  -4.965  0.00  0.00    +0.048 C 
ATOM     20  C   UNL     1       6.203  -3.930  -5.180  0.00  0.00    +0.229 C 
ENDBRANCH  18  20
ENDBRANCH  16  18
ENDBRANCH   5  16
ENDBRANCH   1   6
BRANCH   2  21
ATOM     21  C   UNL     1       6.174  -0.393  -1.528  0.00  0.00    +0.111 C 
BRANCH  21  22
ATOM     22  C   UNL     1       7.615  -0.906  -1.540  0.00  0.00    +0.093 C 
BRANCH  22  23
ATOM     23  N   UNL     1       8.524   0.176  -1.138  0.00  0.00    -0.299 NA
ATOM     24  C   UNL     1       8.523   1.260  -2.130  0.00  0.00    +0.103 C 
ATOM     25  C   UNL     1       9.337   2.441  -1.591  0.00  0.00    +0.126 C 
ATOM     26  N   UNL     1      10.669   1.953  -1.204  0.00  0.00    -0.265 N 
ATOM     27  C   UNL     1      10.751   0.781  -0.319  0.00  0.00    +0.126 C 
ATOM     28  C   UNL     1       9.882  -0.335  -0.908  0.00  0.00    +0.103 C 
ATOM     29  C   UNL     1      11.786   2.564  -1.647  0.00  0.00    +0.403 C 
ATOM     30  O   UNL     1      11.699   3.531  -2.377  0.00  0.00    -0.226 OA
BRANCH  29  31
ATOM     31  O   UNL     1      12.996   2.102  -1.282  0.00  0.00    -0.451 OA
BRANCH  31  32
ATOM     32  C   UNL     1      14.136   2.798  -1.790  0.00  0.00    +0.230 C 
ATOM     33  C   UNL     1      15.413   2.133  -1.270  0.00  0.00    +0.048 C 
ENDBRANCH  31  32
ENDBRANCH  29  31
ENDBRANCH  22  23
ENDBRANCH  21  22
ENDBRANCH   2  21
TORSDOF 9
