REMARK  Name = ZINC39711464
REMARK  12 active torsions:
REMARK  status: ('A' for Active; 'I' for Inactive)
REMARK    1  A    between atoms: C_1  and  C_2
REMARK    2  A    between atoms: C_2  and  N_3
REMARK    3  A    between atoms: N_6  and  C_9
REMARK    4  A    between atoms: C_9  and  C_11
REMARK    5  A    between atoms: C_9  and  C_20
REMARK    6  A    between atoms: N_15  and  C_16
REMARK    7  A    between atoms: C_16  and  C_17
REMARK    8  A    between atoms: C_17  and  O_18
REMARK    9  A    between atoms: O_18  and  C_19
REMARK   10  A    between atoms: C_25  and  O_32
REMARK   11  A    between atoms: O_32  and  C_33
REMARK   12  A    between atoms: C_33  and  C_34
REMARK                            x       y       z     vdW  Elec       q    Type
REMARK                         _______ _______ _______ _____ _____    ______ ____
ROOT
ATOM      1  C   UNL     1       1.530  -2.584   4.772  0.00  0.00    +0.142 C 
ENDROOT
BRANCH   1   2
ATOM      2  C   UNL     1       1.561  -4.113   4.721  0.00  0.00    +0.123 C 
ATOM      3  C   UNL     1       0.173  -4.594   4.347  0.00  0.00    -0.003 C 
ATOM      4  C   UNL     1      -0.451  -5.439   5.216  0.00  0.00    -0.003 A 
ATOM      5  C   UNL     1      -1.792  -5.950   4.931  0.00  0.00    +0.055 A 
ATOM      6  C   UNL     1      -2.377  -6.792   5.828  0.00  0.00    +0.121 A 
ATOM      7  C   UNL     1      -1.720  -7.170   7.005  0.00  0.00    +0.047 A 
ATOM      8  C   UNL     1      -0.476  -6.729   7.323  0.00  0.00    +0.027 A 
ATOM      9  C   UNL     1       0.215  -5.855   6.462  0.00  0.00    +0.041 A 
ATOM     10  N   UNL     1       1.436  -5.431   6.787  0.00  0.00    -0.284 N 
ATOM     11  C   UNL     1       2.140  -4.609   6.027  0.00  0.00    +0.226 C 
ATOM     12  O   UNL     1       3.250  -4.256   6.377  0.00  0.00    -0.275 OA
ATOM     13  H   UNL     1       1.825  -5.737   7.620  0.00  0.00    +0.155 HD
BRANCH   6  14
ATOM     14  O   UNL     1      -3.623  -7.273   5.576  0.00  0.00    -0.492 OA
BRANCH  14  15
ATOM     15  C   UNL     1      -4.189  -8.152   6.550  0.00  0.00    +0.225 C 
ATOM     16  C   UNL     1      -5.584  -8.587   6.096  0.00  0.00    +0.048 C 
ENDBRANCH  14  15
ENDBRANCH   6  14
ENDBRANCH   1   2
BRANCH   1  20
ATOM     17  N   UNL     1       1.355  -0.450   1.127  0.00  0.00    +0.381 N 
ATOM     18  C   UNL     1       0.387  -0.106   2.176  0.00  0.00    -0.063 C 
ATOM     19  C   UNL     1       0.901  -0.603   3.529  0.00  0.00    +0.066 C 
ATOM     20  N   UNL     1       1.091  -2.060   3.472  0.00  0.00    -0.295 NA
ATOM     21  C   UNL     1       2.039  -2.422   2.410  0.00  0.00    +0.066 C 
ATOM     22  C   UNL     1       1.516  -1.909   1.066  0.00  0.00    -0.063 C 
ATOM     23  H   UNL     1       2.245  -0.023   1.338  0.00  0.00    -0.082 HD
BRANCH  17  25
ATOM     24  C   UNL     1       0.822   1.572  -0.146  0.00  0.00    -0.017 C 
ATOM     25  C   UNL     1       0.870   0.043  -0.168  0.00  0.00    -0.082 C 
ENDBRANCH  17  25
ENDBRANCH   1  20
BRANCH   1  26
ATOM     26  C   UNL     1       0.572  -2.137   5.845  0.00  0.00    +0.170 A 
ATOM     27  N   UNL     1      -0.737  -2.162   5.785  0.00  0.00    -0.112 NA
ATOM     28  N   UNL     1      -1.196  -1.699   6.896  0.00  0.00    -0.023 NA
ATOM     29  N   UNL     1      -0.213  -1.379   7.664  0.00  0.00    -0.044 NA
ATOM     30  N   UNL     1       0.893  -1.639   7.053  0.00  0.00    -0.225 N 
BRANCH  30  31
ATOM     31  C   UNL     1       2.246  -1.428   7.576  0.00  0.00    +0.175 C 
BRANCH  31  32
ATOM     32  C   UNL     1       2.722  -0.022   7.207  0.00  0.00    +0.183 C 
BRANCH  32  33
ATOM     33  O   UNL     1       4.041   0.183   7.717  0.00  0.00    -0.381 OA
ATOM     34  C   UNL     1       4.582   1.473   7.426  0.00  0.00    +0.194 C 
ENDBRANCH  32  33
ENDBRANCH  31  32
ENDBRANCH  30  31
ENDBRANCH   1  26
TORSDOF 9
