REMARK  Name = ZINC63731264
REMARK  10 active torsions:
REMARK  status: ('A' for Active; 'I' for Inactive)
REMARK    1  A    between atoms: C_1  and  C_2
REMARK    2  A    between atoms: C_2  and  C_3
REMARK    3  A    between atoms: C_3  and  C_5
REMARK    4  A    between atoms: C_3  and  N_6
REMARK    5  A    between atoms: C_7  and  C_9
REMARK    6  A    between atoms: C_9  and  S_10
REMARK    7  A    between atoms: S_10  and  C_11
REMARK    8  A    between atoms: C_16  and  C_19
REMARK    9  A    between atoms: N_22  and  C_23
REMARK   10  A    between atoms: C_28  and  C_29
REMARK                            x       y       z     vdW  Elec       q    Type
REMARK                         _______ _______ _______ _____ _____    ______ ____
ROOT
ATOM      1  C   UNL     1       6.654   1.080  -3.761  0.00  0.00    +0.260 C 
ATOM      2  N   UNL     1       7.351   0.049  -2.985  0.00  0.00    -0.230 NA
ATOM      3  C   UNL     1       7.420   0.137  -1.696  0.00  0.00    +0.185 C 
ATOM      4  C   UNL     1       6.897   1.345  -0.971  0.00  0.00    +0.083 C 
ATOM      5  C   UNL     1       7.116   1.103   0.325  0.00  0.00    +0.075 C 
ATOM      6  N   UNL     1       7.730  -0.095   0.429  0.00  0.00    -0.152 NA
ATOM      7  N   UNL     1       7.923  -0.654  -0.717  0.00  0.00    -0.129 NA
ATOM      8  C   UNL     1       6.743   2.009   1.470  0.00  0.00    +0.068 C 
ATOM      9  C   UNL     1       6.321   2.463  -1.748  0.00  0.00    +0.133 C 
ATOM     10  N   UNL     1       5.573   3.402  -1.236  0.00  0.00    -0.285 NA
ATOM     11  N   UNL     1       6.679   2.390  -3.104  0.00  0.00    -0.253 N 
ATOM     12  H   UNL     1       5.364   3.393  -0.289  0.00  0.00    +0.188 HD
ENDROOT
BRANCH  11  13
ATOM     13  C   UNL     1       7.047   3.540  -3.809  0.00  0.00    +0.042 A 
ATOM     14  C   UNL     1       6.082   4.292  -4.466  0.00  0.00    +0.043 A 
ATOM     15  C   UNL     1       6.449   5.428  -5.162  0.00  0.00    +0.043 A 
ATOM     16  C   UNL     1       7.778   5.816  -5.205  0.00  0.00    +0.020 A 
ATOM     17  C   UNL     1       8.740   5.068  -4.552  0.00  0.00    +0.006 A 
ATOM     18  C   UNL     1       8.378   3.935  -3.850  0.00  0.00    -0.029 A 
ATOM     19  C   UNL     1       9.427   3.125  -3.133  0.00  0.00    +0.045 C 
ATOM     20 CL   UNL     1       5.245   6.370  -5.984  0.00  0.00    -0.083 Cl
ENDBRANCH  11  13
BRANCH   1  21
ATOM     21  S   UNL     1       4.928   0.572  -3.992  0.00  0.00    -0.106 S 
BRANCH  21  22
ATOM     22  C   UNL     1       4.271   0.470  -2.304  0.00  0.00    +0.168 C 
BRANCH  22  24
ATOM     23  N   UNL     1       2.125  -0.091  -1.209  0.00  0.00    -0.312 N 
ATOM     24  C   UNL     1       2.824   0.051  -2.353  0.00  0.00    +0.223 C 
ATOM     25  O   UNL     1       2.289  -0.157  -3.421  0.00  0.00    -0.275 OA
ATOM     26  H   UNL     1       2.553   0.075  -0.355  0.00  0.00    +0.149 HD
BRANCH  23  27
ATOM     27  C   UNL     1       0.718  -0.497  -1.257  0.00  0.00    +0.070 C 
ATOM     28  C   UNL     1       0.630  -2.023  -1.329  0.00  0.00    +0.028 C 
BRANCH  27  30
ATOM     29  C   UNL     1      -0.019   1.526   0.010  0.00  0.00    +0.005 C 
ATOM     30  C   UNL     1       0.002  -0.004   0.002  0.00  0.00    +0.018 C 
ENDBRANCH  27  30
ENDBRANCH  23  27
ENDBRANCH  22  24
ENDBRANCH  21  22
ENDBRANCH   1  21
TORSDOF 6
