REMARK  Name = ZINC63205506
REMARK  10 active torsions:
REMARK  status: ('A' for Active; 'I' for Inactive)
REMARK    1  A    between atoms: C_1  and  C_2
REMARK    2  A    between atoms: C_2  and  C_3
REMARK    3  A    between atoms: C_3  and  C_5
REMARK    4  A    between atoms: C_3  and  S_19
REMARK    5  A    between atoms: C_10  and  C_18
REMARK    6  A    between atoms: C_11  and  C_13
REMARK    7  A    between atoms: C_13  and  O_15
REMARK    8  A    between atoms: O_15  and  C_16
REMARK    9  A    between atoms: C_16  and  C_17
REMARK   10  A    between atoms: S_19  and  C_20
REMARK                            x       y       z     vdW  Elec       q    Type
REMARK                         _______ _______ _______ _____ _____    ______ ____
ROOT
ATOM      1  C   UNL     1      -1.541  -0.266   0.017  0.00  0.00    +0.136 C 
ENDROOT
BRANCH   1   2
ATOM      2  C   UNL     1      -1.259  -1.737  -0.145  0.00  0.00    +0.232 C 
ATOM      3  O   UNL     1      -1.090  -2.434   0.833  0.00  0.00    -0.274 OA
ATOM      4  N   UNL     1      -1.194  -2.279  -1.378  0.00  0.00    -0.264 N 
ATOM      5  C   UNL     1      -0.935  -3.630  -1.527  0.00  0.00    +0.165 A 
ATOM      6  N   UNL     1      -0.832  -4.323  -2.647  0.00  0.00    -0.229 NA
ATOM      7  C   UNL     1      -0.581  -5.607  -2.636  0.00  0.00    +0.062 A 
ATOM      8  C   UNL     1      -0.431  -6.195  -1.386  0.00  0.00    +0.120 A 
ATOM      9  S   UNL     1      -0.670  -4.778  -0.326  0.00  0.00    -0.045 S 
ATOM     10  C   UNL     1      -0.463  -6.405  -3.909  0.00  0.00    +0.067 C 
ATOM     11  H   UNL     1      -1.329  -1.721  -2.160  0.00  0.00    +0.157 HD
BRANCH   8  12
ATOM     12  C   UNL     1      -0.151  -7.586  -1.036  0.00  0.00    +0.348 C 
ATOM     13  O   UNL     1      -0.014  -8.418  -1.913  0.00  0.00    -0.244 OA
BRANCH  12  14
ATOM     14  O   UNL     1      -0.044  -7.947   0.259  0.00  0.00    -0.461 OA
BRANCH  14  15
ATOM     15  C   UNL     1       0.232  -9.324   0.528  0.00  0.00    +0.229 C 
ATOM     16  C   UNL     1       0.317  -9.541   2.040  0.00  0.00    +0.048 C 
ENDBRANCH  14  15
ENDBRANCH  12  14
ENDBRANCH   8  12
ENDBRANCH   1   2
BRANCH   1  18
ATOM     17  C   UNL     1      -0.570   2.027  -0.195  0.00  0.00    +0.005 C 
ATOM     18  C   UNL     1      -0.256   0.529  -0.223  0.00  0.00    +0.020 C 
ENDBRANCH   1  18
BRANCH   1  19
ATOM     19  S   UNL     1      -2.143   0.052   1.699  0.00  0.00    -0.102 S 
BRANCH  19  20
ATOM     20  C   UNL     1      -3.814  -0.654   1.708  0.00  0.00    +0.236 C 
ATOM     21  N   UNL     1      -3.751  -2.100   1.463  0.00  0.00    -0.355 N 
ATOM     22  C   UNL     1      -4.418  -2.341   0.372  0.00  0.00    +0.061 A 
ATOM     23  C   UNL     1      -4.709  -3.576  -0.370  0.00  0.00    +0.027 A 
ATOM     24  C   UNL     1      -5.446  -3.518  -1.497  0.00  0.00    +0.002 A 
ATOM     25  C   UNL     1      -5.958  -2.311  -2.006  0.00  0.00    +0.002 A 
ATOM     26  C   UNL     1      -5.752  -1.123  -1.404  0.00  0.00    +0.027 A 
ATOM     27  C   UNL     1      -4.961  -1.064  -0.167  0.00  0.00    +0.061 A 
ATOM     28  N   UNL     1      -4.608  -0.083   0.612  0.00  0.00    -0.355 N 
ATOM     29  H   UNL     1      -3.295  -2.756   2.013  0.00  0.00    +0.162 HD
ATOM     30  H   UNL     1      -4.829   0.854   0.492  0.00  0.00    +0.162 HD
ENDBRANCH  19  20
ENDBRANCH   1  19
TORSDOF 7
