REMARK  Name = ZINC01609061
REMARK  8 active torsions:
REMARK  status: ('A' for Active; 'I' for Inactive)
REMARK    1  A    between atoms: C_1  and  C_2
REMARK    2  A    between atoms: C_7  and  C_8
REMARK    3  A    between atoms: C_13  and  C_25
REMARK    4  A    between atoms: C_14  and  O_19
REMARK    5  A    between atoms: C_15  and  C_18
REMARK    6  A    between atoms: O_19  and  C_20
REMARK    7  A    between atoms: N_22  and  C_23
REMARK    8  A    between atoms: N_22  and  C_24
REMARK                            x       y       z     vdW  Elec       q    Type
REMARK                         _______ _______ _______ _____ _____    ______ ____
ROOT
ATOM      1  C   UNL     1      -2.490   0.941   0.279  0.00  0.00    +0.044 C 
ATOM      2  C   UNL     1      -1.201   1.718   0.201  0.00  0.00    -0.045 A 
ATOM      3  C   UNL     1       0.007   1.055   0.289  0.00  0.00    +0.031 A 
ATOM      4  C   UNL     1       1.194   1.770   0.212  0.00  0.00    +0.065 A 
ATOM      5  C   UNL     1       1.161   3.156   0.052  0.00  0.00    +0.075 A 
ATOM      6  C   UNL     1      -0.058   3.813  -0.029  0.00  0.00    +0.032 A 
ATOM      7  C   UNL     1      -1.234   3.094   0.049  0.00  0.00    -0.045 A 
ATOM      8  C   UNL     1      -2.558   3.807  -0.040  0.00  0.00    +0.044 C 
ATOM      9  N   UNL     1       2.483   3.600   0.006  0.00  0.00    -0.259 N 
ATOM     10  C   UNL     1       3.298   2.519   0.134  0.00  0.00    +0.140 A 
ATOM     11  N   UNL     1       2.531   1.395   0.261  0.00  0.00    -0.338 N 
ATOM     12  H   UNL     1       2.863   0.489   0.367  0.00  0.00    +0.167 HD
ATOM     13  C   UNL     1       4.689   2.681   0.121  0.00  0.00    +0.135 A 
ATOM     14  C   UNL     1       5.234   3.978  -0.026  0.00  0.00    +0.162 A 
ATOM     15  C   UNL     1       4.373   5.052  -0.153  0.00  0.00    +0.058 A 
ATOM     16  C   UNL     1       2.994   4.839  -0.134  0.00  0.00    +0.264 A 
ATOM     17  O   UNL     1       2.238   5.791  -0.247  0.00  0.00    -0.267 OA
ATOM     18  C   UNL     1       4.921   6.447  -0.311  0.00  0.00    +0.053 C 
ENDROOT
BRANCH  13  19
ATOM     19  C   UNL     1       5.551   1.545   0.256  0.00  0.00    +0.107 C 
ATOM     20  N   UNL     1       6.234   0.644   0.363  0.00  0.00    -0.191 NA
ENDBRANCH  13  19
BRANCH  14  21
ATOM     21  O   UNL     1       6.576   4.164  -0.042  0.00  0.00    -0.410 OA
BRANCH  21  22
ATOM     22  C   UNL     1       7.251   3.657  -1.092  0.00  0.00    +0.408 C 
ATOM     23  O   UNL     1       6.646   3.150  -2.016  0.00  0.00    -0.226 OA
ATOM     24  N   UNL     1       8.598   3.711  -1.118  0.00  0.00    -0.273 N 
ATOM     25  C   UNL     1       9.332   3.160  -2.260  0.00  0.00    +0.135 C 
ATOM     26  C   UNL     1       9.327   4.322  -0.004  0.00  0.00    +0.135 C 
ENDBRANCH  21  22
ENDBRANCH  14  21
TORSDOF 3
