REMARK  Name = ZINC62220667
REMARK  6 active torsions:
REMARK  status: ('A' for Active; 'I' for Inactive)
REMARK    1  A    between atoms: C_1  and  C_2
REMARK    2  A    between atoms: C_2  and  N_3
REMARK    3  A    between atoms: N_3  and  S_4
REMARK    4  A    between atoms: S_4  and  N_7
REMARK    5  A    between atoms: N_7  and  C_8
REMARK    6  A    between atoms: N_17  and  C_18
REMARK                            x       y       z     vdW  Elec       q    Type
REMARK                         _______ _______ _______ _____ _____    ______ ____
ROOT
ATOM      1  C   UNL     1       2.635  -2.886   0.189  0.00  0.00    +0.053 A 
ATOM      2  C   UNL     1       3.236  -1.634   0.126  0.00  0.00    +0.027 A 
ATOM      3  C   UNL     1       4.589  -1.527  -0.127  0.00  0.00    +0.031 A 
ATOM      4  C   UNL     1       5.349  -2.671  -0.319  0.00  0.00    +0.090 A 
ATOM      5  C   UNL     1       4.750  -3.929  -0.256  0.00  0.00    +0.159 A 
ATOM      6  C   UNL     1       3.392  -4.033   0.003  0.00  0.00    +0.073 A 
ATOM      7  O   UNL     1       5.720  -4.849  -0.479  0.00  0.00    -0.407 OA
ATOM      8  C   UNL     1       6.889  -4.219  -0.676  0.00  0.00    +0.421 A 
ATOM      9  O   UNL     1       7.952  -4.766  -0.900  0.00  0.00    -0.223 OA
ATOM     10  N   UNL     1       6.703  -2.888  -0.586  0.00  0.00    -0.277 N 
ATOM     11  C   UNL     1       7.732  -1.856  -0.740  0.00  0.00    +0.156 C 
ENDROOT
BRANCH   1  12
ATOM     12  N   UNL     1       1.264  -2.989   0.446  0.00  0.00    -0.206 N 
ATOM     13  H   UNL     1       0.717  -3.596  -0.077  0.00  0.00    +0.175 HD
BRANCH  12  14
ATOM     14  S   UNL     1       0.575  -2.076   1.643  0.00  0.00    +0.109 S 
ATOM     15  O   UNL     1       1.387  -2.239   2.797  0.00  0.00    -0.138 OA
ATOM     16  O   UNL     1      -0.813  -2.382   1.640  0.00  0.00    -0.138 OA
BRANCH  14  17
ATOM     17  N   UNL     1       0.711  -0.489   1.189  0.00  0.00    -0.177 NA
ATOM     18  H   UNL     1       1.260   0.119   1.708  0.00  0.00    +0.149 HD
BRANCH  17  20
ATOM     19  C   UNL     1      -0.019   1.526   0.010  0.00  0.00    +0.022 C 
ATOM     20  C   UNL     1       0.002  -0.004   0.002  0.00  0.00    +0.104 C 
ENDBRANCH  17  20
ENDBRANCH  14  17
ENDBRANCH  12  14
ENDBRANCH   1  12
TORSDOF 4
