REMARK  Name = ZINC13242906
REMARK  11 active torsions:
REMARK  status: ('A' for Active; 'I' for Inactive)
REMARK    1  A    between atoms: C_1  and  C_2
REMARK    2  A    between atoms: C_6  and  O_8
REMARK    3  A    between atoms: O_8  and  C_9
REMARK    4  A    between atoms: C_9  and  C_10
REMARK    5  A    between atoms: C_13  and  S_18
REMARK    6  A    between atoms: N_14  and  C_15
REMARK    7  A    between atoms: C_15  and  C_16
REMARK    8  A    between atoms: S_18  and  C_19
REMARK    9  A    between atoms: C_19  and  C_20
REMARK   10  A    between atoms: N_22  and  C_23
REMARK   11  A    between atoms: C_28  and  C_29
REMARK                            x       y       z     vdW  Elec       q    Type
REMARK                         _______ _______ _______ _____ _____    ______ ____
ROOT
ATOM      1  C   UNL     1      -0.716   1.946   1.240  0.00  0.00    +0.172 A 
ATOM      2  N   UNL     1      -0.162   2.213   2.389  0.00  0.00    -0.130 NA
ATOM      3  N   UNL     1      -1.055   2.599   3.230  0.00  0.00    -0.122 NA
ATOM      4  C   UNL     1      -2.236   2.599   2.657  0.00  0.00    +0.192 A 
ATOM      5  N   UNL     1      -2.056   2.188   1.368  0.00  0.00    -0.299 N 
ENDROOT
BRANCH   1   6
ATOM      6  C   UNL     1      -0.009   1.467  -0.002  0.00  0.00    +0.305 C 
BRANCH   6   7
ATOM      7  O   UNL     1       0.026   0.039  -0.008  0.00  0.00    -0.484 OA
BRANCH   7  13
ATOM      8  C   UNL     1       1.400  -4.050  -2.293  0.00  0.00    +0.044 C 
ATOM      9  C   UNL     1       1.322  -2.547  -2.216  0.00  0.00    -0.047 A 
ATOM     10  C   UNL     1       1.869  -1.774  -3.224  0.00  0.00    +0.003 A 
ATOM     11  C   UNL     1       1.800  -0.395  -3.156  0.00  0.00    +0.004 A 
ATOM     12  C   UNL     1       1.183   0.215  -2.080  0.00  0.00    +0.045 A 
ATOM     13  C   UNL     1       0.633  -0.558  -1.068  0.00  0.00    +0.121 A 
ATOM     14  C   UNL     1       0.709  -1.942  -1.136  0.00  0.00    +0.049 A 
ENDBRANCH   7  13
ENDBRANCH   6   7
ENDBRANCH   1   6
BRANCH   5  15
ATOM     15  C   UNL     1      -3.085   2.034   0.337  0.00  0.00    +0.152 C 
BRANCH  15  16
ATOM     16  C   UNL     1      -3.642   0.634   0.388  0.00  0.00    -0.013 C 
ATOM     17  C   UNL     1      -4.931   0.447   0.521  0.00  0.00    +0.005 C 
ENDBRANCH  15  16
ENDBRANCH   5  15
BRANCH   4  18
ATOM     18  S   UNL     1      -3.764   3.051   3.409  0.00  0.00    -0.077 S 
BRANCH  18  19
ATOM     19  C   UNL     1      -3.185   3.470   5.072  0.00  0.00    +0.173 C 
BRANCH  19  20
ATOM     20  C   UNL     1      -4.356   3.899   5.918  0.00  0.00    +0.228 C 
ATOM     21  O   UNL     1      -5.472   3.919   5.444  0.00  0.00    -0.275 OA
ATOM     22  N   UNL     1      -4.162   4.260   7.202  0.00  0.00    -0.284 N 
ATOM     23  H   UNL     1      -3.285   4.168   7.605  0.00  0.00    +0.155 HD
BRANCH  22  24
ATOM     24  C   UNL     1      -5.223   4.766   7.951  0.00  0.00    +0.048 A 
ATOM     25  C   UNL     1      -6.292   5.385   7.317  0.00  0.00    +0.025 A 
ATOM     26  C   UNL     1      -7.342   5.884   8.060  0.00  0.00    +0.022 A 
ATOM     27  C   UNL     1      -7.339   5.773   9.442  0.00  0.00    +0.042 A 
ATOM     28  C   UNL     1      -6.286   5.162  10.089  0.00  0.00    +0.037 A 
ATOM     29  C   UNL     1      -5.218   4.646   9.349  0.00  0.00    +0.086 A 
ATOM     30 CL   UNL     1      -8.668   6.406  10.362  0.00  0.00    -0.084 Cl
BRANCH  29  31
ATOM     31  C   UNL     1      -4.092   3.986  10.033  0.00  0.00    +0.388 C 
ATOM     32  O   UNL     1      -3.123   3.623   9.397  0.00  0.00    -0.241 OA
ATOM     33  O   UNL     1      -4.138   3.785  11.365  0.00  0.00    -0.241 OA
ENDBRANCH  29  31
ENDBRANCH  22  24
ENDBRANCH  19  20
ENDBRANCH  18  19
ENDBRANCH   4  18
TORSDOF 10
