REMARK  Name = ZINC63428396
REMARK  5 active torsions:
REMARK  status: ('A' for Active; 'I' for Inactive)
REMARK    1  A    between atoms: C_1  and  C_2
REMARK    2  A    between atoms: C_6  and  C_8
REMARK    3  A    between atoms: C_8  and  O_9
REMARK    4  A    between atoms: O_9  and  C_10
REMARK    5  A    between atoms: C_13  and  C_16
REMARK                            x       y       z     vdW  Elec       q    Type
REMARK                         _______ _______ _______ _____ _____    ______ ____
ROOT
ATOM      1  C   UNL     1       2.205  -5.876   7.709  0.00  0.00    +0.047 C 
ATOM      2  C   UNL     1       2.987  -5.001   8.693  0.00  0.00    +0.105 C 
ATOM      3  C   UNL     1       3.480  -5.810   9.856  0.00  0.00    +0.219 C 
ATOM      4  O   UNL     1       3.787  -5.224  10.872  0.00  0.00    -0.275 OA
ATOM      5  N   UNL     1       3.600  -7.145   9.835  0.00  0.00    -0.273 N 
ATOM      6  C   UNL     1       3.197  -7.868   8.748  0.00  0.00    +0.117 C 
ATOM      7  N   UNL     1       2.965  -9.146   8.848  0.00  0.00    -0.205 NA
ATOM      8  C   UNL     1       2.460  -9.861   7.835  0.00  0.00    +0.206 C 
ATOM      9  N   UNL     1       2.125  -9.307   6.680  0.00  0.00    -0.147 NA
ATOM     10  C   UNL     1       2.341  -8.022   6.434  0.00  0.00    +0.250 C 
ATOM     11  O   UNL     1       1.979  -7.548   5.375  0.00  0.00    -0.273 OA
ATOM     12  C   UNL     1       3.020  -7.144   7.438  0.00  0.00    +0.148 C 
ATOM     13  N   UNL     1       2.286 -11.207   7.999  0.00  0.00    -0.329 N 
ATOM     14  H   UNL     1       3.978  -7.604  10.601  0.00  0.00    +0.156 HD
ATOM     15  H   UNL     1       2.527 -11.629   8.838  0.00  0.00    +0.145 HD
ATOM     16  H   UNL     1       1.921 -11.740   7.275  0.00  0.00    +0.145 HD
ENDROOT
BRANCH   1  20
ATOM     17  C   UNL     1       1.599  -3.745   4.055  0.00  0.00    +0.121 A 
ATOM     18  C   UNL     1       0.509  -4.191   4.788  0.00  0.00    +0.046 A 
ATOM     19  C   UNL     1       0.708  -4.880   5.969  0.00  0.00    +0.007 A 
ATOM     20  C   UNL     1       1.991  -5.125   6.420  0.00  0.00    -0.042 A 
ATOM     21  C   UNL     1       3.079  -4.681   5.692  0.00  0.00    +0.007 A 
ATOM     22  C   UNL     1       2.886  -3.997   4.507  0.00  0.00    +0.046 A 
BRANCH  17  23
ATOM     23  O   UNL     1       1.406  -3.067   2.893  0.00  0.00    -0.487 OA
BRANCH  23  24
ATOM     24  C   UNL     1       0.054  -2.845   2.489  0.00  0.00    +0.264 C 
BRANCH  24  30
ATOM     25  C   UNL     1      -0.018   1.503   0.010  0.00  0.00    +0.044 C 
ATOM     26  C   UNL     1       0.002  -0.004   0.002  0.00  0.00    -0.050 A 
ATOM     27  C   UNL     1       0.006  -0.689  -1.199  0.00  0.00    +0.003 A 
ATOM     28  C   UNL     1       0.025  -2.071  -1.207  0.00  0.00    +0.001 A 
ATOM     29  C   UNL     1       0.040  -2.768  -0.013  0.00  0.00    +0.007 A 
ATOM     30  C   UNL     1       0.037  -2.084   1.188  0.00  0.00    -0.010 A 
ATOM     31  C   UNL     1       0.023  -0.702   1.195  0.00  0.00    +0.010 A 
ENDBRANCH  24  30
ENDBRANCH  23  24
ENDBRANCH  17  23
ENDBRANCH   1  20
TORSDOF 4
