REMARK  Name = ZINC35990894
REMARK  9 active torsions:
REMARK  status: ('A' for Active; 'I' for Inactive)
REMARK    1  A    between atoms: C_1  and  C_2
REMARK    2  A    between atoms: C_2  and  O_3
REMARK    3  A    between atoms: O_3  and  C_4
REMARK    4  A    between atoms: C_4  and  C_6
REMARK    5  A    between atoms: C_7  and  C_22
REMARK    6  A    between atoms: N_8  and  C_21
REMARK    7  A    between atoms: C_12  and  C_14
REMARK    8  A    between atoms: C_22  and  N_23
REMARK    9  A    between atoms: C_27  and  C_30
REMARK                            x       y       z     vdW  Elec       q    Type
REMARK                         _______ _______ _______ _____ _____    ______ ____
ROOT
ATOM      1  C   UNL     1       1.537  -2.329   2.707  0.00  0.00    +0.080 C 
ATOM      2  C   UNL     1       1.745  -3.594   3.133  0.00  0.00    +0.041 C 
ATOM      3  N   UNL     1       2.487  -3.848   4.250  0.00  0.00    -0.260 N 
ATOM      4  C   UNL     1       3.055  -2.893   4.998  0.00  0.00    +0.307 C 
ATOM      5  O   UNL     1       3.699  -3.218   5.976  0.00  0.00    -0.252 OA
ATOM      6  N   UNL     1       2.937  -1.584   4.700  0.00  0.00    -0.288 N 
ATOM      7  C   UNL     1       2.160  -1.204   3.508  0.00  0.00    +0.145 C 
ATOM      8  C   UNL     1       2.672  -5.244   4.655  0.00  0.00    +0.139 C 
ATOM      9  H   UNL     1       3.357  -0.909   5.255  0.00  0.00    +0.151 HD
ENDROOT
BRANCH   7  10
ATOM     10  C   UNL     1       1.053  -0.284   3.955  0.00  0.00    -0.004 A 
ATOM     11  C   UNL     1       0.444  -0.479   5.181  0.00  0.00    +0.007 A 
ATOM     12  C   UNL     1      -0.571   0.365   5.591  0.00  0.00    +0.000 A 
ATOM     13  C   UNL     1      -0.977   1.405   4.776  0.00  0.00    +0.001 A 
ATOM     14  C   UNL     1      -0.369   1.601   3.551  0.00  0.00    +0.020 A 
ATOM     15  C   UNL     1       0.651   0.760   3.142  0.00  0.00    +0.046 A 
ATOM     16 CL   UNL     1       1.419   1.011   1.606  0.00  0.00    -0.083 Cl
ENDBRANCH   7  10
BRANCH   1  17
ATOM     17  C   UNL     1       0.768  -2.064   1.550  0.00  0.00    +0.339 C 
ATOM     18  O   UNL     1       1.322  -1.787   0.502  0.00  0.00    -0.245 OA
BRANCH  17  19
ATOM     19  O   UNL     1      -0.579  -2.119   1.607  0.00  0.00    -0.462 OA
BRANCH  19  21
ATOM     20  C   UNL     1      -2.792  -1.921   0.656  0.00  0.00    +0.048 C 
ATOM     21  C   UNL     1      -1.288  -1.951   0.378  0.00  0.00    +0.229 C 
ENDBRANCH  19  21
ENDBRANCH  17  19
ENDBRANCH   1  17
BRANCH   2  22
ATOM     22  C   UNL     1       1.147  -4.743   2.362  0.00  0.00    +0.136 C 
BRANCH  22  23
ATOM     23  N   UNL     1       2.224  -5.557   1.784  0.00  0.00    -0.300 NA
ATOM     24  C   UNL     1       2.963  -4.803   0.761  0.00  0.00    +0.066 C 
ATOM     25  C   UNL     1       4.111  -5.664   0.227  0.00  0.00    -0.067 C 
ATOM     26  N   UNL     1       3.568  -6.902  -0.348  0.00  0.00    +0.382 N 
ATOM     27  C   UNL     1       2.854  -7.655   0.691  0.00  0.00    -0.061 C 
ATOM     28  C   UNL     1       1.696  -6.811   1.229  0.00  0.00    +0.069 C 
ATOM     29  C   UNL     1       2.305  -8.953   0.095  0.00  0.00    -0.012 C 
ATOM     30  H   UNL     1       2.930  -6.673  -1.096  0.00  0.00    -0.085 HD
ATOM     31  H   UNL     1       4.324  -7.463  -0.711  0.00  0.00    -0.085 HD
ENDBRANCH  22  23
ENDBRANCH   2  22
TORSDOF 6
