REMARK  Name = ZINC23222934
REMARK  6 active torsions:
REMARK  status: ('A' for Active; 'I' for Inactive)
REMARK    1  A    between atoms: N_9  and  C_32
REMARK    2  A    between atoms: C_10  and  S_12
REMARK    3  A    between atoms: S_12  and  C_13
REMARK    4  A    between atoms: C_13  and  C_14
REMARK    5  A    between atoms: C_17  and  C_27
REMARK    6  A    between atoms: C_20  and  C_22
REMARK                            x       y       z     vdW  Elec       q    Type
REMARK                         _______ _______ _______ _____ _____    ______ ____
ROOT
ATOM      1  C   UNL     1      -0.128   6.570  -2.819  0.00  0.00    +0.175 C 
ENDROOT
BRANCH   1   2
ATOM      2  C   UNL     1      -0.747   5.398  -2.102  0.00  0.00    +0.246 C 
ATOM      3  O   UNL     1      -1.024   4.389  -2.716  0.00  0.00    -0.273 OA
ATOM      4  N   UNL     1      -0.994   5.472  -0.779  0.00  0.00    -0.181 N 
ATOM      5  C   UNL     1      -1.592   4.406   0.040  0.00  0.00    +0.173 C 
ATOM      6  C   UNL     1      -1.644   5.016   1.455  0.00  0.00    +0.093 C 
ATOM      7  C   UNL     1      -1.053   6.397   1.278  0.00  0.00    +0.104 C 
ATOM      8  N   UNL     1      -0.724   6.569   0.042  0.00  0.00    -0.178 NA
BRANCH   7   9
ATOM      9  C   UNL     1      -0.880   7.386   2.346  0.00  0.00    +0.150 A 
ATOM     10  C   UNL     1      -0.349   8.635   2.204  0.00  0.00    +0.051 A 
ATOM     11  C   UNL     1      -0.376   9.234   3.477  0.00  0.00    +0.042 A 
ATOM     12  C   UNL     1      -0.915   8.335   4.326  0.00  0.00    +0.196 A 
ATOM     13  O   UNL     1      -1.224   7.223   3.640  0.00  0.00    -0.462 OA
ENDBRANCH   7   9
BRANCH   5  14
ATOM     14  C   UNL     1      -0.722   3.175   0.026  0.00  0.00    +0.128 A 
ATOM     15  C   UNL     1      -1.159   1.903   0.017  0.00  0.00    +0.046 A 
ATOM     16  C   UNL     1      -0.013   1.076   0.008  0.00  0.00    +0.041 A 
ATOM     17  C   UNL     1       1.057   1.892   0.002  0.00  0.00    +0.195 A 
ATOM     18  O   UNL     1       0.621   3.162   0.013  0.00  0.00    -0.466 OA
ENDBRANCH   5  14
ENDBRANCH   1   2
BRANCH   1  19
ATOM     19  S   UNL     1       0.076   6.166  -4.572  0.00  0.00    -0.078 S 
BRANCH  19  29
ATOM     20  C   UNL     1       2.683  12.197  -5.496  0.00  0.00    +0.001 A 
ATOM     21  C   UNL     1       2.331  12.010  -4.165  0.00  0.00    +0.002 A 
ATOM     22  C   UNL     1       1.774  10.836  -3.743  0.00  0.00    +0.028 A 
ATOM     23  C   UNL     1       1.554   9.805  -4.662  0.00  0.00    +0.079 A 
ATOM     24  C   UNL     1       1.913   9.999  -6.015  0.00  0.00    +0.065 A 
ATOM     25  C   UNL     1       2.480  11.207  -6.418  0.00  0.00    +0.015 A 
ATOM     26  C   UNL     1       1.670   8.901  -6.961  0.00  0.00    +0.263 A 
ATOM     27  O   UNL     1       1.958   9.008  -8.139  0.00  0.00    -0.267 OA
ATOM     28  N   UNL     1       1.115   7.768  -6.474  0.00  0.00    -0.284 N 
ATOM     29  C   UNL     1       0.798   7.666  -5.150  0.00  0.00    +0.173 A 
ATOM     30  N   UNL     1       1.000   8.633  -4.290  0.00  0.00    -0.223 NA
BRANCH  28  31
ATOM     31  C   UNL     1       0.851   6.642  -7.374  0.00  0.00    +0.093 C 
ATOM     32  C   UNL     1       2.157   6.204  -8.069  0.00  0.00    +0.025 C 
ATOM     33  C   UNL     1       1.714   5.820  -9.502  0.00  0.00    +0.002 C 
ATOM     34  C   UNL     1       0.634   6.883  -9.823  0.00  0.00    +0.002 C 
ATOM     35  C   UNL     1      -0.117   7.074  -8.489  0.00  0.00    +0.025 C 
ENDBRANCH  28  31
ENDBRANCH  19  29
ENDBRANCH   1  19
TORSDOF 6
