REMARK  Name = ZINC07777291
REMARK  9 active torsions:
REMARK  status: ('A' for Active; 'I' for Inactive)
REMARK    1  A    between atoms: C_1  and  C_2
REMARK    2  A    between atoms: C_2  and  O_3
REMARK    3  A    between atoms: O_3  and  C_4
REMARK    4  A    between atoms: C_9  and  N_10
REMARK    5  A    between atoms: C_11  and  S_15
REMARK    6  A    between atoms: S_15  and  C_16
REMARK    7  A    between atoms: C_16  and  C_17
REMARK    8  A    between atoms: N_22  and  C_23
REMARK    9  A    between atoms: C_29  and  C_31
REMARK                            x       y       z     vdW  Elec       q    Type
REMARK                         _______ _______ _______ _____ _____    ______ ____
ROOT
ATOM      1  C   UNL     1       4.048  -3.055  -6.531  0.00  0.00    +0.173 C 
ENDROOT
BRANCH   1   2
ATOM      2  C   UNL     1       4.554  -4.336  -7.143  0.00  0.00    +0.231 C 
ATOM      3  O   UNL     1       4.315  -5.399  -6.610  0.00  0.00    -0.274 OA
ATOM      4  N   UNL     1       5.271  -4.301  -8.284  0.00  0.00    -0.239 N 
ATOM      5  C   UNL     1       5.723  -5.447  -8.831  0.00  0.00    +0.306 C 
ATOM      6  O   UNL     1       5.484  -6.511  -8.296  0.00  0.00    -0.252 OA
ATOM      7  N   UNL     1       6.440  -5.411  -9.972  0.00  0.00    -0.296 N 
ATOM      8  H   UNL     1       5.462  -3.451  -8.711  0.00  0.00    +0.159 HD
ATOM      9  H   UNL     1       6.631  -4.562 -10.399  0.00  0.00    +0.151 HD
BRANCH   7  10
ATOM     10  C   UNL     1       6.931  -6.657 -10.567  0.00  0.00    +0.077 C 
ATOM     11  C   UNL     1       5.838  -7.268 -11.446  0.00  0.00    +0.022 C 
ATOM     12  C   UNL     1       5.467  -6.284 -12.557  0.00  0.00    +0.002 C 
ATOM     13  C   UNL     1       6.702  -5.988 -13.410  0.00  0.00    +0.000 C 
ATOM     14  C   UNL     1       7.795  -5.377 -12.531  0.00  0.00    +0.005 C 
ATOM     15  C   UNL     1       8.166  -6.362 -11.421  0.00  0.00    +0.006 C 
ATOM     16  C   UNL     1       9.259  -5.750 -10.542  0.00  0.00    +0.009 C 
ENDBRANCH   7  10
ENDBRANCH   1   2
BRANCH   1  17
ATOM     17  S   UNL     1       3.128  -3.431  -5.019  0.00  0.00    -0.075 S 
BRANCH  17  19
ATOM     18  N   UNL     1       1.943  -1.466  -3.431  0.00  0.00    -0.184 N 
ATOM     19  C   UNL     1       2.667  -1.803  -4.528  0.00  0.00    +0.215 A 
ATOM     20  N   UNL     1       2.959  -0.685  -5.156  0.00  0.00    -0.101 NA
ATOM     21  N   UNL     1       2.470   0.324  -4.530  0.00  0.00    -0.022 NA
ATOM     22  N   UNL     1       1.835  -0.065  -3.478  0.00  0.00    -0.038 NA
BRANCH  18  28
ATOM     23  C   UNL     1       0.087  -2.191  -2.053  0.00  0.00    +0.146 A 
ATOM     24  C   UNL     1      -0.434  -3.050  -1.100  0.00  0.00    +0.048 A 
ATOM     25  C   UNL     1       0.361  -4.040  -0.552  0.00  0.00    +0.004 A 
ATOM     26  C   UNL     1       1.677  -4.175  -0.954  0.00  0.00    +0.002 A 
ATOM     27  C   UNL     1       2.205  -3.321  -1.904  0.00  0.00    +0.031 A 
ATOM     28  C   UNL     1       1.411  -2.330  -2.462  0.00  0.00    +0.111 A 
BRANCH  23  29
ATOM     29  O   UNL     1      -0.693  -1.217  -2.592  0.00  0.00    -0.490 OA
BRANCH  29  31
ATOM     30  C   UNL     1      -2.760   0.010  -2.845  0.00  0.00    +0.048 C 
ATOM     31  C   UNL     1      -2.043  -1.137  -2.130  0.00  0.00    +0.226 C 
ENDBRANCH  29  31
ENDBRANCH  23  29
ENDBRANCH  18  28
ENDBRANCH  17  19
ENDBRANCH   1  17
TORSDOF 7
