REMARK  Name = ZINC67102869
REMARK  5 active torsions:
REMARK  status: ('A' for Active; 'I' for Inactive)
REMARK    1  A    between atoms: C_1  and  C_2
REMARK    2  A    between atoms: C_6  and  C_8
REMARK    3  A    between atoms: N_10  and  N_11
REMARK    4  A    between atoms: C_22  and  N_23
REMARK    5  A    between atoms: C_24  and  C_26
REMARK                            x       y       z     vdW  Elec       q    Type
REMARK                         _______ _______ _______ _____ _____    ______ ____
ROOT
ATOM      1  N   UNL     1       0.064  -4.892   3.650  0.00  0.00    -0.218 N 
ATOM      2  C   UNL     1       0.194  -6.234   3.632  0.00  0.00    +0.319 C 
ATOM      3  O   UNL     1       0.216  -6.856   4.676  0.00  0.00    -0.251 OA
ATOM      4  N   UNL     1       0.299  -6.885   2.457  0.00  0.00    -0.280 N 
ATOM      5  C   UNL     1       0.326  -8.356   2.396  0.00  0.00    +0.114 C 
ATOM      6  C   UNL     1      -0.920  -8.818   1.641  0.00  0.00    +0.056 C 
ATOM      7  C   UNL     1      -1.102  -8.027   0.372  0.00  0.00    -0.020 A 
ATOM      8  C   UNL     1      -0.514  -6.800   0.166  0.00  0.00    -0.025 A 
ATOM      9  C   UNL     1      -0.737  -6.117  -1.022  0.00  0.00    +0.005 A 
ATOM     10  C   UNL     1      -1.536  -6.662  -2.008  0.00  0.00    +0.002 A 
ATOM     11  C   UNL     1      -2.121  -7.897  -1.812  0.00  0.00    +0.023 A 
ATOM     12  C   UNL     1      -1.907  -8.579  -0.625  0.00  0.00    +0.037 A 
ATOM     13  C   UNL     1       0.385  -6.157   1.186  0.00  0.00    +0.144 C 
ATOM     14  H   UNL     1      -0.027  -4.403   2.818  0.00  0.00    +0.174 HD
ENDROOT
BRANCH  12  15
ATOM     15  N   UNL     1      -2.500  -9.831  -0.425  0.00  0.00    -0.285 N 
ATOM     16  C   UNL     1      -2.838 -10.593  -1.484  0.00  0.00    +0.214 C 
ATOM     17  O   UNL     1      -2.538 -10.241  -2.605  0.00  0.00    -0.276 OA
ATOM     18  C   UNL     1      -3.589 -11.883  -1.275  0.00  0.00    +0.109 C 
ATOM     19  H   UNL     1      -2.669 -10.149   0.475  0.00  0.00    +0.155 HD
ENDBRANCH  12  15
BRANCH   1  22
ATOM     20  C   UNL     1       0.033  -2.858   4.886  0.00  0.00    +0.260 C 
ATOM     21  O   UNL     1       0.011  -2.239   3.840  0.00  0.00    -0.269 OA
ATOM     22  N   UNL     1       0.061  -4.205   4.871  0.00  0.00    -0.229 N 
ATOM     23  H   UNL     1       0.079  -4.699   5.705  0.00  0.00    +0.173 HD
BRANCH  20  29
ATOM     24  C   UNL     1      -0.031   1.440   7.420  0.00  0.00    +0.044 C 
ATOM     25  C   UNL     1      -0.001  -0.066   7.398  0.00  0.00    -0.050 A 
ATOM     26  C   UNL     1       0.024  -0.774   8.587  0.00  0.00    +0.003 A 
ATOM     27  C   UNL     1       0.052  -2.157   8.575  0.00  0.00    +0.001 A 
ATOM     28  C   UNL     1       0.056  -2.840   7.377  0.00  0.00    +0.013 A 
ATOM     29  C   UNL     1       0.030  -2.132   6.174  0.00  0.00    +0.038 A 
ATOM     30  C   UNL     1      -0.004  -0.737   6.193  0.00  0.00    +0.016 A 
ENDBRANCH  20  29
ENDBRANCH   1  22
TORSDOF 3
