REMARK  Name = ZINC39956943
REMARK  4 active torsions:
REMARK  status: ('A' for Active; 'I' for Inactive)
REMARK    1  A    between atoms: C_1  and  O_2
REMARK    2  A    between atoms: O_2  and  C_3
REMARK    3  A    between atoms: C_7  and  C_12
REMARK    4  A    between atoms: C_13  and  C_19
REMARK                            x       y       z     vdW  Elec       q    Type
REMARK                         _______ _______ _______ _____ _____    ______ ____
ROOT
ATOM      1  C   UNL     1      -6.173  -2.369   0.154  0.00  0.00    +0.055 C 
ATOM      2  C   UNL     1      -7.279  -3.230  -0.042  0.00  0.00    +0.055 C 
ATOM      3  C   UNL     1      -8.467  -2.347  -0.102  0.00  0.00    +0.252 C 
ATOM      4  O   UNL     1      -9.614  -2.713  -0.262  0.00  0.00    -0.270 OA
ATOM      5  N   UNL     1      -8.066  -1.074   0.050  0.00  0.00    -0.248 N 
ATOM      6  C   UNL     1      -6.735  -1.001   0.211  0.00  0.00    +0.252 C 
ATOM      7  O   UNL     1      -6.097   0.020   0.374  0.00  0.00    -0.270 OA
ATOM      8  H   UNL     1      -8.661  -0.308   0.047  0.00  0.00    +0.158 HD
ENDROOT
BRANCH   2   9
ATOM      9  C   UNL     1      -7.256  -4.623  -0.157  0.00  0.00    -0.006 C 
ATOM     10  C   UNL     1      -7.227  -5.375  -1.334  0.00  0.00    +0.004 A 
ATOM     11  C   UNL     1      -7.215  -5.014  -2.695  0.00  0.00    +0.012 A 
ATOM     12  C   UNL     1      -7.186  -5.981  -3.649  0.00  0.00    +0.021 A 
ATOM     13  C   UNL     1      -7.170  -7.341  -3.317  0.00  0.00    +0.043 A 
ATOM     14  C   UNL     1      -7.181  -7.763  -2.029  0.00  0.00    +0.046 A 
ATOM     15  C   UNL     1      -7.210  -6.807  -0.974  0.00  0.00    +0.045 A 
ATOM     16  N   UNL     1      -7.226  -6.953   0.330  0.00  0.00    -0.380 N 
ATOM     17  C   UNL     1      -7.250  -5.635   0.969  0.00  0.00    +0.149 C 
ATOM     18 CL   UNL     1      -7.135  -8.521  -4.590  0.00  0.00    -0.083 Cl
ATOM     19  H   UNL     1      -7.219  -7.803   0.798  0.00  0.00    +0.160 HD
ENDBRANCH   2   9
BRANCH   1  24
ATOM     20  C   UNL     1      -2.244  -3.527   3.451  0.00  0.00    +0.122 A 
ATOM     21  C   UNL     1      -3.566  -3.179   3.776  0.00  0.00    +0.046 A 
ATOM     22  C   UNL     1      -4.484  -2.902   2.815  0.00  0.00    +0.014 A 
ATOM     23  C   UNL     1      -4.117  -2.962   1.456  0.00  0.00    +0.004 A 
ATOM     24  C   UNL     1      -4.828  -2.736   0.276  0.00  0.00    -0.006 C 
ATOM     25  C   UNL     1      -3.838  -2.971  -0.844  0.00  0.00    +0.149 C 
ATOM     26  N   UNL     1      -2.573  -3.333  -0.199  0.00  0.00    -0.380 N 
ATOM     27  C   UNL     1      -2.730  -3.328   1.104  0.00  0.00    +0.047 A 
ATOM     28  C   UNL     1      -1.820  -3.599   2.162  0.00  0.00    +0.071 A 
ATOM     29  H   UNL     1      -1.747  -3.543  -0.663  0.00  0.00    +0.160 HD
BRANCH  20  31
ATOM     30  C   UNL     1      -1.861  -3.704   5.789  0.00  0.00    +0.277 C 
ATOM     31  O   UNL     1      -1.366  -3.793   4.452  0.00  0.00    -0.495 OA
ENDBRANCH  20  31
ENDBRANCH   1  24
TORSDOF 3
