REMARK  Name = ZINC36046226
REMARK  9 active torsions:
REMARK  status: ('A' for Active; 'I' for Inactive)
REMARK    1  A    between atoms: C_1  and  C_2
REMARK    2  A    between atoms: C_2  and  O_4
REMARK    3  A    between atoms: O_4  and  N_5
REMARK    4  A    between atoms: N_5  and  C_6
REMARK    5  A    between atoms: N_5  and  C_27
REMARK    6  A    between atoms: C_6  and  C_7
REMARK    7  A    between atoms: C_19  and  C_26
REMARK    8  A    between atoms: C_27  and  C_28
REMARK    9  A    between atoms: C_40  and  C_47
REMARK                            x       y       z     vdW  Elec       q    Type
REMARK                         _______ _______ _______ _____ _____    ______ ____
ROOT
ATOM      1  N   UNL     1      -1.023  -2.102   0.003  0.00  0.00    -0.137 NA
ENDROOT
BRANCH   1   2
ATOM      2  O   UNL     1      -1.480  -0.715  -0.071  0.00  0.00    -0.367 OA
BRANCH   2   4
ATOM      3  C   UNL     1      -0.810   1.661  -0.091  0.00  0.00    +0.138 C 
ATOM      4  C   UNL     1      -0.490   0.190  -0.024  0.00  0.00    +0.323 C 
ATOM      5  O   UNL     1       0.658  -0.175   0.071  0.00  0.00    -0.249 OA
ENDBRANCH   2   4
ENDBRANCH   1   2
BRANCH   1   6
ATOM      6  C   UNL     1      -1.480  -2.742   1.244  0.00  0.00    +0.142 C 
BRANCH   6   7
ATOM      7  C   UNL     1      -0.780  -2.093   2.440  0.00  0.00    +0.121 C 
ATOM      8  C   UNL     1       0.742  -2.431   2.434  0.00  0.00    +0.045 C 
ATOM      9  C   UNL     1       0.889  -3.736   1.651  0.00  0.00    +0.016 C 
ATOM     10  C   UNL     1       2.231  -4.408   1.941  0.00  0.00    +0.021 C 
ATOM     11  C   UNL     1       2.282  -5.718   1.177  0.00  0.00    -0.073 C 
ATOM     12  C   UNL     1       3.164  -5.913   0.228  0.00  0.00    +0.008 C 
ATOM     13  C   UNL     1       1.282  -6.791   1.546  0.00  0.00    +0.030 C 
ATOM     14  C   UNL     1       1.340  -7.023   3.059  0.00  0.00    +0.005 C 
ATOM     15  C   UNL     1       1.149  -5.692   3.791  0.00  0.00    +0.007 C 
ATOM     16  C   UNL     1       2.300  -4.732   3.440  0.00  0.00    -0.022 C 
ATOM     17  C   UNL     1       2.218  -3.438   4.238  0.00  0.00    +0.052 C 
ATOM     18  C   UNL     1       0.957  -2.658   3.944  0.00  0.00    +0.181 C 
ATOM     19  O   UNL     1      -0.246  -3.312   4.363  0.00  0.00    -0.461 OA
ATOM     20  C   UNL     1      -1.280  -2.693   3.742  0.00  0.00    +0.312 C 
ATOM     21  O   UNL     1      -2.414  -2.629   4.154  0.00  0.00    -0.250 OA
ATOM     22  C   UNL     1       3.634  -5.415   3.748  0.00  0.00    +0.012 C 
ENDBRANCH   6   7
ENDBRANCH   1   6
BRANCH   1  23
ATOM     23  C   UNL     1      -1.460  -2.865  -1.174  0.00  0.00    +0.142 C 
BRANCH  23  24
ATOM     24  C   UNL     1      -0.765  -2.319  -2.422  0.00  0.00    +0.121 C 
ATOM     25  C   UNL     1      -1.248  -3.054  -3.678  0.00  0.00    +0.045 C 
ATOM     26  C   UNL     1      -2.266  -2.319  -4.530  0.00  0.00    +0.016 C 
ATOM     27  C   UNL     1      -2.498  -3.163  -5.793  0.00  0.00    +0.021 C 
ATOM     28  C   UNL     1      -3.102  -4.490  -5.390  0.00  0.00    -0.073 C 
ATOM     29  C   UNL     1      -3.471  -4.712  -4.153  0.00  0.00    +0.008 C 
ATOM     30  C   UNL     1      -3.270  -5.554  -6.453  0.00  0.00    +0.030 C 
ATOM     31  C   UNL     1      -1.932  -5.731  -7.178  0.00  0.00    +0.005 C 
ATOM     32  C   UNL     1      -1.464  -4.378  -7.717  0.00  0.00    +0.007 C 
ATOM     33  C   UNL     1      -1.198  -3.438  -6.543  0.00  0.00    -0.022 C 
ATOM     34  C   UNL     1      -0.124  -4.043  -5.626  0.00  0.00    +0.052 C 
ATOM     35  C   UNL     1       0.087  -3.079  -4.481  0.00  0.00    +0.181 C 
ATOM     36  O   UNL     1       1.029  -3.415  -3.473  0.00  0.00    -0.461 OA
ATOM     37  C   UNL     1       0.729  -2.635  -2.392  0.00  0.00    +0.312 C 
ATOM     38  O   UNL     1       1.511  -2.259  -1.551  0.00  0.00    -0.250 OA
ATOM     39  C   UNL     1      -0.662  -2.119  -7.104  0.00  0.00    +0.012 C 
ENDBRANCH  23  24
ENDBRANCH   1  23
TORSDOF 6
