REMARK  Name = ZINC46865178
REMARK  4 active torsions:
REMARK  status: ('A' for Active; 'I' for Inactive)
REMARK    1  A    between atoms: C_1  and  C_2
REMARK    2  A    between atoms: C_3  and  C_7
REMARK    3  A    between atoms: N_9  and  N_10
REMARK    4  A    between atoms: C_11  and  C_13
REMARK                            x       y       z     vdW  Elec       q    Type
REMARK                         _______ _______ _______ _____ _____    ______ ____
ROOT
ATOM      1  N   UNL     1      -4.826  -0.947   0.037  0.00  0.00    -0.230 N 
ATOM      2  C   UNL     1      -5.800  -1.878   0.020  0.00  0.00    +0.267 C 
ATOM      3  O   UNL     1      -5.514  -3.056  -0.094  0.00  0.00    -0.268 OA
ATOM      4  H   UNL     1      -5.056  -0.005   0.053  0.00  0.00    +0.173 HD
ENDROOT
BRANCH   2   5
ATOM      5  C   UNL     1      -7.205  -1.472   0.141  0.00  0.00    +0.121 A 
ATOM      6  C   UNL     1      -8.222  -2.432   0.247  0.00  0.00    +0.131 A 
ATOM      7  N   UNL     1      -9.476  -2.047   0.354  0.00  0.00    -0.237 NA
ATOM      8  C   UNL     1      -9.816  -0.755   0.366  0.00  0.00    +0.140 A 
ATOM      9  C   UNL     1     -11.170  -0.402   0.483  0.00  0.00    +0.047 A 
ATOM     10  C   UNL     1     -11.524   0.916   0.495  0.00  0.00    +0.005 A 
ATOM     11  C   UNL     1     -10.530   1.898   0.391  0.00  0.00    +0.018 A 
ATOM     12  C   UNL     1      -9.230   1.538   0.279  0.00  0.00    +0.096 A 
ATOM     13  N   UNL     1      -8.870   0.226   0.266  0.00  0.00    -0.268 N 
ATOM     14  C   UNL     1      -7.564  -0.103   0.159  0.00  0.00    +0.271 A 
ATOM     15  O   UNL     1      -6.711   0.763   0.075  0.00  0.00    -0.266 OA
ENDBRANCH   2   5
BRANCH   1  18
ATOM     16  C   UNL     1      -2.507  -0.409   0.046  0.00  0.00    +0.263 C 
ATOM     17  O   UNL     1      -2.795   0.772   0.067  0.00  0.00    -0.269 OA
ATOM     18  N   UNL     1      -3.481  -1.340   0.030  0.00  0.00    -0.230 N 
ATOM     19  H   UNL     1      -3.251  -2.282   0.013  0.00  0.00    +0.173 HD
BRANCH  16  22
ATOM     20  C   UNL     1      -0.015   1.496   0.078  0.00  0.00    +0.087 C 
ATOM     21  C   UNL     1       0.004  -0.011   0.053  0.00  0.00    +0.114 A 
ATOM     22  C   UNL     1      -1.092  -0.822   0.039  0.00  0.00    +0.079 A 
ATOM     23  C   UNL     1      -0.568  -2.196   0.016  0.00  0.00    +0.054 A 
ATOM     24  C   UNL     1       0.769  -2.080   0.018  0.00  0.00    +0.196 A 
ATOM     25  O   UNL     1       1.098  -0.779   0.035  0.00  0.00    -0.467 OA
ENDBRANCH  16  22
ENDBRANCH   1  18
TORSDOF 3
