REMARK  Name = ZINC21260462
REMARK  10 active torsions:
REMARK  status: ('A' for Active; 'I' for Inactive)
REMARK    1  A    between atoms: C_1  and  C_2
REMARK    2  A    between atoms: C_3  and  C_16
REMARK    3  A    between atoms: N_5  and  C_7
REMARK    4  A    between atoms: C_7  and  C_8
REMARK    5  A    between atoms: C_17  and  C_18
REMARK    6  A    between atoms: C_18  and  O_20
REMARK    7  A    between atoms: O_20  and  C_21
REMARK    8  A    between atoms: C_21  and  C_23
REMARK    9  A    between atoms: C_21  and  C_24
REMARK   10  A    between atoms: N_29  and  C_30
REMARK                            x       y       z     vdW  Elec       q    Type
REMARK                         _______ _______ _______ _____ _____    ______ ____
ROOT
ATOM      1  C   UNL     1       1.323   2.818   0.619  0.00  0.00    +0.020 C 
ATOM      2  C   UNL     1       1.518   1.480   0.603  0.00  0.00    +0.092 C 
ENDROOT
BRANCH   1   5
ATOM      3  C   UNL     1       1.470   5.241  -1.424  0.00  0.00    +0.068 C 
ATOM      4  C   UNL     1       2.544   4.812  -0.458  0.00  0.00    +0.069 A 
ATOM      5  C   UNL     1       2.462   3.728   0.448  0.00  0.00    +0.034 A 
ATOM      6  C   UNL     1       3.663   3.684   1.139  0.00  0.00    +0.135 A 
ATOM      7  N   UNL     1       4.426   4.690   0.679  0.00  0.00    -0.248 N 
ATOM      8  N   UNL     1       3.710   5.377  -0.308  0.00  0.00    -0.174 NA
ATOM      9 CL   UNL     1       4.100   2.540   2.370  0.00  0.00    -0.062 Cl
BRANCH   7  10
ATOM     10  C   UNL     1       5.780   5.014   1.134  0.00  0.00    +0.181 C 
BRANCH  10  11
ATOM     11  C   UNL     1       5.712   6.083   2.193  0.00  0.00    -0.008 A 
ATOM     12  C   UNL     1       5.689   5.731   3.530  0.00  0.00    +0.007 A 
ATOM     13  C   UNL     1       5.626   6.712   4.502  0.00  0.00    +0.000 A 
ATOM     14  C   UNL     1       5.586   8.046   4.138  0.00  0.00    +0.001 A 
ATOM     15  C   UNL     1       5.610   8.398   2.802  0.00  0.00    +0.020 A 
ATOM     16  C   UNL     1       5.678   7.417   1.829  0.00  0.00    +0.046 A 
ATOM     17 CL   UNL     1       5.715   7.860   0.151  0.00  0.00    -0.083 Cl
ENDBRANCH  10  11
ENDBRANCH   7  10
ENDBRANCH   1   5
BRANCH   2  18
ATOM     18  C   UNL     1       0.420   0.603   0.768  0.00  0.00    +0.333 C 
ATOM     19  O   UNL     1      -0.700   1.052   0.919  0.00  0.00    -0.246 OA
BRANCH  18  20
ATOM     20  O   UNL     1       0.615  -0.733   0.752  0.00  0.00    -0.449 OA
BRANCH  20  21
ATOM     21  C   UNL     1      -0.538  -1.559   0.924  0.00  0.00    +0.259 C 
ATOM     22  C   UNL     1      -0.746  -1.841   2.414  0.00  0.00    +0.062 C 
BRANCH  21  23
ATOM     23  C   UNL     1      -0.339  -2.860   0.190  0.00  0.00    +0.261 C 
ATOM     24  O   UNL     1       0.723  -3.097  -0.344  0.00  0.00    -0.271 OA
ATOM     25  N   UNL     1      -1.341  -3.758   0.127  0.00  0.00    -0.237 N 
ATOM     26  C   UNL     1      -1.163  -4.922  -0.530  0.00  0.00    +0.306 C 
ATOM     27  O   UNL     1      -0.098  -5.160  -1.065  0.00  0.00    -0.252 OA
ATOM     28  N   UNL     1      -2.165  -5.821  -0.593  0.00  0.00    -0.302 N 
ATOM     29  C   UNL     1      -1.971  -7.085  -1.306  0.00  0.00    +0.129 C 
ATOM     30  H   UNL     1      -2.305  -3.543   0.612  0.00  0.00    +0.159 HD
ATOM     31  H   UNL     1      -3.129  -5.605  -0.108  0.00  0.00    +0.150 HD
ENDBRANCH  21  23
ENDBRANCH  20  21
ENDBRANCH  18  20
ENDBRANCH   2  18
TORSDOF 7
