REMARK  Name = ZINC34747621
REMARK  5 active torsions:
REMARK  status: ('A' for Active; 'I' for Inactive)
REMARK    1  A    between atoms: C_4  and  N_7
REMARK    2  A    between atoms: C_8  and  C_10
REMARK    3  A    between atoms: C_10  and  N_11
REMARK    4  A    between atoms: N_30  and  C_31
REMARK    5  A    between atoms: C_31  and  C_32
REMARK                            x       y       z     vdW  Elec       q    Type
REMARK                         _______ _______ _______ _____ _____    ______ ____
ROOT
ATOM      1  N   UNL     1       4.530  -3.531  -3.354  0.00  0.00    +0.387 N 
ATOM      2  C   UNL     1       3.499  -4.537  -3.067  0.00  0.00    -0.059 C 
ATOM      3  C   UNL     1       4.169  -5.884  -2.774  0.00  0.00    +0.089 C 
ATOM      4  N   UNL     1       5.050  -6.222  -3.902  0.00  0.00    -0.304 N 
ATOM      5  C   UNL     1       6.007  -5.205  -4.364  0.00  0.00    +0.089 C 
ATOM      6  C   UNL     1       5.251  -3.890  -4.582  0.00  0.00    -0.059 C 
ATOM      7  C   UNL     1       4.981  -7.453  -4.507  0.00  0.00    +0.202 A 
ATOM      8  N   UNL     1       4.157  -7.634  -5.518  0.00  0.00    -0.208 NA
ATOM      9  C   UNL     1       4.070  -8.814  -6.122  0.00  0.00    +0.117 A 
ATOM     10  C   UNL     1       4.841  -9.917  -5.721  0.00  0.00    +0.076 A 
ATOM     11  C   UNL     1       4.636 -11.151  -6.481  0.00  0.00    -0.023 A 
ATOM     12  C   UNL     1       3.735 -11.110  -7.483  0.00  0.00    -0.004 A 
ATOM     13  S   UNL     1       3.115  -9.450  -7.476  0.00  0.00    -0.073 S 
ATOM     14  C   UNL     1       3.347 -12.229  -8.401  0.00  0.00    +0.043 C 
ATOM     15  C   UNL     1       4.395 -13.344  -8.277  0.00  0.00    +0.005 C 
ATOM     16  C   UNL     1       4.649 -13.616  -6.791  0.00  0.00    +0.005 C 
ATOM     17  C   UNL     1       5.396 -12.437  -6.168  0.00  0.00    +0.037 C 
ATOM     18  C   UNL     1       5.728  -9.690  -4.620  0.00  0.00    +0.264 A 
ATOM     19  O   UNL     1       6.437 -10.589  -4.202  0.00  0.00    -0.267 OA
ATOM     20  N   UNL     1       5.771  -8.469  -4.056  0.00  0.00    -0.271 N 
ATOM     21  H   UNL     1       5.181  -3.491  -2.583  0.00  0.00    -0.081 HD
ENDROOT
BRANCH   1  22
ATOM     22  C   UNL     1       3.896  -2.218  -3.526  0.00  0.00    +0.019 C 
BRANCH  22  24
ATOM     23  N   UNL     1       2.615  -0.612  -2.148  0.00  0.00    -0.314 N 
ATOM     24  C   UNL     1       3.260  -1.793  -2.228  0.00  0.00    +0.197 C 
ATOM     25  O   UNL     1       3.328  -2.513  -1.255  0.00  0.00    -0.278 OA
ATOM     26  H   UNL     1       2.560  -0.036  -2.927  0.00  0.00    +0.149 HD
BRANCH  23  30
ATOM     27  C   UNL     1      -0.150   1.153   0.580  0.00  0.00    +0.000 C 
ATOM     28  C   UNL     1       1.251   1.759   0.476  0.00  0.00    +0.002 C 
ATOM     29  C   UNL     1       1.897   1.327  -0.843  0.00  0.00    +0.022 C 
ATOM     30  C   UNL     1       1.996  -0.199  -0.886  0.00  0.00    +0.073 C 
ATOM     31  C   UNL     1       0.595  -0.804  -0.782  0.00  0.00    +0.022 C 
ATOM     32  C   UNL     1      -0.051  -0.373   0.536  0.00  0.00    +0.002 C 
ENDBRANCH  23  30
ENDBRANCH  22  24
ENDBRANCH   1  22
BRANCH  20  33
ATOM     33  C   UNL     1       6.679  -8.228  -2.933  0.00  0.00    +0.224 C 
BRANCH  33  34
ATOM     34  C   UNL     1       6.000  -8.618  -1.645  0.00  0.00    +0.236 C 
ATOM     35  O   UNL     1       4.869  -9.054  -1.664  0.00  0.00    -0.274 OA
ATOM     36  N   UNL     1       6.650  -8.482  -0.472  0.00  0.00    -0.297 N 
ATOM     37  C   UNL     1       7.862  -8.077   0.245  0.00  0.00    +0.127 C 
ATOM     38  C   UNL     1       6.642  -8.629   0.985  0.00  0.00    +0.127 C 
ENDBRANCH  33  34
ENDBRANCH  20  33
TORSDOF 5
