REMARK  Name = ZINC66835741
REMARK  7 active torsions:
REMARK  status: ('A' for Active; 'I' for Inactive)
REMARK    1  A    between atoms: C_1  and  C_2
REMARK    2  A    between atoms: C_2  and  C_4
REMARK    3  A    between atoms: C_2  and  N_16
REMARK    4  A    between atoms: N_6  and  C_7
REMARK    5  A    between atoms: C_20  and  C_23
REMARK    6  A    between atoms: C_23  and  O_25
REMARK    7  A    between atoms: O_25  and  C_26
REMARK                            x       y       z     vdW  Elec       q    Type
REMARK                         _______ _______ _______ _____ _____    ______ ____
ROOT
ATOM      1  C   UNL     1       0.694   1.070  -0.525  0.00  0.00    -0.004 C 
ATOM      2  C   UNL     1      -0.043  -0.148   0.035  0.00  0.00    +0.016 C 
ENDROOT
BRANCH   2   3
ATOM      3  N   UNL     1      -0.076  -1.210  -0.979  0.00  0.00    +0.388 N 
ATOM      4  C   UNL     1      -0.689  -0.691  -2.208  0.00  0.00    -0.078 C 
ATOM      5  C   UNL     1      -0.653  -1.768  -3.295  0.00  0.00    -0.018 C 
ATOM      6  C   UNL     1      -1.430  -2.996  -2.814  0.00  0.00    +0.011 C 
ATOM      7  C   UNL     1      -0.828  -3.484  -1.493  0.00  0.00    +0.081 C 
ATOM      8  C   UNL     1      -0.858  -2.344  -0.473  0.00  0.00    -0.063 C 
ATOM      9  H   UNL     1       0.865  -1.513  -1.178  0.00  0.00    -0.081 HD
BRANCH   7  10
ATOM     10  C   UNL     1      -1.633  -4.647  -0.973  0.00  0.00    +0.308 C 
ATOM     11  O   UNL     1      -2.173  -4.574   0.106  0.00  0.00    -0.251 OA
BRANCH  10  12
ATOM     12  O   UNL     1      -1.751  -5.765  -1.707  0.00  0.00    -0.468 OA
ATOM     13  C   UNL     1      -2.528  -6.827  -1.152  0.00  0.00    +0.280 C 
ENDBRANCH  10  12
ENDBRANCH   7  10
ENDBRANCH   2   3
BRANCH   2  14
ATOM     14  C   UNL     1       0.675  -0.649   1.262  0.00  0.00    +0.203 C 
ATOM     15  O   UNL     1       1.531  -1.502   1.159  0.00  0.00    -0.277 OA
ATOM     16  N   UNL     1       0.365  -0.148   2.475  0.00  0.00    -0.287 N 
ATOM     17  H   UNL     1      -0.365   0.483   2.567  0.00  0.00    +0.155 HD
BRANCH  16  18
ATOM     18  C   UNL     1       1.099  -0.540   3.603  0.00  0.00    +0.037 A 
ATOM     19  C   UNL     1       2.450  -0.840   3.482  0.00  0.00    +0.027 A 
ATOM     20  C   UNL     1       3.175  -1.226   4.593  0.00  0.00    +0.051 A 
ATOM     21  C   UNL     1       2.557  -1.315   5.830  0.00  0.00    +0.166 A 
ATOM     22  C   UNL     1       1.202  -1.016   5.954  0.00  0.00    +0.168 A 
ATOM     23  C   UNL     1       0.477  -0.623   4.841  0.00  0.00    +0.072 A 
ATOM     24  O   UNL     1       0.836  -1.180   7.259  0.00  0.00    -0.453 OA
ATOM     25  C   UNL     1       1.879  -1.975   7.854  0.00  0.00    +0.466 C 
ATOM     26  O   UNL     1       3.039  -1.667   7.059  0.00  0.00    -0.453 OA
ENDBRANCH  16  18
ENDBRANCH   2  14
TORSDOF 5
