REMARK  Name = ZINC40294741
REMARK  4 active torsions:
REMARK  status: ('A' for Active; 'I' for Inactive)
REMARK    1  A    between atoms: C_1  and  C_2
REMARK    2  A    between atoms: C_5  and  C_22
REMARK    3  A    between atoms: C_10  and  C_12
REMARK    4  A    between atoms: C_16  and  N_21
REMARK                            x       y       z     vdW  Elec       q    Type
REMARK                         _______ _______ _______ _____ _____    ______ ____
ROOT
ATOM      1  C   UNL     1       4.174   0.883   2.100  0.00  0.00    +0.191 A 
ATOM      2  C   UNL     1       4.888   1.468   3.096  0.00  0.00    +0.063 A 
ATOM      3  C   UNL     1       6.261   1.575   2.601  0.00  0.00    +0.023 A 
ATOM      4  C   UNL     1       7.450   2.075   3.136  0.00  0.00    +0.034 A 
ATOM      5  C   UNL     1       8.610   2.024   2.385  0.00  0.00    +0.025 A 
ATOM      6  C   UNL     1       8.590   1.477   1.103  0.00  0.00    +0.026 A 
ATOM      7  C   UNL     1       7.421   0.983   0.568  0.00  0.00    +0.048 A 
ATOM      8  C   UNL     1       6.244   1.024   1.307  0.00  0.00    +0.136 A 
ATOM      9  O   UNL     1       4.983   0.620   1.052  0.00  0.00    -0.450 OA
ENDROOT
BRANCH   1  17
ATOM     10  C   UNL     1      -0.176   1.921   0.481  0.00  0.00    +0.009 C 
ATOM     11  C   UNL     1      -0.129   0.440   0.100  0.00  0.00    +0.004 C 
ATOM     12  C   UNL     1       0.509   0.288  -1.282  0.00  0.00    +0.009 C 
ATOM     13  C   UNL     1       1.919   0.883  -1.264  0.00  0.00    +0.004 C 
ATOM     14  C   UNL     1       2.777   0.122  -0.248  0.00  0.00    +0.111 C 
ATOM     15  N   UNL     1       2.097   0.140   1.054  0.00  0.00    -0.295 N 
ATOM     16  C   UNL     1       0.706  -0.326   1.131  0.00  0.00    +0.111 C 
ATOM     17  C   UNL     1       2.738   0.577   2.157  0.00  0.00    +0.282 C 
ATOM     18  O   UNL     1       2.127   0.717   3.199  0.00  0.00    -0.267 OA
ATOM     19  C   UNL     1       2.544   0.761  -2.655  0.00  0.00    +0.009 C 
ENDBRANCH   1  17
BRANCH   5  20
ATOM     20  N   UNL     1       9.806   2.523   2.913  0.00  0.00    -0.358 N 
ATOM     21  H   UNL     1       9.821   2.904   3.805  0.00  0.00    +0.142 HD
ATOM     22  H   UNL     1      10.620   2.488   2.387  0.00  0.00    +0.142 HD
ENDBRANCH   5  20
TORSDOF 2
