REMARK  Name = ZINC38669034
REMARK  10 active torsions:
REMARK  status: ('A' for Active; 'I' for Inactive)
REMARK    1  A    between atoms: C_1  and  O_2
REMARK    2  A    between atoms: O_2  and  C_3
REMARK    3  A    between atoms: C_9  and  C_30
REMARK    4  A    between atoms: C_11  and  N_13
REMARK    5  A    between atoms: C_14  and  C_16
REMARK    6  A    between atoms: C_16  and  N_17
REMARK    7  A    between atoms: C_20  and  C_23
REMARK    8  A    between atoms: C_23  and  C_24
REMARK    9  A    between atoms: C_30  and  O_32
REMARK   10  A    between atoms: O_32  and  C_33
REMARK                            x       y       z     vdW  Elec       q    Type
REMARK                         _______ _______ _______ _____ _____    ______ ____
ROOT
ATOM      1  N   UNL     1       1.132  -2.815  -0.278  0.00  0.00    -0.288 N 
ATOM      2  C   UNL     1       1.616  -1.567  -0.119  0.00  0.00    +0.200 C 
ATOM      3  O   UNL     1       0.873  -0.666   0.209  0.00  0.00    -0.278 OA
ATOM      4  H   UNL     1       1.738  -3.550  -0.460  0.00  0.00    +0.155 HD
ENDROOT
BRANCH   1  12
ATOM      5  C   UNL     1      -0.350  -5.646  -0.220  0.00  0.00    +0.131 A 
ATOM      6  C   UNL     1      -1.250  -6.672  -0.172  0.00  0.00    +0.046 A 
ATOM      7  C   UNL     1      -2.618  -6.434  -0.066  0.00  0.00    +0.006 A 
ATOM      8  C   UNL     1      -3.141  -5.185  -0.004  0.00  0.00    +0.026 A 
ATOM      9  C   UNL     1      -2.297  -4.049  -0.046  0.00  0.00    +0.048 A 
ATOM     10  N   UNL     1      -2.563  -2.758  -0.002  0.00  0.00    -0.367 N 
ATOM     11  C   UNL     1      -1.306  -2.008  -0.082  0.00  0.00    +0.234 C 
ATOM     12  C   UNL     1      -0.208  -3.044  -0.182  0.00  0.00    +0.056 C 
ATOM     13  C   UNL     1      -0.843  -4.269  -0.152  0.00  0.00    +0.059 A 
ATOM     14  H   UNL     1      -3.449  -2.368   0.070  0.00  0.00    +0.161 HD
BRANCH   5  16
ATOM     15  C   UNL     1       1.375  -7.269  -0.384  0.00  0.00    +0.277 C 
ATOM     16  O   UNL     1       0.978  -5.898  -0.323  0.00  0.00    -0.494 OA
ENDBRANCH   5  16
BRANCH  11  17
ATOM     17  C   UNL     1      -1.304  -1.127  -1.304  0.00  0.00    +0.335 C 
ATOM     18  O   UNL     1      -1.987  -1.415  -2.258  0.00  0.00    -0.248 OA
BRANCH  17  19
ATOM     19  O   UNL     1      -0.542  -0.022  -1.334  0.00  0.00    -0.466 OA
ATOM     20  C   UNL     1      -0.589   0.766  -2.525  0.00  0.00    +0.280 C 
ENDBRANCH  17  19
ENDBRANCH  11  17
ENDBRANCH   1  12
BRANCH   2  21
ATOM     21  C   UNL     1       3.079  -1.291  -0.351  0.00  0.00    +0.019 C 
BRANCH  21  22
ATOM     22  N   UNL     1       3.351   0.134  -0.116  0.00  0.00    +0.385 N 
ATOM     23  C   UNL     1       2.633   0.939  -1.111  0.00  0.00    -0.078 C 
ATOM     24  C   UNL     1       2.849   2.426  -0.821  0.00  0.00    -0.015 C 
ATOM     25  C   UNL     1       4.345   2.742  -0.890  0.00  0.00    -0.010 C 
ATOM     26  C   UNL     1       5.093   1.844   0.100  0.00  0.00    -0.015 C 
ATOM     27  C   UNL     1       4.795   0.379  -0.224  0.00  0.00    -0.078 C 
ATOM     28  H   UNL     1       3.037   0.387   0.809  0.00  0.00    -0.081 HD
BRANCH  25  29
ATOM     29  C   UNL     1       4.575   4.210  -0.523  0.00  0.00    +0.038 C 
BRANCH  29  30
ATOM     30  C   UNL     1       6.031   4.552  -0.710  0.00  0.00    -0.047 A 
ATOM     31  C   UNL     1       6.920   4.386   0.336  0.00  0.00    +0.003 A 
ATOM     32  C   UNL     1       8.255   4.700   0.165  0.00  0.00    +0.000 A 
ATOM     33  C   UNL     1       8.702   5.179  -1.052  0.00  0.00    +0.000 A 
ATOM     34  C   UNL     1       7.814   5.344  -2.098  0.00  0.00    +0.000 A 
ATOM     35  C   UNL     1       6.479   5.026  -1.929  0.00  0.00    +0.003 A 
ENDBRANCH  29  30
ENDBRANCH  25  29
ENDBRANCH  21  22
ENDBRANCH   2  21
TORSDOF 8
