REMARK  Name = ZINC09329283
REMARK  10 active torsions:
REMARK  status: ('A' for Active; 'I' for Inactive)
REMARK    1  A    between atoms: C_1  and  C_2
REMARK    2  A    between atoms: C_2  and  C_3
REMARK    3  A    between atoms: C_3  and  N_4
REMARK    4  A    between atoms: C_15  and  C_16
REMARK    5  A    between atoms: C_15  and  O_22
REMARK    6  A    between atoms: C_19  and  C_21
REMARK    7  A    between atoms: N_27  and  C_28
REMARK    8  A    between atoms: C_28  and  C_29
REMARK    9  A    between atoms: C_29  and  C_30
REMARK   10  A    between atoms: C_30  and  N_67
REMARK                            x       y       z     vdW  Elec       q    Type
REMARK                         _______ _______ _______ _____ _____    ______ ____
ROOT
ATOM      1  N   UNL     1      -6.950   3.127   4.685  0.00  0.00    -0.269 N 
ATOM      2  C   UNL     1      -6.632   4.442   4.340  0.00  0.00    +0.042 A 
ATOM      3  C   UNL     1      -6.768   5.630   5.056  0.00  0.00    +0.024 A 
ATOM      4  C   UNL     1      -6.375   6.827   4.494  0.00  0.00    +0.002 A 
ATOM      5  C   UNL     1      -5.845   6.859   3.217  0.00  0.00    +0.000 A 
ATOM      6  C   UNL     1      -5.707   5.684   2.499  0.00  0.00    +0.008 A 
ATOM      7  C   UNL     1      -6.097   4.487   3.057  0.00  0.00    +0.011 A 
ATOM      8  C   UNL     1      -6.083   3.065   2.562  0.00  0.00    +0.174 C 
ATOM      9  C   UNL     1      -6.660   2.259   3.699  0.00  0.00    +0.253 C 
ATOM     10  O   UNL     1      -6.830   1.058   3.720  0.00  0.00    -0.272 OA
ATOM     11  C   UNL     1      -4.684   2.615   2.236  0.00  0.00    +0.086 C 
ATOM     12  C   UNL     1      -3.594   2.588   3.094  0.00  0.00    +0.169 C 
ATOM     13  C   UNL     1      -4.707   2.235   0.889  0.00  0.00    +0.250 C 
ATOM     14  O   UNL     1      -3.759   1.816   0.248  0.00  0.00    -0.282 OA
ATOM     15  C   UNL     1      -6.089   2.429   0.374  0.00  0.00    +0.288 C 
ATOM     16  O   UNL     1      -6.449   2.189  -0.761  0.00  0.00    -0.266 OA
ATOM     17  N   UNL     1      -6.880   2.914   1.349  0.00  0.00    -0.273 N 
ENDROOT
BRANCH  12  18
ATOM     18  C   UNL     1      -2.312   2.243   2.600  0.00  0.00    +0.170 A 
ATOM     19  C   UNL     1      -1.439   1.335   3.165  0.00  0.00    +0.053 A 
ATOM     20  C   UNL     1      -0.302   1.312   2.346  0.00  0.00    +0.045 A 
ATOM     21  C   UNL     1      -0.518   2.187   1.337  0.00  0.00    +0.103 A 
ATOM     22  O   UNL     1      -1.724   2.748   1.495  0.00  0.00    -0.457 OA
ATOM     23  C   UNL     1       0.446   2.486   0.217  0.00  0.00    +0.086 C 
ENDBRANCH  12  18
BRANCH  12  24
ATOM     24  O   UNL     1      -3.755   2.892   4.402  0.00  0.00    -0.503 OA
ATOM     25  H   UNL     1      -2.874   2.823   4.870  0.00  0.00    +0.292 HD
ENDBRANCH  12  24
BRANCH   1  26
ATOM     26  C   UNL     1      -7.533   2.739   5.972  0.00  0.00    +0.113 C 
BRANCH  26  28
ATOM     27  C   UNL     1      -7.021   2.020   8.309  0.00  0.00    +0.005 C 
ATOM     28  C   UNL     1      -6.412   2.426   6.966  0.00  0.00    +0.016 C 
ENDBRANCH  26  28
ENDBRANCH   1  26
BRANCH  17  29
ATOM     29  C   UNL     1      -8.303   3.237   1.214  0.00  0.00    +0.108 C 
BRANCH  29  30
ATOM     30  C   UNL     1      -8.457   4.694   0.776  0.00  0.00    +0.000 C 
BRANCH  30  31
ATOM     31  C   UNL     1      -9.942   5.031   0.635  0.00  0.00    -0.077 C 
BRANCH  31  37
ATOM     32  C   UNL     1      -9.628   7.348   1.266  0.00  0.00    -0.050 C 
ATOM     33  C   UNL     1      -9.743   8.790   0.765  0.00  0.00    +0.141 C 
ATOM     34  O   UNL     1     -11.095   9.048   0.376  0.00  0.00    -0.383 OA
ATOM     35  C   UNL     1     -11.577   8.173  -0.647  0.00  0.00    +0.141 C 
ATOM     36  C   UNL     1     -11.481   6.725  -0.159  0.00  0.00    -0.050 C 
ATOM     37  N   UNL     1     -10.074   6.436   0.193  0.00  0.00    +0.383 N 
ATOM     38  H   UNL     1      -9.486   6.582  -0.636  0.00  0.00    -0.082 HD
ENDBRANCH  31  37
ENDBRANCH  30  31
ENDBRANCH  29  30
ENDBRANCH  17  29
TORSDOF 8
