REMARK  Name = ZINC17967634
REMARK  11 active torsions:
REMARK  status: ('A' for Active; 'I' for Inactive)
REMARK    1  A    between atoms: C_1  and  C_2
REMARK    2  A    between atoms: C_2  and  O_3
REMARK    3  A    between atoms: O_3  and  C_4
REMARK    4  A    between atoms: C_4  and  C_6
REMARK    5  A    between atoms: N_14  and  C_15
REMARK    6  A    between atoms: C_15  and  C_17
REMARK    7  A    between atoms: C_20  and  S_23
REMARK    8  A    between atoms: S_23  and  N_26
REMARK    9  A    between atoms: C_28  and  C_35
REMARK   10  A    between atoms: C_31  and  C_34
REMARK   11  A    between atoms: N_36  and  C_37
REMARK                            x       y       z     vdW  Elec       q    Type
REMARK                         _______ _______ _______ _____ _____    ______ ____
ROOT
ATOM      1  C   UNL     1       4.610  -5.758  -7.716  0.00  0.00    +0.269 C 
ATOM      2  O   UNL     1       4.779  -4.563  -7.886  0.00  0.00    -0.268 OA
ENDROOT
BRANCH   1  11
ATOM      3  C   UNL     1      -2.077  -7.692  -7.278  0.00  0.00    +0.060 A 
ATOM      4  C   UNL     1      -1.732  -7.138  -8.516  0.00  0.00    +0.017 A 
ATOM      5  C   UNL     1      -0.471  -6.686  -8.758  0.00  0.00    +0.028 A 
ATOM      6  C   UNL     1       0.525  -6.761  -7.771  0.00  0.00    +0.057 A 
ATOM      7  C   UNL     1       0.164  -7.319  -6.533  0.00  0.00    +0.040 A 
ATOM      8  C   UNL     1      -1.104  -7.773  -6.275  0.00  0.00    +0.032 A 
ATOM      9  S   UNL     1       1.667  -7.230  -5.596  0.00  0.00    -0.052 S 
ATOM     10  C   UNL     1       2.653  -6.519  -6.756  0.00  0.00    +0.166 A 
ATOM     11  N   UNL     1       3.936  -6.191  -6.646  0.00  0.00    -0.152 NA
ATOM     12  N   UNL     1       1.842  -6.358  -7.835  0.00  0.00    -0.324 N 
ATOM     13  C   UNL     1       2.366  -5.756  -9.063  0.00  0.00    +0.151 C 
BRANCH   3  14
ATOM     14  C   UNL     1      -3.447  -8.178  -7.032  0.00  0.00    +0.339 C 
ATOM     15  O   UNL     1      -3.739  -8.653  -5.952  0.00  0.00    -0.245 OA
BRANCH  14  16
ATOM     16  O   UNL     1      -4.377  -8.095  -8.004  0.00  0.00    -0.461 OA
BRANCH  16  18
ATOM     17  C   UNL     1      -6.594  -8.408  -8.914  0.00  0.00    +0.048 C 
ATOM     18  C   UNL     1      -5.683  -8.585  -7.697  0.00  0.00    +0.229 C 
ENDBRANCH  16  18
ENDBRANCH  14  16
ENDBRANCH   3  14
ENDBRANCH   1  11
BRANCH   1  19
ATOM     19  C   UNL     1       5.151  -6.729  -8.694  0.00  0.00    +0.039 A 
ATOM     20  C   UNL     1       4.954  -8.097  -8.504  0.00  0.00    +0.015 A 
ATOM     21  C   UNL     1       5.460  -8.997  -9.419  0.00  0.00    +0.029 A 
ATOM     22  C   UNL     1       6.162  -8.546 -10.522  0.00  0.00    +0.106 A 
ATOM     23  C   UNL     1       6.362  -7.191 -10.716  0.00  0.00    +0.029 A 
ATOM     24  C   UNL     1       5.855  -6.280  -9.811  0.00  0.00    +0.015 A 
BRANCH  22  25
ATOM     25  S   UNL     1       6.806  -9.702 -11.686  0.00  0.00    +0.061 S 
ATOM     26  O   UNL     1       7.891  -9.059 -12.340  0.00  0.00    -0.153 OA
ATOM     27  O   UNL     1       6.957 -10.934 -10.993  0.00  0.00    -0.153 OA
BRANCH  25  28
ATOM     28  N   UNL     1       5.638  -9.944 -12.834  0.00  0.00    -0.172 NA
ATOM     29  C   UNL     1       4.626 -11.000 -12.674  0.00  0.00    +0.140 C 
ATOM     30  C   UNL     1       4.587 -11.831 -13.962  0.00  0.00    +0.131 C 
ATOM     31  O   UNL     1       4.420 -10.957 -15.081  0.00  0.00    -0.371 OA
ATOM     32  C   UNL     1       5.494 -10.031 -15.265  0.00  0.00    +0.131 C 
ATOM     33  C   UNL     1       5.577  -9.104 -14.041  0.00  0.00    +0.140 C 
ATOM     34  C   UNL     1       5.239  -9.195 -16.521  0.00  0.00    +0.039 C 
ATOM     35  C   UNL     1       3.415 -12.813 -13.901  0.00  0.00    +0.039 C 
ENDBRANCH  25  28
ENDBRANCH  22  25
ENDBRANCH   1  19
TORSDOF 7
