REMARK  Name = ZINC51990530
REMARK  4 active torsions:
REMARK  status: ('A' for Active; 'I' for Inactive)
REMARK    1  A    between atoms: C_6  and  C_7
REMARK    2  A    between atoms: C_8  and  C_9
REMARK    3  A    between atoms: N_11  and  C_12
REMARK    4  A    between atoms: C_18  and  O_20
REMARK                            x       y       z     vdW  Elec       q    Type
REMARK                         _______ _______ _______ _____ _____    ______ ____
ROOT
ATOM      1  C   UNL     1      -3.694  -0.853   0.032  0.00  0.00    +0.237 C 
ATOM      2  O   UNL     1      -3.675  -2.070   0.025  0.00  0.00    -0.271 OA
ATOM      3  N   UNL     1      -4.871  -0.197   0.047  0.00  0.00    -0.307 N 
ATOM      4  H   UNL     1      -4.886   0.773   0.052  0.00  0.00    +0.149 HD
ENDROOT
BRANCH   3   5
ATOM      5  C   UNL     1      -6.128  -0.949   0.054  0.00  0.00    +0.102 C 
ATOM      6  C   UNL     1      -6.515  -1.311  -1.381  0.00  0.00    +0.025 C 
ATOM      7  C   UNL     1      -6.692  -0.031  -2.200  0.00  0.00    +0.002 C 
ATOM      8  C   UNL     1      -7.795   0.826  -1.575  0.00  0.00    +0.003 C 
ATOM      9  C   UNL     1      -7.408   1.188  -0.140  0.00  0.00    +0.033 C 
ATOM     10  C   UNL     1      -7.231  -0.092   0.679  0.00  0.00    +0.135 C 
BRANCH  10  11
ATOM     11  O   UNL     1      -6.870   0.246   2.020  0.00  0.00    -0.390 OA
ATOM     12  H   UNL     1      -7.525   0.790   2.478  0.00  0.00    +0.210 HD
ENDBRANCH  10  11
ENDBRANCH   3   5
BRANCH   1  14
ATOM     13  C   UNL     1      -1.259  -0.759   0.010  0.00  0.00    +0.013 C 
ATOM     14  C   UNL     1      -2.439  -0.102   0.024  0.00  0.00    +0.068 C 
BRANCH  13  20
ATOM     15  C   UNL     1      -0.017   1.395   0.010  0.00  0.00    +0.012 A 
ATOM     16  C   UNL     1       1.167   2.099   0.002  0.00  0.00    +0.050 A 
ATOM     17  C   UNL     1       2.381   1.426  -0.013  0.00  0.00    +0.166 A 
ATOM     18  C   UNL     1       2.408   0.030  -0.021  0.00  0.00    +0.167 A 
ATOM     19  C   UNL     1       1.226  -0.683  -0.014  0.00  0.00    +0.057 A 
ATOM     20  C   UNL     1       0.002  -0.004   0.002  0.00  0.00    -0.021 A 
ATOM     21  O   UNL     1       3.710  -0.380  -0.036  0.00  0.00    -0.453 OA
ATOM     22  C   UNL     1       4.470   0.771  -0.450  0.00  0.00    +0.466 C 
ATOM     23  O   UNL     1       3.666   1.885  -0.023  0.00  0.00    -0.453 OA
ENDBRANCH  13  20
ENDBRANCH   1  14
TORSDOF 4
