REMARK  Name = ZINC33766493
REMARK  3 active torsions:
REMARK  status: ('A' for Active; 'I' for Inactive)
REMARK    1  A    between atoms: C_4  and  C_7
REMARK    2  A    between atoms: C_15  and  N_23
REMARK    3  A    between atoms: C_16  and  C_20
REMARK                            x       y       z     vdW  Elec       q    Type
REMARK                         _______ _______ _______ _____ _____    ______ ____
ROOT
ATOM      1  C   UNL     1       1.151   3.592   0.010  0.00  0.00    +0.024 C 
ATOM      2  C   UNL     1       1.888   4.112   1.250  0.00  0.00    +0.014 C 
ATOM      3  C   UNL     1       1.642   5.615   1.361  0.00  0.00    +0.054 C 
ATOM      4  C   UNL     1       1.955   6.301   0.056  0.00  0.00    +0.020 A 
ATOM      5  C   UNL     1       2.049   5.615  -1.141  0.00  0.00    -0.027 A 
ATOM      6  C   UNL     1       2.325   6.299  -2.309  0.00  0.00    +0.017 A 
ATOM      7  C   UNL     1       2.514   7.700  -2.272  0.00  0.00    +0.027 A 
ATOM      8  C   UNL     1       2.811   8.611  -3.367  0.00  0.00    +0.055 A 
ATOM      9  C   UNL     1       2.956   9.951  -3.080  0.00  0.00    +0.123 A 
ATOM     10  S   UNL     1       2.695  10.028  -1.319  0.00  0.00    -0.062 S 
ATOM     11  C   UNL     1       2.403   8.306  -1.000  0.00  0.00    +0.088 A 
ATOM     12  N   UNL     1       2.137   7.614   0.084  0.00  0.00    -0.352 N 
ATOM     13  C   UNL     1       1.862   4.123  -1.233  0.00  0.00    +0.045 C 
ATOM     14  H   UNL     1       2.066   8.160   1.036  0.00  0.00    +0.166 HD
ENDROOT
BRANCH   1  18
ATOM     15  C   UNL     1       1.208  -0.679  -0.014  0.00  0.00    +0.000 A 
ATOM     16  C   UNL     1       0.002  -0.004   0.002  0.00  0.00    +0.000 A 
ATOM     17  C   UNL     1      -0.017   1.378   0.010  0.00  0.00    +0.004 A 
ATOM     18  C   UNL     1       1.171   2.086   0.002  0.00  0.00    -0.044 A 
ATOM     19  C   UNL     1       2.377   1.411  -0.014  0.00  0.00    +0.004 A 
ATOM     20  C   UNL     1       2.396   0.029  -0.021  0.00  0.00    +0.000 A 
ENDBRANCH   1  18
BRANCH   9  21
ATOM     21  C   UNL     1       3.243  11.012  -3.972  0.00  0.00    +0.395 C 
ATOM     22  O   UNL     1       3.394  10.787  -5.158  0.00  0.00    -0.240 OA
ATOM     23  O   UNL     1       3.348  12.275  -3.506  0.00  0.00    -0.240 OA
ENDBRANCH   9  21
BRANCH   8  24
ATOM     24  N   UNL     1       2.945   8.142  -4.665  0.00  0.00    -0.356 N 
ATOM     25  H   UNL     1       3.170   8.843  -5.482  0.00  0.00    +0.142 HD
ATOM     26  H   UNL     1       2.827   7.069  -4.878  0.00  0.00    +0.142 HD
ENDBRANCH   8  24
TORSDOF 3
