REMARK  Name = ZINC14478568
REMARK  4 active torsions:
REMARK  status: ('A' for Active; 'I' for Inactive)
REMARK    1  A    between atoms: C_1  and  C_2
REMARK    2  A    between atoms: C_7  and  C_8
REMARK    3  A    between atoms: C_21  and  C_24
REMARK    4  A    between atoms: N_26  and  C_27
REMARK                            x       y       z     vdW  Elec       q    Type
REMARK                         _______ _______ _______ _____ _____    ______ ____
ROOT
ATOM      1  C   UNL     1       2.889  -0.046   2.432  0.00  0.00    +0.105 C 
ATOM      2  C   UNL     1       3.230   0.724   1.154  0.00  0.00    +0.029 C 
ATOM      3  C   UNL     1       2.820   2.208   1.369  0.00  0.00    +0.033 C 
ATOM      4  C   UNL     1       1.334   2.213   1.074  0.00  0.00    -0.030 C 
ATOM      5  C   UNL     1       1.007   1.178   0.342  0.00  0.00    -0.023 C 
ATOM      6  C   UNL     1       2.224   0.330   0.051  0.00  0.00    +0.049 C 
ATOM      7  C   UNL     1       1.880  -1.129   0.119  0.00  0.00    -0.019 A 
ATOM      8  C   UNL     1       1.109  -1.663  -0.904  0.00  0.00    +0.006 A 
ATOM      9  C   UNL     1       0.752  -2.999  -0.903  0.00  0.00    +0.001 A 
ATOM     10  C   UNL     1       1.160  -3.826   0.120  0.00  0.00    +0.015 A 
ATOM     11  C   UNL     1       1.936  -3.308   1.157  0.00  0.00    +0.058 A 
ATOM     12  C   UNL     1       2.300  -1.947   1.153  0.00  0.00    +0.044 A 
ATOM     13  N   UNL     1       3.076  -1.478   2.201  0.00  0.00    -0.336 N 
ATOM     14  H   UNL     1       4.050  -1.697   2.056  0.00  0.00    +0.147 HD
ENDROOT
BRANCH   1  21
ATOM     15  C   UNL     1       2.256   2.055   4.312  0.00  0.00    +0.044 C 
ATOM     16  C   UNL     1       1.152   1.224   3.710  0.00  0.00    -0.045 A 
ATOM     17  C   UNL     1      -0.164   1.468   4.058  0.00  0.00    +0.004 A 
ATOM     18  C   UNL     1      -1.177   0.706   3.506  0.00  0.00    +0.000 A 
ATOM     19  C   UNL     1      -0.874  -0.299   2.606  0.00  0.00    +0.000 A 
ATOM     20  C   UNL     1       0.441  -0.539   2.255  0.00  0.00    +0.006 A 
ATOM     21  C   UNL     1       1.455   0.220   2.811  0.00  0.00    -0.024 A 
ENDBRANCH   1  21
BRANCH  11  22
ATOM     22  C   UNL     1       2.377  -4.186   2.257  0.00  0.00    +0.250 C 
ATOM     23  O   UNL     1       3.054  -3.734   3.160  0.00  0.00    -0.270 OA
ATOM     24  N   UNL     1       2.029  -5.488   2.261  0.00  0.00    -0.281 N 
ATOM     25  H   UNL     1       1.560  -5.867   1.501  0.00  0.00    +0.155 HD
BRANCH  24  26
ATOM     26  C   UNL     1       2.344  -6.292   3.360  0.00  0.00    +0.034 A 
ATOM     27  C   UNL     1       2.566  -7.652   3.187  0.00  0.00    +0.023 A 
ATOM     28  C   UNL     1       2.883  -8.443   4.274  0.00  0.00    +0.002 A 
ATOM     29  C   UNL     1       2.968  -7.884   5.536  0.00  0.00    +0.000 A 
ATOM     30  C   UNL     1       2.742  -6.531   5.713  0.00  0.00    +0.002 A 
ATOM     31  C   UNL     1       2.430  -5.734   4.629  0.00  0.00    +0.023 A 
ENDBRANCH  24  26
ENDBRANCH  11  22
TORSDOF 3
