REMARK  Name = ZINC49484609
REMARK  4 active torsions:
REMARK  status: ('A' for Active; 'I' for Inactive)
REMARK    1  A    between atoms: C_3  and  C_6
REMARK    2  A    between atoms: C_8  and  C_11
REMARK    3  A    between atoms: N_13  and  C_15
REMARK    4  A    between atoms: C_15  and  C_16
REMARK                            x       y       z     vdW  Elec       q    Type
REMARK                         _______ _______ _______ _____ _____    ______ ____
ROOT
ATOM      1  C   UNL     1       7.333   1.324  -0.070  0.00  0.00    +0.045 C 
ATOM      2  C   UNL     1       8.277   2.199  -0.915  0.00  0.00    -0.067 C 
ATOM      3  N   UNL     1       8.529   2.957   0.331  0.00  0.00    +0.386 N 
ATOM      4  C   UNL     1       8.162   1.778   1.146  0.00  0.00    -0.067 C 
ATOM      5  H   UNL     1       7.896   3.733   0.454  0.00  0.00    -0.081 HD
ENDROOT
BRANCH   1   8
ATOM      6  C   UNL     1       3.738   1.826  -0.024  0.00  0.00    +0.209 A 
ATOM      7  N   UNL     1       4.846   1.060  -0.044  0.00  0.00    -0.191 NA
ATOM      8  C   UNL     1       5.908   1.813  -0.049  0.00  0.00    +0.227 A 
ATOM      9  O   UNL     1       5.522   3.095  -0.032  0.00  0.00    -0.338 OA
ATOM     10  N   UNL     1       4.102   3.087  -0.022  0.00  0.00    -0.056 NA
BRANCH   6  13
ATOM     11  C   UNL     1      -0.016   1.355   0.009  0.00  0.00    +0.008 A 
ATOM     12  C   UNL     1       1.176   2.042   0.002  0.00  0.00    +0.019 A 
ATOM     13  C   UNL     1       2.346   1.330  -0.013  0.00  0.00    +0.060 A 
ATOM     14  S   UNL     1       1.753  -0.354  -0.017  0.00  0.00    -0.093 S 
ATOM     15  C   UNL     1       0.002  -0.004   0.002  0.00  0.00    +0.046 A 
ENDBRANCH   6  13
ENDBRANCH   1   8
BRANCH   3  16
ATOM     16  C   UNL     1       9.936   3.347   0.489  0.00  0.00    +0.019 C 
BRANCH  16  17
ATOM     17  C   UNL     1      10.082   4.215   1.713  0.00  0.00    +0.202 C 
ATOM     18  O   UNL     1       9.109   4.481   2.387  0.00  0.00    -0.277 OA
ATOM     19  N   UNL     1      11.293   4.694   2.058  0.00  0.00    -0.266 N 
ATOM     20  C   UNL     1      11.427   5.494   3.187  0.00  0.00    +0.164 A 
ATOM     21  N   UNL     1      10.496   5.879   4.032  0.00  0.00    -0.233 NA
ATOM     22  C   UNL     1      10.787   6.647   5.066  0.00  0.00    +0.120 A 
ATOM     23  C   UNL     1      12.083   7.016   5.213  0.00  0.00    +0.068 A 
ATOM     24  S   UNL     1      12.823   6.200   3.808  0.00  0.00    -0.061 S 
ATOM     25  H   UNL     1      12.071   4.481   1.520  0.00  0.00    +0.157 HD
ENDBRANCH  16  17
ENDBRANCH   3  16
TORSDOF 4
