REMARK  Name = ZINC02308448
REMARK  10 active torsions:
REMARK  status: ('A' for Active; 'I' for Inactive)
REMARK    1  A    between atoms: C_1  and  C_2
REMARK    2  A    between atoms: C_2  and  O_3
REMARK    3  A    between atoms: O_3  and  C_4
REMARK    4  A    between atoms: C_4  and  C_6
REMARK    5  A    between atoms: C_7  and  N_18
REMARK    6  A    between atoms: C_10  and  O_16
REMARK    7  A    between atoms: O_16  and  C_17
REMARK    8  A    between atoms: C_19  and  C_21
REMARK    9  A    between atoms: C_21  and  C_23
REMARK   10  A    between atoms: C_21  and  N_58
REMARK                            x       y       z     vdW  Elec       q    Type
REMARK                         _______ _______ _______ _____ _____    ______ ____
ROOT
ATOM      1  C   UNL     1       2.781  -4.270  -1.303  0.00  0.00    +0.147 A 
ATOM      2  C   UNL     1       2.347  -3.056  -1.793  0.00  0.00    +0.073 A 
ATOM      3  C   UNL     1       1.348  -2.554  -0.846  0.00  0.00    +0.025 A 
ATOM      4  C   UNL     1       0.566  -1.396  -0.797  0.00  0.00    +0.057 A 
ATOM      5  C   UNL     1      -0.307  -1.206   0.254  0.00  0.00    +0.121 A 
ATOM      6  C   UNL     1      -0.410  -2.161   1.262  0.00  0.00    +0.047 A 
ATOM      7  C   UNL     1       0.353  -3.305   1.226  0.00  0.00    +0.030 A 
ATOM      8  C   UNL     1       1.242  -3.518   0.174  0.00  0.00    +0.049 A 
ATOM      9  N   UNL     1       2.109  -4.546  -0.122  0.00  0.00    -0.348 N 
ATOM     10  H   UNL     1       2.232  -5.343   0.417  0.00  0.00    +0.166 HD
ENDROOT
BRANCH   2  11
ATOM     11  N   UNL     1       2.773  -2.430  -2.960  0.00  0.00    -0.284 N 
ATOM     12  C   UNL     1       2.857  -1.085  -3.011  0.00  0.00    +0.203 C 
ATOM     13  O   UNL     1       2.610  -0.424  -2.025  0.00  0.00    -0.277 OA
ATOM     14  H   UNL     1       3.011  -2.960  -3.736  0.00  0.00    +0.155 HD
BRANCH  12  15
ATOM     15  C   UNL     1       3.256  -0.404  -4.295  0.00  0.00    +0.017 C 
ATOM     16  C   UNL     1       2.088  -0.449  -5.282  0.00  0.00    -0.004 C 
BRANCH  15  26
ATOM     17  C   UNL     1       2.416   1.778  -3.657  0.00  0.00    -0.073 C 
ATOM     18  C   UNL     1       2.871   3.097  -3.033  0.00  0.00    +0.017 C 
ATOM     19  C   UNL     1       3.893   3.760  -3.920  0.00  0.00    -0.048 A 
ATOM     20  C   UNL     1       4.166   5.105  -3.723  0.00  0.00    +0.004 A 
ATOM     21  C   UNL     1       5.101   5.749  -4.508  0.00  0.00    +0.000 A 
ATOM     22  C   UNL     1       5.769   5.050  -5.496  0.00  0.00    +0.000 A 
ATOM     23  C   UNL     1       5.495   3.712  -5.695  0.00  0.00    +0.002 A 
ATOM     24  C   UNL     1       4.555   3.063  -4.907  0.00  0.00    -0.061 A 
ATOM     25  C   UNL     1       4.288   1.603  -5.165  0.00  0.00    -0.042 C 
ATOM     26  N   UNL     1       3.623   0.999  -3.998  0.00  0.00    +0.390 N 
ATOM     27  H   UNL     1       4.269   1.014  -3.200  0.00  0.00    -0.080 HD
ENDBRANCH  15  26
ENDBRANCH  12  15
ENDBRANCH   2  11
BRANCH   1  28
ATOM     28  C   UNL     1       3.753  -5.105  -1.913  0.00  0.00    +0.358 C 
ATOM     29  O   UNL     1       4.351  -4.721  -2.900  0.00  0.00    -0.243 OA
BRANCH  28  30
ATOM     30  O   UNL     1       4.014  -6.324  -1.397  0.00  0.00    -0.460 OA
BRANCH  30  32
ATOM     31  C   UNL     1       5.161  -8.450  -1.338  0.00  0.00    +0.048 C 
ATOM     32  C   UNL     1       5.004  -7.111  -2.061  0.00  0.00    +0.229 C 
ENDBRANCH  30  32
ENDBRANCH  28  30
ENDBRANCH   1  28
BRANCH   5  33
ATOM     33  O   UNL     1      -1.070  -0.081   0.305  0.00  0.00    -0.495 OA
ATOM     34  C   UNL     1      -1.953   0.054   1.421  0.00  0.00    +0.277 C 
ENDBRANCH   5  33
TORSDOF 7
