REMARK  Name = ZINC12386466
REMARK  7 active torsions:
REMARK  status: ('A' for Active; 'I' for Inactive)
REMARK    1  A    between atoms: C_1  and  C_2
REMARK    2  A    between atoms: C_2  and  C_3
REMARK    3  A    between atoms: C_2  and  C_4
REMARK    4  A    between atoms: C_4  and  N_54
REMARK    5  A    between atoms: C_10  and  C_12
REMARK    6  A    between atoms: C_12  and  C_13
REMARK    7  A    between atoms: N_18  and  C_21
REMARK                            x       y       z     vdW  Elec       q    Type
REMARK                         _______ _______ _______ _____ _____    ______ ____
ROOT
ATOM      1  C   UNL     1       3.834  -0.008   1.303  0.00  0.00    +0.215 C 
ATOM      2  O   UNL     1       3.507  -1.174   1.250  0.00  0.00    -0.276 OA
ATOM      3  N   UNL     1       2.958   0.955   0.954  0.00  0.00    -0.299 N 
ATOM      4  C   UNL     1       1.599   0.613   0.507  0.00  0.00    +0.126 C 
ATOM      5  C   UNL     1       1.329   1.330  -0.820  0.00  0.00    +0.125 C 
ATOM      6  N   UNL     1       1.586   2.767  -0.658  0.00  0.00    -0.314 N 
ATOM      7  C   UNL     1       2.996   3.023  -0.336  0.00  0.00    +0.125 C 
ATOM      8  C   UNL     1       3.335   2.376   1.011  0.00  0.00    +0.126 C 
ENDROOT
BRANCH   6   9
ATOM      9  C   UNL     1       1.196   3.474  -1.790  0.00  0.00    +0.099 A 
ATOM     10  C   UNL     1       1.360   4.855  -1.831  0.00  0.00    +0.043 A 
ATOM     11  C   UNL     1       0.969   5.546  -2.963  0.00  0.00    +0.025 A 
ATOM     12  C   UNL     1       0.426   4.829  -4.023  0.00  0.00    +0.057 A 
ATOM     13  C   UNL     1       0.293   3.459  -3.914  0.00  0.00    +0.104 A 
ATOM     14 CL   UNL     1      -0.080   5.648  -5.468  0.00  0.00    -0.082 Cl
ATOM     15  N   UNL     1       0.671   2.747  -2.818  0.00  0.00    -0.348 N 
ATOM     16  H   UNL     1       0.568   1.727  -2.768  0.00  0.00    +0.167 HD
ENDBRANCH   6   9
BRANCH   1  17
ATOM     17  C   UNL     1       5.222   0.365   1.758  0.00  0.00    +0.090 C 
BRANCH  17  23
ATOM     18  C   UNL     1       5.765  -2.900   3.530  0.00  0.00    -0.059 C 
ATOM     19  C   UNL     1       5.541  -3.804   2.317  0.00  0.00    +0.085 C 
ATOM     20  N   UNL     1       5.981  -3.127   1.100  0.00  0.00    -0.318 N 
ATOM     21  C   UNL     1       6.163  -1.805   1.030  0.00  0.00    +0.200 C 
ATOM     22  O   UNL     1       6.500  -1.320  -0.030  0.00  0.00    -0.278 OA
ATOM     23  C   UNL     1       5.966  -0.893   2.208  0.00  0.00    +0.028 C 
ATOM     24  H   UNL     1       6.149  -3.661   0.308  0.00  0.00    +0.149 HD
ATOM     25  N   UNL     1       5.165  -1.583   3.236  0.00  0.00    +0.389 N 
ATOM     26  H   UNL     1       4.211  -1.721   2.881  0.00  0.00    -0.081 HD
BRANCH  25  27
ATOM     27  C   UNL     1       5.107  -0.764   4.468  0.00  0.00    -0.075 C 
BRANCH  27  29
ATOM     28  C   UNL     1       2.610  -0.699   4.412  0.00  0.00    +0.005 C 
ATOM     29  C   UNL     1       3.882   0.150   4.394  0.00  0.00    -0.034 C 
ATOM     30  C   UNL     1       3.880   1.097   5.596  0.00  0.00    +0.005 C 
ENDBRANCH  27  29
ENDBRANCH  25  27
ENDBRANCH  17  23
ENDBRANCH   1  17
TORSDOF 5
