REMARK  Name = ZINC61633592
REMARK  5 active torsions:
REMARK  status: ('A' for Active; 'I' for Inactive)
REMARK    1  A    between atoms: C_1  and  S_2
REMARK    2  A    between atoms: S_2  and  N_5
REMARK    3  A    between atoms: C_14  and  C_15
REMARK    4  A    between atoms: N_17  and  N_18
REMARK    5  A    between atoms: C_19  and  C_21
REMARK                            x       y       z     vdW  Elec       q    Type
REMARK                         _______ _______ _______ _____ _____    ______ ____
ROOT
ATOM      1  N   UNL     1       0.600  -0.381  -1.498  0.00  0.00    -0.165 NA
ATOM      2  C   UNL     1      -0.291  -0.679  -2.625  0.00  0.00    +0.145 C 
ATOM      3  C   UNL     1       0.180  -1.927  -3.329  0.00  0.00    -0.028 A 
ATOM      4  C   UNL     1      -0.669  -2.501  -4.265  0.00  0.00    +0.005 A 
ATOM      5  C   UNL     1      -0.290  -3.638  -4.950  0.00  0.00    +0.000 A 
ATOM      6  C   UNL     1       0.945  -4.207  -4.702  0.00  0.00    +0.000 A 
ATOM      7  C   UNL     1       1.787  -3.639  -3.769  0.00  0.00    +0.004 A 
ATOM      8  C   UNL     1       1.406  -2.498  -3.074  0.00  0.00    -0.041 A 
ATOM      9  C   UNL     1       2.366  -1.950  -2.051  0.00  0.00    +0.065 C 
ATOM     10  C   UNL     1       2.049  -0.483  -1.738  0.00  0.00    +0.171 C 
ENDROOT
BRANCH   1  12
ATOM     11  C   UNL     1       0.080   1.870  -0.003  0.00  0.00    +0.215 C 
ATOM     12  S   UNL     1       0.000   0.058  -0.019  0.00  0.00    +0.030 S 
ATOM     13  O   UNL     1       0.921  -0.481   0.920  0.00  0.00    -0.158 OA
ATOM     14  O   UNL     1      -1.354  -0.372  -0.034  0.00  0.00    -0.158 OA
ENDBRANCH   1  12
BRANCH  10  15
ATOM     15  C   UNL     1       2.801  -0.048  -0.506  0.00  0.00    +0.248 C 
ATOM     16  O   UNL     1       3.194  -0.875   0.288  0.00  0.00    -0.272 OA
ATOM     17  N   UNL     1       3.036   1.261  -0.288  0.00  0.00    -0.233 N 
ATOM     18  H   UNL     1       2.721   1.923  -0.924  0.00  0.00    +0.173 HD
BRANCH  17  19
ATOM     19  N   UNL     1       3.735   1.666   0.857  0.00  0.00    -0.230 N 
ATOM     20  C   UNL     1       3.970   2.975   1.075  0.00  0.00    +0.263 C 
ATOM     21  O   UNL     1       3.575   3.805   0.278  0.00  0.00    -0.269 OA
ATOM     22  H   UNL     1       4.049   1.004   1.492  0.00  0.00    +0.173 HD
BRANCH  20  23
ATOM     23  C   UNL     1       4.705   3.401   2.279  0.00  0.00    +0.076 A 
ATOM     24  C   UNL     1       5.042   4.777   2.675  0.00  0.00    +0.054 A 
ATOM     25  C   UNL     1       5.710   4.674   3.834  0.00  0.00    +0.195 A 
ATOM     26  O   UNL     1       5.807   3.379   4.172  0.00  0.00    -0.470 OA
ATOM     27  C   UNL     1       5.210   2.602   3.263  0.00  0.00    +0.208 A 
ENDBRANCH  20  23
ENDBRANCH  17  19
ENDBRANCH  10  15
TORSDOF 4
