REMARK  Name = ZINC63350987
REMARK  6 active torsions:
REMARK  status: ('A' for Active; 'I' for Inactive)
REMARK    1  A    between atoms: C_1  and  C_2
REMARK    2  A    between atoms: C_5  and  C_29
REMARK    3  A    between atoms: C_18  and  C_20
REMARK    4  A    between atoms: C_24  and  N_26
REMARK    5  A    between atoms: C_29  and  O_31
REMARK    6  A    between atoms: O_31  and  C_32
REMARK                            x       y       z     vdW  Elec       q    Type
REMARK                         _______ _______ _______ _____ _____    ______ ____
ROOT
ATOM      1  C   UNL     1      -0.122   1.394   0.074  0.00  0.00    +0.109 C 
ATOM      2  C   UNL     1      -0.057  -0.100   0.260  0.00  0.00    +0.214 C 
ATOM      3  O   UNL     1       0.469  -0.566   1.249  0.00  0.00    -0.276 OA
ATOM      4  N   UNL     1      -0.582  -0.919  -0.672  0.00  0.00    -0.279 N 
ATOM      5  C   UNL     1      -1.094  -0.357  -1.926  0.00  0.00    +0.189 C 
ATOM      6  C   UNL     1      -0.359  -1.002  -3.115  0.00  0.00    +0.067 C 
ATOM      7  C   UNL     1      -0.324  -2.486  -2.848  0.00  0.00    -0.034 C 
ATOM      8  C   UNL     1      -0.684  -3.522  -3.596  0.00  0.00    -0.001 A 
ATOM      9  C   UNL     1      -1.144  -3.610  -4.991  0.00  0.00    +0.010 A 
ATOM     10  C   UNL     1      -1.454  -4.854  -5.443  0.00  0.00    +0.001 A 
ATOM     11  C   UNL     1      -1.354  -6.005  -4.656  0.00  0.00    +0.002 A 
ATOM     12  C   UNL     1      -0.931  -6.018  -3.366  0.00  0.00    +0.026 A 
ATOM     13  C   UNL     1      -0.569  -4.770  -2.782  0.00  0.00    +0.043 A 
ATOM     14  N   UNL     1      -0.116  -4.497  -1.594  0.00  0.00    -0.375 N 
ATOM     15  C   UNL     1       0.168  -3.064  -1.526  0.00  0.00    +0.131 C 
ATOM     16  C   UNL     1      -0.630  -2.369  -0.424  0.00  0.00    +0.133 C 
ATOM     17  H   UNL     1       0.010  -5.136  -0.874  0.00  0.00    +0.160 HD
ENDROOT
BRANCH  16  18
ATOM     18  C   UNL     1      -2.059  -2.845  -0.456  0.00  0.00    -0.023 A 
ATOM     19  C   UNL     1      -2.699  -3.029  -1.668  0.00  0.00    +0.005 A 
ATOM     20  C   UNL     1      -4.010  -3.466  -1.697  0.00  0.00    +0.003 A 
ATOM     21  C   UNL     1      -4.681  -3.720  -0.515  0.00  0.00    +0.033 A 
ATOM     22  C   UNL     1      -4.041  -3.537   0.696  0.00  0.00    +0.127 A 
ATOM     23  C   UNL     1      -2.728  -3.104   0.725  0.00  0.00    +0.038 A 
BRANCH  22  24
ATOM     24  N   UNL     1      -4.759  -3.808   1.961  0.00  0.00    +0.056 N 
ATOM     25  O   UNL     1      -5.906  -4.190   1.936  0.00  0.00    -0.126 OA
ATOM     26  O   UNL     1      -4.199  -3.649   3.021  0.00  0.00    -0.126 OA
ENDBRANCH  22  24
ENDBRANCH  16  18
BRANCH   5  27
ATOM     27  C   UNL     1      -2.571  -0.637  -2.036  0.00  0.00    +0.328 C 
ATOM     28  O   UNL     1      -3.251  -0.693  -1.039  0.00  0.00    -0.249 OA
BRANCH  27  29
ATOM     29  O   UNL     1      -3.131  -0.825  -3.241  0.00  0.00    -0.467 OA
ATOM     30  C   UNL     1      -4.553  -0.958  -3.283  0.00  0.00    +0.280 C 
ENDBRANCH  27  29
ENDBRANCH   5  27
TORSDOF 4
