REMARK  Name = ZINC60417408
REMARK  9 active torsions:
REMARK  status: ('A' for Active; 'I' for Inactive)
REMARK    1  A    between atoms: C_1  and  C_2
REMARK    2  A    between atoms: C_4  and  C_20
REMARK    3  A    between atoms: C_7  and  N_8
REMARK    4  A    between atoms: C_9  and  C_11
REMARK    5  A    between atoms: C_13  and  S_16
REMARK    6  A    between atoms: S_16  and  N_19
REMARK    7  A    between atoms: N_22  and  C_23
REMARK    8  A    between atoms: C_23  and  C_24
REMARK    9  A    between atoms: C_23  and  C_25
REMARK                            x       y       z     vdW  Elec       q    Type
REMARK                         _______ _______ _______ _____ _____    ______ ____
ROOT
ATOM      1  N   UNL     1       0.025  -0.013   2.413  0.00  0.00    -0.281 N 
ATOM      2  C   UNL     1      -0.631  -0.514   3.478  0.00  0.00    +0.249 C 
ATOM      3  O   UNL     1      -1.149  -1.613   3.411  0.00  0.00    -0.270 OA
ATOM      4  H   UNL     1       0.494   0.833   2.486  0.00  0.00    +0.155 HD
ENDROOT
BRANCH   1  11
ATOM      5  C   UNL     1      -0.013   1.493   0.004  0.00  0.00    +0.045 C 
ATOM      6  C   UNL     1       0.013  -0.013   0.002  0.00  0.00    -0.029 A 
ATOM      7  C   UNL     1       0.024  -0.699  -1.192  0.00  0.00    +0.018 A 
ATOM      8  C   UNL     1       0.048  -2.096  -1.193  0.00  0.00    +0.037 A 
ATOM      9  C   UNL     1       0.060  -2.793   0.018  0.00  0.00    +0.015 A 
ATOM     10  C   UNL     1       0.049  -2.102   1.208  0.00  0.00    +0.024 A 
ATOM     11  C   UNL     1       0.031  -0.710   1.206  0.00  0.00    +0.037 A 
BRANCH   8  12
ATOM     12  C   UNL     1       0.060  -2.834  -2.471  0.00  0.00    +0.244 C 
ATOM     13  O   UNL     1       0.049  -2.227  -3.524  0.00  0.00    -0.270 OA
ATOM     14  N   UNL     1       0.083  -4.182  -2.471  0.00  0.00    -0.309 N 
ATOM     15  H   UNL     1       0.092  -4.667  -1.631  0.00  0.00    +0.149 HD
BRANCH  14  16
ATOM     16  C   UNL     1       0.095  -4.915  -3.739  0.00  0.00    +0.067 C 
ATOM     17  C   UNL     1       1.534  -5.036  -4.245  0.00  0.00    +0.027 C 
ATOM     18  C   UNL     1      -0.491  -6.312  -3.526  0.00  0.00    +0.027 C 
ENDBRANCH  14  16
ENDBRANCH   8  12
ENDBRANCH   1  11
BRANCH   2  19
ATOM     19  C   UNL     1      -0.722   0.268   4.721  0.00  0.00    +0.046 A 
ATOM     20  C   UNL     1      -1.412  -0.238   5.883  0.00  0.00    +0.049 A 
ATOM     21  C   UNL     1      -1.422   0.575   6.958  0.00  0.00    +0.143 A 
ATOM     22  S   UNL     1      -0.512   1.998   6.397  0.00  0.00    -0.076 S 
ATOM     23  C   UNL     1      -0.147   1.514   4.832  0.00  0.00    +0.060 A 
BRANCH  21  24
ATOM     24  S   UNL     1      -2.159   0.298   8.535  0.00  0.00    +0.062 S 
ATOM     25  O   UNL     1      -2.395   1.578   9.103  0.00  0.00    -0.153 OA
ATOM     26  O   UNL     1      -3.197  -0.652   8.336  0.00  0.00    -0.153 OA
BRANCH  24  27
ATOM     27  N   UNL     1      -1.019  -0.439   9.484  0.00  0.00    -0.203 NA
ATOM     28  H   UNL     1      -0.139  -0.631   9.125  0.00  0.00    +0.144 HD
ATOM     29  H   UNL     1      -1.232  -0.677  10.400  0.00  0.00    +0.144 HD
ENDBRANCH  24  27
ENDBRANCH  21  24
ENDBRANCH   2  19
TORSDOF 6
