REMARK  Name = ZINC13021274
REMARK  10 active torsions:
REMARK  status: ('A' for Active; 'I' for Inactive)
REMARK    1  A    between atoms: C_1  and  C_2
REMARK    2  A    between atoms: C_2  and  N_3
REMARK    3  A    between atoms: N_3  and  C_4
REMARK    4  A    between atoms: C_4  and  C_5
REMARK    5  A    between atoms: N_7  and  C_8
REMARK    6  A    between atoms: C_16  and  C_18
REMARK    7  A    between atoms: C_18  and  N_19
REMARK    8  A    between atoms: C_24  and  C_31
REMARK    9  A    between atoms: C_27  and  C_29
REMARK   10  A    between atoms: C_27  and  C_30
REMARK                            x       y       z     vdW  Elec       q    Type
REMARK                         _______ _______ _______ _____ _____    ______ ____
ROOT
ATOM      1  N   UNL     1      -5.772  -0.040   1.483  0.00  0.00    -0.292 N 
ATOM      2  C   UNL     1      -4.911   0.423   0.555  0.00  0.00    +0.234 C 
ATOM      3  O   UNL     1      -3.922   1.036   0.898  0.00  0.00    -0.274 OA
ENDROOT
BRANCH   1   5
ATOM      4  C   UNL     1      -6.643  -2.273   0.996  0.00  0.00    +0.024 C 
ATOM      5  C   UNL     1      -6.967  -0.779   1.069  0.00  0.00    +0.105 C 
ENDBRANCH   1   5
BRANCH   1   6
ATOM      6  C   UNL     1      -5.513   0.197   2.906  0.00  0.00    +0.203 C 
BRANCH   6   7
ATOM      7  C   UNL     1      -6.154   1.496   3.324  0.00  0.00    +0.235 C 
ATOM      8  O   UNL     1      -6.766   2.158   2.513  0.00  0.00    -0.274 OA
ATOM      9  N   UNL     1      -6.046   1.921   4.598  0.00  0.00    -0.280 N 
ATOM     10  H   UNL     1      -5.491   1.433   5.227  0.00  0.00    +0.155 HD
BRANCH   9  11
ATOM     11  C   UNL     1      -6.736   3.067   5.015  0.00  0.00    +0.105 A 
ATOM     12  C   UNL     1      -6.692   4.225   4.247  0.00  0.00    +0.147 A 
ATOM     13  C   UNL     1      -7.379   5.353   4.659  0.00  0.00    +0.040 A 
ATOM     14  C   UNL     1      -8.099   5.333   5.839  0.00  0.00    +0.006 A 
ATOM     15  C   UNL     1      -8.140   4.186   6.609  0.00  0.00    +0.040 A 
ATOM     16  C   UNL     1      -7.460   3.052   6.201  0.00  0.00    +0.147 A 
ATOM     17  F   UNL     1      -7.500   1.931   6.955  0.00  0.00    -0.203 F 
ATOM     18  F   UNL     1      -5.985   4.246   3.096  0.00  0.00    -0.203 F 
ENDBRANCH   9  11
ENDBRANCH   6   7
ENDBRANCH   1   6
BRANCH   2  19
ATOM     19  C   UNL     1      -5.178   0.180  -0.908  0.00  0.00    +0.213 C 
BRANCH  19  20
ATOM     20  N   UNL     1      -4.104   0.777  -1.706  0.00  0.00    -0.215 N 
ATOM     21  C   UNL     1      -2.975   0.130  -2.064  0.00  0.00    +0.247 C 
ATOM     22  O   UNL     1      -2.668  -1.012  -1.797  0.00  0.00    -0.273 OA
ATOM     23  C   UNL     1      -2.179   1.127  -2.873  0.00  0.00    +0.113 C 
ATOM     24  C   UNL     1      -0.839   1.408  -2.201  0.00  0.00    +0.038 C 
ATOM     25  C   UNL     1      -0.061   2.441  -3.020  0.00  0.00    -0.011 C 
ATOM     26  C   UNL     1       0.162   1.905  -4.436  0.00  0.00    +0.009 C 
ATOM     27  C   UNL     1      -1.190   1.650  -5.105  0.00  0.00    -0.032 C 
ATOM     28  C   UNL     1      -1.972   0.614  -4.294  0.00  0.00    +0.041 C 
ATOM     29  C   UNL     1      -0.965   1.124  -6.524  0.00  0.00    +0.011 C 
ATOM     30  C   UNL     1      -1.983   2.957  -5.165  0.00  0.00    +0.011 C 
ATOM     31  C   UNL     1       1.292   2.706  -2.356  0.00  0.00    +0.007 C 
ATOM     32  N   UNL     1      -3.016   2.334  -2.878  0.00  0.00    -0.285 N 
ATOM     33  C   UNL     1      -4.120   2.034  -2.167  0.00  0.00    +0.310 C 
ATOM     34  O   UNL     1      -5.030   2.815  -1.970  0.00  0.00    -0.252 OA
ATOM     35  H   UNL     1      -2.814   3.179  -3.308  0.00  0.00    +0.151 HD
ENDBRANCH  19  20
ENDBRANCH   2  19
TORSDOF 6
