REMARK  Name = ZINC13019759
REMARK  11 active torsions:
REMARK  status: ('A' for Active; 'I' for Inactive)
REMARK    1  A    between atoms: C_1  and  C_2
REMARK    2  A    between atoms: C_5  and  O_28
REMARK    3  A    between atoms: C_6  and  N_8
REMARK    4  A    between atoms: C_9  and  C_11
REMARK    5  A    between atoms: C_11  and  C_13
REMARK    6  A    between atoms: C_11  and  S_14
REMARK    7  A    between atoms: S_14  and  C_15
REMARK    8  A    between atoms: C_18  and  C_23
REMARK    9  A    between atoms: N_19  and  C_20
REMARK   10  A    between atoms: C_20  and  C_21
REMARK   11  A    between atoms: O_28  and  C_29
REMARK                            x       y       z     vdW  Elec       q    Type
REMARK                         _______ _______ _______ _____ _____    ______ ____
ROOT
ATOM      1  C   UNL     1       0.441   5.129   2.837  0.00  0.00    +0.137 C 
ATOM      2  C   UNL     1       0.812   4.495   4.179  0.00  0.00    +0.029 C 
ENDROOT
BRANCH   1   4
ATOM      3  N   UNL     1       0.959   7.518   3.212  0.00  0.00    -0.282 N 
ATOM      4  C   UNL     1       1.285   6.356   2.612  0.00  0.00    +0.230 C 
ATOM      5  O   UNL     1       2.259   6.300   1.890  0.00  0.00    -0.274 OA
ATOM      6  H   UNL     1       0.138   7.585   3.724  0.00  0.00    +0.155 HD
BRANCH   3  12
ATOM      7  C   UNL     1       5.457   9.349   2.442  0.00  0.00    +0.044 C 
ATOM      8  C   UNL     1       3.990   9.546   2.724  0.00  0.00    -0.048 A 
ATOM      9  C   UNL     1       3.481  10.823   2.869  0.00  0.00    +0.007 A 
ATOM     10  C   UNL     1       2.136  11.010   3.129  0.00  0.00    +0.048 A 
ATOM     11  C   UNL     1       1.294   9.916   3.244  0.00  0.00    +0.141 A 
ATOM     12  C   UNL     1       1.806   8.629   3.097  0.00  0.00    +0.076 A 
ATOM     13  C   UNL     1       3.158   8.449   2.842  0.00  0.00    +0.030 A 
BRANCH  11  14
ATOM     14  O   UNL     1      -0.029  10.098   3.500  0.00  0.00    -0.493 OA
ATOM     15  C   UNL     1      -0.484  11.445   3.638  0.00  0.00    +0.277 C 
ENDBRANCH  11  14
ENDBRANCH   3  12
ENDBRANCH   1   4
BRANCH   1  16
ATOM     16  S   UNL     1       0.739   3.939   1.506  0.00  0.00    -0.073 S 
BRANCH  16  17
ATOM     17  C   UNL     1      -0.450   2.708   1.924  0.00  0.00    +0.193 A 
ATOM     18  N   UNL     1      -1.280   2.741   2.941  0.00  0.00    -0.122 NA
ATOM     19  N   UNL     1      -2.006   1.680   2.955  0.00  0.00    -0.128 NA
ATOM     20  C   UNL     1      -1.687   0.905   1.942  0.00  0.00    +0.172 A 
ATOM     21  N   UNL     1      -0.682   1.542   1.248  0.00  0.00    -0.291 N 
BRANCH  20  22
ATOM     22  C   UNL     1      -2.289  -0.397   1.612  0.00  0.00    +0.056 A 
ATOM     23  C   UNL     1      -3.072  -1.210   2.392  0.00  0.00    +0.019 A 
ATOM     24  C   UNL     1      -3.530  -2.394   1.860  0.00  0.00    +0.008 A 
ATOM     25  C   UNL     1      -3.186  -2.726   0.589  0.00  0.00    +0.046 A 
ATOM     26  S   UNL     1      -2.185  -1.333   0.095  0.00  0.00    -0.094 S 
ENDBRANCH  20  22
BRANCH  21  27
ATOM     27  C   UNL     1      -0.001   1.068   0.041  0.00  0.00    +0.250 C 
BRANCH  27  28
ATOM     28  C   UNL     1      -0.739   1.559  -1.178  0.00  0.00    +0.375 C 
ATOM     29  O   UNL     1      -1.732   2.235  -1.052  0.00  0.00    -0.244 OA
ATOM     30  O   UNL     1      -0.292   1.244  -2.405  0.00  0.00    -0.244 OA
ENDBRANCH  27  28
ENDBRANCH  21  27
ENDBRANCH  16  17
ENDBRANCH   1  16
TORSDOF 8
