REMARK  Name = ZINC20731086
REMARK  4 active torsions:
REMARK  status: ('A' for Active; 'I' for Inactive)
REMARK    1  A    between atoms: C_10  and  C_11
REMARK    2  A    between atoms: N_14  and  C_17
REMARK    3  A    between atoms: C_17  and  C_19
REMARK    4  A    between atoms: C_17  and  C_30
REMARK                            x       y       z     vdW  Elec       q    Type
REMARK                         _______ _______ _______ _____ _____    ______ ____
ROOT
ATOM      1  C   UNL     1      -1.606  -1.071   0.808  0.00  0.00    +0.038 C 
ATOM      2  C   UNL     1      -0.510  -0.042   1.095  0.00  0.00    -0.009 C 
ATOM      3  C   UNL     1       0.243   0.270  -0.200  0.00  0.00    -0.077 C 
ATOM      4  N   UNL     1      -0.696   0.795  -1.199  0.00  0.00    +0.392 N 
ATOM      5  C   UNL     1      -1.731  -0.195  -1.526  0.00  0.00    -0.077 C 
ATOM      6  C   UNL     1      -2.543  -0.520  -0.271  0.00  0.00    -0.009 C 
ATOM      7  H   UNL     1      -1.197   1.671  -0.761  0.00  0.00    -0.080 HD
ENDROOT
BRANCH   1  17
ATOM      8  C   UNL     1      -2.384  -4.951   3.305  0.00  0.00    +0.039 A 
ATOM      9  C   UNL     1      -2.062  -3.920   2.469  0.00  0.00    +0.016 A 
ATOM     10  C   UNL     1      -2.539  -2.634   2.737  0.00  0.00    +0.045 A 
ATOM     11  C   UNL     1      -3.348  -2.407   3.863  0.00  0.00    +0.170 A 
ATOM     12  C   UNL     1      -3.666  -3.468   4.701  0.00  0.00    +0.088 A 
ATOM     13  C   UNL     1      -3.184  -4.732   4.420  0.00  0.00    +0.127 A 
ATOM     14  F   UNL     1      -3.494  -5.763   5.236  0.00  0.00    -0.205 F 
ATOM     15  O   UNL     1      -3.658  -1.095   3.870  0.00  0.00    -0.354 OA
ATOM     16  N   UNL     1      -3.052  -0.465   2.760  0.00  0.00    -0.082 NA
ATOM     17  C   UNL     1      -2.390  -1.339   2.067  0.00  0.00    +0.094 A 
ENDBRANCH   1  17
BRANCH   4  18
ATOM     18  C   UNL     1       0.013   1.235  -2.408  0.00  0.00    +0.080 C 
BRANCH  18  19
ATOM     19  C   UNL     1       0.960   2.353  -2.056  0.00  0.00    -0.025 A 
ATOM     20  C   UNL     1       0.841   3.205  -1.026  0.00  0.00    +0.086 A 
ATOM     21  N   UNL     1       1.889   4.084  -1.025  0.00  0.00    -0.360 N 
ATOM     22  H   UNL     1       1.957   4.859  -0.247  0.00  0.00    +0.165 HD
ATOM     23  C   UNL     1       2.730   3.813  -2.082  0.00  0.00    +0.047 A 
ATOM     24  C   UNL     1       2.187   2.712  -2.770  0.00  0.00    +0.003 A 
ATOM     25  C   UNL     1       2.830   2.214  -3.905  0.00  0.00    +0.025 A 
ATOM     26  C   UNL     1       4.001   2.797  -4.335  0.00  0.00    +0.019 A 
ATOM     27  C   UNL     1       4.539   3.880  -3.651  0.00  0.00    +0.017 A 
ATOM     28  C   UNL     1       3.913   4.386  -2.534  0.00  0.00    +0.027 A 
ATOM     29 BR   UNL     1       4.881   2.121  -5.867  0.00  0.00    -0.050 Br
ENDBRANCH  18  19
BRANCH  18  30
ATOM     30  C   UNL     1      -0.985   1.723  -3.426  0.00  0.00    +0.347 C 
ATOM     31  O   UNL     1      -2.024   2.222  -3.063  0.00  0.00    -0.248 OA
ATOM     32  O   UNL     1      -0.721   1.604  -4.737  0.00  0.00    -0.248 OA
ENDBRANCH  18  30
ENDBRANCH   4  18
TORSDOF 4
