REMARK  Name = ZINC03275621
REMARK  4 active torsions:
REMARK  status: ('A' for Active; 'I' for Inactive)
REMARK    1  A    between atoms: C_4  and  C_7
REMARK    2  A    between atoms: C_10  and  N_18
REMARK    3  A    between atoms: N_18  and  N_19
REMARK    4  A    between atoms: C_20  and  C_22
REMARK                            x       y       z     vdW  Elec       q    Type
REMARK                         _______ _______ _______ _____ _____    ______ ____
ROOT
ATOM      1  C   UNL     1       3.711  -0.707  -0.038  0.00  0.00    +0.229 C 
ATOM      2  C   UNL     1       4.045  -1.161   1.359  0.00  0.00    +0.047 C 
ATOM      3  C   UNL     1       3.615  -2.352   1.795  0.00  0.00    +0.055 C 
ATOM      4  C   UNL     1       2.826  -3.189   0.861  0.00  0.00    +0.039 A 
ATOM      5  C   UNL     1       2.064  -4.260   1.312  0.00  0.00    +0.013 A 
ATOM      6  C   UNL     1       1.344  -5.014   0.405  0.00  0.00    +0.001 A 
ATOM      7  C   UNL     1       1.380  -4.706  -0.944  0.00  0.00    +0.004 A 
ATOM      8  C   UNL     1       2.136  -3.641  -1.401  0.00  0.00    +0.046 A 
ATOM      9  C   UNL     1       2.861  -2.878  -0.505  0.00  0.00    +0.131 A 
ATOM     10  O   UNL     1       3.613  -1.827  -0.918  0.00  0.00    -0.479 OA
ENDROOT
BRANCH   1  14
ATOM     11  C   UNL     1      -0.017   1.378   0.010  0.00  0.00    +0.000 A 
ATOM     12  C   UNL     1       1.171   2.086   0.002  0.00  0.00    +0.000 A 
ATOM     13  C   UNL     1       2.377   1.411  -0.013  0.00  0.00    +0.007 A 
ATOM     14  C   UNL     1       2.396   0.029  -0.020  0.00  0.00    -0.003 A 
ATOM     15  C   UNL     1       1.208  -0.679  -0.012  0.00  0.00    +0.007 A 
ATOM     16  C   UNL     1       0.002  -0.004   0.002  0.00  0.00    +0.000 A 
ENDBRANCH   1  14
BRANCH   3  17
ATOM     17  N   UNL     1       3.900  -2.791   3.088  0.00  0.00    -0.264 N 
ATOM     18  H   UNL     1       3.581  -3.656   3.388  0.00  0.00    +0.170 HD
BRANCH  17  19
ATOM     19  N   UNL     1       4.648  -1.982   3.954  0.00  0.00    -0.232 N 
ATOM     20  C   UNL     1       4.924  -2.406   5.203  0.00  0.00    +0.260 C 
ATOM     21  O   UNL     1       4.524  -3.491   5.579  0.00  0.00    -0.269 OA
ATOM     22  H   UNL     1       4.967  -1.116   3.654  0.00  0.00    +0.173 HD
BRANCH  20  23
ATOM     23  C   UNL     1       5.712  -1.553   6.114  0.00  0.00    +0.042 A 
ATOM     24  C   UNL     1       6.168  -0.304   5.686  0.00  0.00    +0.017 A 
ATOM     25  C   UNL     1       6.902   0.490   6.538  0.00  0.00    +0.050 A 
ATOM     26  C   UNL     1       7.192   0.054   7.824  0.00  0.00    +0.166 A 
ATOM     27  C   UNL     1       6.740  -1.192   8.258  0.00  0.00    +0.167 A 
ATOM     28  C   UNL     1       5.999  -1.991   7.410  0.00  0.00    +0.062 A 
ATOM     29  O   UNL     1       7.155  -1.382   9.545  0.00  0.00    -0.453 OA
ATOM     30  C   UNL     1       8.208  -0.423   9.755  0.00  0.00    +0.466 C 
ATOM     31  O   UNL     1       7.888   0.642   8.840  0.00  0.00    -0.453 OA
ENDBRANCH  20  23
ENDBRANCH  17  19
ENDBRANCH   3  17
TORSDOF 4
