REMARK  Name = ZINC59679032
REMARK  11 active torsions:
REMARK  status: ('A' for Active; 'I' for Inactive)
REMARK    1  A    between atoms: C_1  and  O_2
REMARK    2  A    between atoms: O_2  and  C_3
REMARK    3  A    between atoms: C_6  and  N_9
REMARK    4  A    between atoms: C_15  and  C_16
REMARK    5  A    between atoms: C_18  and  C_29
REMARK    6  A    between atoms: C_19  and  O_24
REMARK    7  A    between atoms: C_20  and  O_22
REMARK    8  A    between atoms: O_22  and  C_23
REMARK    9  A    between atoms: O_24  and  C_25
REMARK   10  A    between atoms: C_25  and  C_26
REMARK   11  A    between atoms: C_29  and  C_30
REMARK                            x       y       z     vdW  Elec       q    Type
REMARK                         _______ _______ _______ _____ _____    ______ ____
ROOT
ATOM      1  N   UNL     1       9.210  -9.055  -1.157  0.00  0.00    -0.226 NA
ATOM      2  C   UNL     1       8.255  -8.393  -1.770  0.00  0.00    +0.166 C 
ATOM      3  N   UNL     1       7.115  -7.836  -1.230  0.00  0.00    -0.260 N 
ATOM      4  C   UNL     1       6.249  -7.197  -1.998  0.00  0.00    +0.256 C 
ATOM      5  O   UNL     1       5.238  -6.699  -1.538  0.00  0.00    -0.269 OA
ATOM      6  C   UNL     1       6.563  -7.116  -3.437  0.00  0.00    +0.078 C 
ATOM      7  C   UNL     1       5.860  -6.529  -4.440  0.00  0.00    +0.028 C 
ATOM      8  S   UNL     1       8.120  -7.990  -3.504  0.00  0.00    -0.049 S 
ATOM      9  H   UNL     1       6.948  -7.913  -0.278  0.00  0.00    +0.157 HD
ENDROOT
BRANCH   1  13
ATOM     10  C   UNL     1       8.993  -9.695   2.928  0.00  0.00    +0.120 A 
ATOM     11  C   UNL     1       9.352 -10.736   2.083  0.00  0.00    +0.048 A 
ATOM     12  C   UNL     1       9.425 -10.527   0.721  0.00  0.00    +0.031 A 
ATOM     13  C   UNL     1       9.138  -9.267   0.194  0.00  0.00    +0.067 A 
ATOM     14  C   UNL     1       8.777  -8.223   1.048  0.00  0.00    +0.031 A 
ATOM     15  C   UNL     1       8.701  -8.442   2.408  0.00  0.00    +0.048 A 
BRANCH  10  17
ATOM     16  C   UNL     1       9.236 -11.219   4.738  0.00  0.00    +0.277 C 
ATOM     17  O   UNL     1       8.922  -9.906   4.270  0.00  0.00    -0.495 OA
ENDBRANCH  10  17
ENDBRANCH   1  13
BRANCH   7  18
ATOM     18  C   UNL     1       6.281  -6.712  -5.835  0.00  0.00    -0.020 A 
ATOM     19  C   UNL     1       7.162  -7.747  -6.173  0.00  0.00    +0.015 A 
ATOM     20  C   UNL     1       7.553  -7.916  -7.483  0.00  0.00    +0.002 A 
ATOM     21  C   UNL     1       7.077  -7.063  -8.470  0.00  0.00    +0.166 A 
ATOM     22  C   UNL     1       6.200  -6.030  -8.142  0.00  0.00    +0.162 A 
ATOM     23  C   UNL     1       5.797  -5.856  -6.832  0.00  0.00    +0.057 A 
BRANCH  22  24
ATOM     24  O   UNL     1       5.737  -5.197  -9.112  0.00  0.00    -0.491 OA
ATOM     25  C   UNL     1       4.841  -4.162  -8.704  0.00  0.00    +0.277 C 
ENDBRANCH  22  24
BRANCH  21  26
ATOM     26  O   UNL     1       7.468  -7.235  -9.760  0.00  0.00    -0.477 OA
BRANCH  26  27
ATOM     27  C   UNL     1       6.666  -8.095 -10.572  0.00  0.00    +0.354 C 
BRANCH  27  28
ATOM     28  C   UNL     1       7.249  -8.164 -11.960  0.00  0.00    +0.393 C 
ATOM     29  O   UNL     1       8.258  -7.534 -12.229  0.00  0.00    -0.243 OA
ATOM     30  O   UNL     1       6.712  -8.849 -12.813  0.00  0.00    -0.243 OA
ENDBRANCH  27  28
ENDBRANCH  26  27
ENDBRANCH  21  26
BRANCH  20  31
ATOM     31  C   UNL     1       8.502  -9.029  -7.846  0.00  0.00    +0.065 C 
BRANCH  31  32
ATOM     32  C   UNL     1       9.913  -8.500  -7.868  0.00  0.00    -0.030 C 
ATOM     33  C   UNL     1      10.839  -9.074  -7.141  0.00  0.00    +0.004 C 
ENDBRANCH  31  32
ENDBRANCH  20  31
ENDBRANCH   7  18
TORSDOF 9
