REMARK  Name = ZINC40301624
REMARK  5 active torsions:
REMARK  status: ('A' for Active; 'I' for Inactive)
REMARK    1  A    between atoms: C_1  and  C_2
REMARK    2  A    between atoms: C_7  and  N_8
REMARK    3  A    between atoms: C_9  and  C_11
REMARK    4  A    between atoms: C_14  and  N_18
REMARK    5  A    between atoms: C_16  and  N_17
REMARK                            x       y       z     vdW  Elec       q    Type
REMARK                         _______ _______ _______ _____ _____    ______ ____
ROOT
ATOM      1  N   UNL     1       0.060  -0.012   2.419  0.00  0.00    -0.281 N 
ATOM      2  C   UNL     1      -0.041  -0.692   3.579  0.00  0.00    +0.250 C 
ATOM      3  O   UNL     1      -0.035  -1.909   3.572  0.00  0.00    -0.270 OA
ATOM      4  H   UNL     1       0.119   0.956   2.429  0.00  0.00    +0.155 HD
ENDROOT
BRANCH   1  11
ATOM      5  C   UNL     1      -1.187   1.198   0.167  0.00  0.00    +0.046 C 
ATOM      6  C   UNL     1      -0.516  -0.148   0.078  0.00  0.00    -0.028 A 
ATOM      7  C   UNL     1      -0.490  -0.829  -1.123  0.00  0.00    +0.025 A 
ATOM      8  C   UNL     1       0.126  -2.066  -1.205  0.00  0.00    +0.041 A 
ATOM      9  C   UNL     1       0.717  -2.623  -0.085  0.00  0.00    +0.022 A 
ATOM     10  C   UNL     1       0.694  -1.946   1.119  0.00  0.00    +0.025 A 
ATOM     11  C   UNL     1       0.081  -0.703   1.203  0.00  0.00    +0.037 A 
ATOM     12 CL   UNL     1       0.157  -2.919  -2.717  0.00  0.00    -0.084 Cl
ENDBRANCH   1  11
BRANCH   2  13
ATOM     13  C   UNL     1      -0.158   0.036   4.851  0.00  0.00    +0.058 A 
ATOM     14  C   UNL     1      -0.282   1.430   4.854  0.00  0.00    +0.017 A 
ATOM     15  C   UNL     1      -0.390   2.106   6.034  0.00  0.00    +0.023 A 
ATOM     16  C   UNL     1      -0.378   1.416   7.246  0.00  0.00    +0.026 A 
ATOM     17  C   UNL     1      -0.256   0.033   7.262  0.00  0.00    +0.046 A 
ATOM     18  C   UNL     1      -0.150  -0.665   6.069  0.00  0.00    +0.039 A 
BRANCH  18  19
ATOM     19  N   UNL     1      -0.033  -2.049   6.078  0.00  0.00    -0.357 N 
ATOM     20  H   UNL     1      -0.033  -2.541   5.242  0.00  0.00    +0.142 HD
ATOM     21  H   UNL     1       0.050  -2.524   6.920  0.00  0.00    +0.142 HD
ENDBRANCH  18  19
BRANCH  16  22
ATOM     22  N   UNL     1      -0.489   2.116   8.442  0.00  0.00    -0.358 N 
ATOM     23  H   UNL     1      -0.574   3.082   8.433  0.00  0.00    +0.142 HD
ATOM     24  H   UNL     1      -0.481   1.638   9.286  0.00  0.00    +0.142 HD
ENDBRANCH  16  22
ENDBRANCH   2  13
TORSDOF 4
