REMARK  Name = ZINC39354236
REMARK  6 active torsions:
REMARK  status: ('A' for Active; 'I' for Inactive)
REMARK    1  A    between atoms: C_1  and  C_2
REMARK    2  A    between atoms: C_5  and  N_8
REMARK    3  A    between atoms: C_9  and  C_11
REMARK    4  A    between atoms: C_11  and  C_12
REMARK    5  A    between atoms: N_18  and  N_19
REMARK    6  A    between atoms: C_20  and  C_21
REMARK                            x       y       z     vdW  Elec       q    Type
REMARK                         _______ _______ _______ _____ _____    ______ ____
ROOT
ATOM      1  C   UNL     1       0.424  -6.867   2.557  0.00  0.00    +0.149 C 
ATOM      2  C   UNL     1       0.535  -8.384   2.590  0.00  0.00    +0.233 C 
ATOM      3  O   UNL     1      -0.334  -9.126   2.183  0.00  0.00    -0.274 OA
ATOM      4  N   UNL     1       1.678  -8.813   3.108  0.00  0.00    -0.263 N 
ATOM      5  C   UNL     1       2.643  -7.960   3.559  0.00  0.00    +0.183 C 
ATOM      6  N   UNL     1       3.817  -8.287   4.093  0.00  0.00    -0.127 NA
ATOM      7  S   UNL     1       2.041  -6.409   3.303  0.00  0.00    -0.075 S 
ATOM      8  H   UNL     1       1.833  -9.768   3.168  0.00  0.00    +0.157 HD
ENDROOT
BRANCH   6   9
ATOM      9  N   UNL     1       4.141  -9.528   4.228  0.00  0.00    -0.155 NA
ATOM     10  C   UNL     1       5.308  -9.853   4.759  0.00  0.00    +0.141 C 
BRANCH  10  11
ATOM     11  C   UNL     1       5.657 -11.189   4.904  0.00  0.00    +0.000 C 
ATOM     12  C   UNL     1       6.842 -11.702   5.447  0.00  0.00    +0.004 A 
ATOM     13  C   UNL     1       7.987 -11.084   5.986  0.00  0.00    +0.010 A 
ATOM     14  C   UNL     1       9.011 -11.848   6.452  0.00  0.00    +0.001 A 
ATOM     15  C   UNL     1       8.959 -13.241   6.410  0.00  0.00    +0.002 A 
ATOM     16  C   UNL     1       7.887 -13.902   5.904  0.00  0.00    +0.026 A 
ATOM     17  C   UNL     1       6.781 -13.170   5.401  0.00  0.00    +0.043 A 
ATOM     18  N   UNL     1       5.641 -13.569   4.868  0.00  0.00    -0.380 N 
ATOM     19  C   UNL     1       4.834 -12.398   4.514  0.00  0.00    +0.150 C 
ATOM     20  H   UNL     1       5.377 -14.493   4.734  0.00  0.00    +0.160 HD
ENDBRANCH  10  11
ENDBRANCH   6   9
BRANCH   1  21
ATOM     21  C   UNL     1       0.309  -6.349   1.121  0.00  0.00    +0.120 C 
BRANCH  21  23
ATOM     22  N   UNL     1       0.059  -4.170  -0.021  0.00  0.00    -0.285 N 
ATOM     23  C   UNL     1       0.175  -4.848   1.138  0.00  0.00    +0.219 C 
ATOM     24  O   UNL     1       0.173  -4.251   2.193  0.00  0.00    -0.275 OA
ATOM     25  H   UNL     1      -0.017  -4.651  -0.860  0.00  0.00    +0.155 HD
BRANCH  22  30
ATOM     26  C   UNL     1       0.008   1.503   0.007  0.00  0.00    +0.044 C 
ATOM     27  C   UNL     1       0.022  -0.004  -0.001  0.00  0.00    -0.050 A 
ATOM     28  C   UNL     1       0.777  -0.692   0.931  0.00  0.00    +0.005 A 
ATOM     29  C   UNL     1       0.791  -2.073   0.927  0.00  0.00    +0.023 A 
ATOM     30  C   UNL     1       0.046  -2.771  -0.014  0.00  0.00    +0.033 A 
ATOM     31  C   UNL     1      -0.712  -2.077  -0.948  0.00  0.00    +0.023 A 
ATOM     32  C   UNL     1      -0.726  -0.696  -0.936  0.00  0.00    +0.005 A 
ENDBRANCH  22  30
ENDBRANCH  21  23
ENDBRANCH   1  21
TORSDOF 5
