REMARK  Name = ZINC28067120
REMARK  9 active torsions:
REMARK  status: ('A' for Active; 'I' for Inactive)
REMARK    1  A    between atoms: C_1  and  C_2
REMARK    2  A    between atoms: C_2  and  C_3
REMARK    3  A    between atoms: C_6  and  C_9
REMARK    4  A    between atoms: C_12  and  C_32
REMARK    5  A    between atoms: C_19  and  C_22
REMARK    6  A    between atoms: C_22  and  C_23
REMARK    7  A    between atoms: N_25  and  CA_26
REMARK    8  A    between atoms: CA_26  and  CB_28
REMARK    9  A    between atoms: CA_26  and  C_29
REMARK                            x       y       z     vdW  Elec       q    Type
REMARK                         _______ _______ _______ _____ _____    ______ ____
ROOT
ATOM      1  C   UNK A   0      -0.018   1.503   0.010  0.00  0.00    +0.136 C 
ATOM      2  C   UNK A   0      -0.820   2.041  -1.192  0.00  0.00    +0.087 C 
ATOM      3  C   UNK A   0      -1.959   2.806  -0.556  0.00  0.00    +0.069 C 
ATOM      4  N   UNK A   0      -1.860   2.740   0.726  0.00  0.00    -0.182 NA
ATOM      5  N   UNK A   0      -0.761   2.004   1.177  0.00  0.00    -0.195 N 
ATOM      6  C   UNK A   0      -0.430   1.785   2.484  0.00  0.00    +0.170 C 
ATOM      7  N   UNK A   0       0.597   1.096   2.964  0.00  0.00    -0.157 NA
ATOM      8  C   UNK A   0       0.844   0.933   4.235  0.00  0.00    +0.252 C 
ATOM      9  O   UNK A   0       1.797   0.294   4.636  0.00  0.00    -0.272 OA
ATOM     10  C   UNK A   0      -0.146   1.599   5.183  0.00  0.00    +0.150 C 
ATOM     11  S   UNK A   0      -1.275   2.364   3.949  0.00  0.00    -0.078 S 
ENDROOT
BRANCH   1  15
ATOM     12  C   UNK A   0       0.040  -2.768  -0.012  0.00  0.00    -0.048 A 
ATOM     13  C   UNK A   0       1.146  -2.060  -0.443  0.00  0.00    +0.004 A 
ATOM     14  C   UNK A   0       1.127  -0.678  -0.435  0.00  0.00    +0.006 A 
ATOM     15  C   UNK A   0       0.002  -0.004   0.002  0.00  0.00    -0.025 A 
ATOM     16  C   UNK A   0      -1.102  -0.713   0.437  0.00  0.00    +0.006 A 
ATOM     17  C   UNK A   0      -1.085  -2.095   0.425  0.00  0.00    +0.004 A 
BRANCH  12  19
ATOM     18  C   UNK A   0       0.590  -4.785   1.321  0.00  0.00    +0.009 C 
ATOM     19  C   UNK A   0       0.060  -4.275  -0.020  0.00  0.00    +0.032 C 
ENDBRANCH  12  19
ENDBRANCH   1  15
BRANCH   3  20
ATOM     20  C   UNK A   0      -3.020   3.519  -1.292  0.00  0.00    -0.002 A 
ATOM     21  C   UNK A   0      -3.021   3.528  -2.689  0.00  0.00    +0.010 A 
ATOM     22  C   UNK A   0      -4.019   4.193  -3.370  0.00  0.00    +0.001 A 
ATOM     23  C   UNK A   0      -5.011   4.859  -2.674  0.00  0.00    +0.000 A 
ATOM     24  C   UNK A   0      -5.013   4.860  -1.290  0.00  0.00    +0.001 A 
ATOM     25  C   UNK A   0      -4.025   4.194  -0.595  0.00  0.00    +0.010 A 
ENDBRANCH   3  20
BRANCH  10  26
ATOM     26  C   UNK A   0      -0.872   0.568   6.049  0.00  0.00    +0.119 C 
BRANCH  26  27
ATOM     27  C   UNK A   0      -1.746   1.278   7.050  0.00  0.00    +0.215 C 
ATOM     28  O   UNK A   0      -1.785   2.490   7.069  0.00  0.00    -0.276 OA
ATOM     29  N   ALA A   1      -2.484   0.566   7.925  0.00  0.00    -0.302 N 
ATOM     30  H   ALA A   1      -2.449  -0.534   7.907  0.00  0.00    +0.150 HD
BRANCH  29  31
ATOM     31  CA  ALA A   1      -3.334   1.256   8.898  0.00  0.00    +0.183 C 
ATOM     32  CB  ALA A   1      -4.682   1.587   8.254  0.00  0.00    +0.040 C 
BRANCH  31  33
ATOM     33  C   ALA A   1      -3.553   0.366  10.094  0.00  0.00    +0.376 C 
ATOM     34  O   ALA A   1      -3.051  -0.733  10.129  0.00  0.00    -0.244 OA
ATOM     35  OXT ALA A   1      -4.306   0.793  11.120  0.00  0.00    -0.244 OA
ENDBRANCH  31  33
ENDBRANCH  29  31
ENDBRANCH  26  27
ENDBRANCH  10  26
TORSDOF 7
