REMARK  Name = ZINC01376502
REMARK  8 active torsions:
REMARK  status: ('A' for Active; 'I' for Inactive)
REMARK    1  A    between atoms: C_1  and  C_2
REMARK    2  A    between atoms: C_2  and  C_3
REMARK    3  A    between atoms: C_2  and  C_4
REMARK    4  A    between atoms: C_17  and  S_20
REMARK    5  A    between atoms: S_20  and  C_21
REMARK    6  A    between atoms: C_21  and  C_22
REMARK    7  A    between atoms: N_24  and  C_25
REMARK    8  A    between atoms: C_25  and  C_26
REMARK                            x       y       z     vdW  Elec       q    Type
REMARK                         _______ _______ _______ _____ _____    ______ ____
ROOT
ATOM      1  C   UNL     1      13.296  -2.459   0.818  0.00  0.00    +0.121 A 
ATOM      2  N   UNL     1      14.550  -2.699   0.559  0.00  0.00    -0.226 NA
ATOM      3  C   UNL     1      14.970  -3.063  -0.649  0.00  0.00    +0.114 A 
ATOM      4  C   UNL     1      14.094  -3.223  -1.733  0.00  0.00    +0.056 A 
ATOM      5  C   UNL     1      14.670  -3.615  -2.967  0.00  0.00    -0.024 A 
ATOM      6  C   UNL     1      16.008  -3.816  -3.000  0.00  0.00    -0.004 A 
ATOM      7  S   UNL     1      16.553  -3.461  -1.350  0.00  0.00    -0.073 S 
ATOM      8  C   UNL     1      16.838  -4.231  -4.174  0.00  0.00    +0.043 C 
ATOM      9  C   UNL     1      15.899  -4.756  -5.270  0.00  0.00    +0.005 C 
ATOM     10  C   UNL     1      14.748  -3.762  -5.447  0.00  0.00    +0.005 C 
ATOM     11  C   UNL     1      13.828  -3.807  -4.226  0.00  0.00    +0.037 C 
ATOM     12  C   UNL     1      12.674  -2.941  -1.430  0.00  0.00    +0.173 A 
ATOM     13  N   UNL     1      12.337  -2.567  -0.147  0.00  0.00    -0.257 N 
ATOM     14  C   UNL     1      10.982  -2.382  -0.167  0.00  0.00    +0.198 A 
ATOM     15  N   UNL     1      10.574  -2.626  -1.391  0.00  0.00    -0.122 NA
ATOM     16  N   UNL     1      11.571  -2.956  -2.137  0.00  0.00    -0.128 NA
ENDROOT
BRANCH   1  18
ATOM     17  C   UNL     1      13.119  -3.223   3.170  0.00  0.00    +0.015 C 
ATOM     18  C   UNL     1      12.896  -2.051   2.212  0.00  0.00    +0.049 C 
ATOM     19  C   UNL     1      13.744  -0.859   2.659  0.00  0.00    +0.015 C 
ENDBRANCH   1  18
BRANCH  14  20
ATOM     20  S   UNL     1       9.974  -1.898   1.194  0.00  0.00    -0.076 S 
BRANCH  20  21
ATOM     21  C   UNL     1       8.300  -1.829   0.498  0.00  0.00    +0.173 C 
BRANCH  21  22
ATOM     22  C   UNL     1       7.325  -1.421   1.572  0.00  0.00    +0.224 C 
ATOM     23  O   UNL     1       7.720  -1.200   2.697  0.00  0.00    -0.275 OA
ATOM     24  N   UNL     1       6.014  -1.304   1.283  0.00  0.00    -0.311 N 
ATOM     25  H   UNL     1       5.698  -1.481   0.383  0.00  0.00    +0.149 HD
BRANCH  24  26
ATOM     26  C   UNL     1       5.066  -0.907   2.327  0.00  0.00    +0.139 C 
BRANCH  26  27
ATOM     27  C   UNL     1       3.676  -0.850   1.749  0.00  0.00    -0.027 A 
ATOM     28  C   UNL     1       2.873  -1.975   1.769  0.00  0.00    +0.009 A 
ATOM     29  C   UNL     1       1.597  -1.927   1.239  0.00  0.00    +0.050 A 
ATOM     30  C   UNL     1       1.120  -0.750   0.686  0.00  0.00    +0.166 A 
ATOM     31  C   UNL     1       1.929   0.383   0.665  0.00  0.00    +0.167 A 
ATOM     32  C   UNL     1       3.206   0.328   1.198  0.00  0.00    +0.054 A 
ATOM     33  O   UNL     1       1.238   1.401   0.074  0.00  0.00    -0.453 OA
ATOM     34  C   UNL     1      -0.144   0.996   0.102  0.00  0.00    +0.466 C 
ATOM     35  O   UNL     1      -0.077  -0.443   0.107  0.00  0.00    -0.453 OA
ENDBRANCH  26  27
ENDBRANCH  24  26
ENDBRANCH  21  22
ENDBRANCH  20  21
ENDBRANCH  14  20
TORSDOF 6
