REMARK  Name = ZINC49211632
REMARK  6 active torsions:
REMARK  status: ('A' for Active; 'I' for Inactive)
REMARK    1  A    between atoms: C_1  and  C_2
REMARK    2  A    between atoms: C_2  and  N_3
REMARK    3  A    between atoms: C_5  and  N_10
REMARK    4  A    between atoms: N_13  and  C_14
REMARK    5  A    between atoms: C_14  and  C_15
REMARK    6  A    between atoms: C_20  and  C_21
REMARK                            x       y       z     vdW  Elec       q    Type
REMARK                         _______ _______ _______ _____ _____    ______ ____
ROOT
ATOM      1  N   UNL     1      -0.159  -1.363  -4.635  0.00  0.00    -0.268 N 
ATOM      2  C   UNL     1       0.466  -1.700  -5.781  0.00  0.00    +0.304 C 
ATOM      3  O   UNL     1       1.666  -1.897  -5.784  0.00  0.00    -0.252 OA
ATOM      4  N   UNL     1      -0.240  -1.819  -6.923  0.00  0.00    -0.295 N 
ATOM      5  H   UNL     1      -1.124  -1.274  -4.617  0.00  0.00    +0.156 HD
ATOM      6  H   UNL     1      -1.197  -1.662  -6.920  0.00  0.00    +0.151 HD
ENDROOT
BRANCH   1   9
ATOM      7  N   UNL     1       1.222   0.277  -1.688  0.00  0.00    -0.314 N 
ATOM      8  C   UNL     1       0.503   0.051  -2.820  0.00  0.00    +0.112 A 
ATOM      9  C   UNL     1       0.589  -1.141  -3.467  0.00  0.00    +0.051 A 
ATOM     10  C   UNL     1       1.429  -2.151  -2.965  0.00  0.00    +0.030 A 
ATOM     11  C   UNL     1       2.146  -1.916  -1.829  0.00  0.00    +0.072 A 
ATOM     12  C   UNL     1       2.037  -0.671  -1.189  0.00  0.00    +0.251 A 
ATOM     13  O   UNL     1       2.679  -0.449  -0.174  0.00  0.00    -0.268 OA
BRANCH   7  15
ATOM     14  C   UNL     1       2.159   2.533  -1.570  0.00  0.00    +0.027 C 
ATOM     15  C   UNL     1       1.112   1.570  -1.008  0.00  0.00    +0.121 C 
ENDBRANCH   7  15
ENDBRANCH   1   9
BRANCH   4  16
ATOM     16  C   UNL     1       0.439  -2.186  -8.169  0.00  0.00    +0.144 C 
BRANCH  16  17
ATOM     17  C   UNL     1      -0.567  -2.251  -9.289  0.00  0.00    +0.010 A 
ATOM     18  C   UNL     1      -1.136  -3.374  -9.784  0.00  0.00    +0.110 A 
ATOM     19  N   UNL     1      -1.977  -3.007 -10.774  0.00  0.00    -0.284 N 
ATOM     20  H   UNL     1      -2.522  -3.605 -11.309  0.00  0.00    +0.188 HD
ATOM     21  N   UNL     1      -1.924  -1.613 -10.890  0.00  0.00    -0.179 NA
ATOM     22  C   UNL     1      -1.083  -1.159  -9.996  0.00  0.00    +0.064 A 
ATOM     23  C   UNL     1      -0.729   0.288  -9.769  0.00  0.00    +0.068 C 
ENDBRANCH  16  17
ENDBRANCH   4  16
TORSDOF 4
