REMARK  Name = ZINC57809857
REMARK  8 active torsions:
REMARK  status: ('A' for Active; 'I' for Inactive)
REMARK    1  A    between atoms: C_1  and  C_2
REMARK    2  A    between atoms: C_2  and  C_3
REMARK    3  A    between atoms: C_3  and  C_27
REMARK    4  A    between atoms: N_6  and  C_10
REMARK    5  A    between atoms: C_10  and  C_11
REMARK    6  A    between atoms: C_11  and  N_13
REMARK    7  A    between atoms: N_15  and  C_19
REMARK    8  A    between atoms: C_19  and  C_20
REMARK                            x       y       z     vdW  Elec       q    Type
REMARK                         _______ _______ _______ _____ _____    ______ ____
ROOT
ATOM      1  C   UNL     1      -0.543  -3.377   2.833  0.00  0.00    +0.256 C 
ATOM      2  O   UNL     1       0.403  -2.718   2.443  0.00  0.00    -0.272 OA
ENDROOT
BRANCH   1   3
ATOM      3  N   UNL     1      -0.349  -4.379   3.680  0.00  0.00    -0.155 NA
ATOM      4  C   UNL     1      -0.383  -5.639   3.242  0.00  0.00    +0.166 A 
ATOM      5  N   UNL     1      -0.306  -6.091   1.962  0.00  0.00    -0.324 N 
ATOM      6  C   UNL     1      -0.360  -7.431   1.734  0.00  0.00    +0.095 A 
ATOM      7  C   UNL     1      -0.487  -8.229   2.800  0.00  0.00    +0.066 A 
ATOM      8  S   UNL     1      -0.524  -7.054   4.140  0.00  0.00    -0.061 S 
BRANCH   5   9
ATOM      9  C   UNL     1      -0.167  -5.151   0.847  0.00  0.00    +0.160 C 
BRANCH   9  10
ATOM     10  C   UNL     1       1.270  -5.116   0.394  0.00  0.00    -0.009 A 
ATOM     11  C   UNL     1       2.150  -4.211   0.957  0.00  0.00    +0.007 A 
ATOM     12  C   UNL     1       3.468  -4.180   0.542  0.00  0.00    +0.000 A 
ATOM     13  C   UNL     1       3.907  -5.053  -0.436  0.00  0.00    +0.001 A 
ATOM     14  C   UNL     1       3.027  -5.958  -0.999  0.00  0.00    +0.020 A 
ATOM     15  C   UNL     1       1.709  -5.994  -0.580  0.00  0.00    +0.046 A 
ATOM     16 CL   UNL     1       0.606  -7.135  -1.283  0.00  0.00    -0.083 Cl
ENDBRANCH   9  10
ENDBRANCH   5   9
ENDBRANCH   1   3
BRANCH   1  17
ATOM     17  C   UNL     1      -1.935  -3.054   2.354  0.00  0.00    +0.215 C 
BRANCH  17  21
ATOM     18  C   UNL     1      -1.730  -0.607  -0.433  0.00  0.00    +0.110 C 
ATOM     19  C   UNL     1      -1.723  -2.026   0.100  0.00  0.00    +0.247 C 
ATOM     20  O   UNL     1      -1.598  -3.048  -0.540  0.00  0.00    -0.273 OA
ATOM     21  N   UNL     1      -1.883  -1.915   1.434  0.00  0.00    -0.215 N 
ATOM     22  C   UNL     1      -1.989  -0.637   1.813  0.00  0.00    +0.310 C 
ATOM     23  O   UNL     1      -2.140  -0.285   2.967  0.00  0.00    -0.252 OA
ATOM     24  N   UNL     1      -1.910   0.216   0.775  0.00  0.00    -0.285 N 
ATOM     25  C   UNL     1      -2.894  -0.400  -1.404  0.00  0.00    +0.041 C 
ATOM     26  H   UNL     1      -1.962   1.183   0.815  0.00  0.00    +0.151 HD
BRANCH  18  28
ATOM     27  C   UNL     1      -0.342   1.214  -1.432  0.00  0.00    +0.006 C 
ATOM     28  C   UNL     1      -0.399  -0.281  -1.113  0.00  0.00    +0.031 C 
ENDBRANCH  18  28
ENDBRANCH  17  21
ENDBRANCH   1  17
TORSDOF 6
