REMARK  Name = ZINC34954504
REMARK  9 active torsions:
REMARK  status: ('A' for Active; 'I' for Inactive)
REMARK    1  A    between atoms: C_1  and  C_2
REMARK    2  A    between atoms: C_2  and  C_3
REMARK    3  A    between atoms: C_3  and  C_4
REMARK    4  A    between atoms: N_9  and  C_23
REMARK    5  A    between atoms: C_13  and  C_21
REMARK    6  A    between atoms: C_14  and  N_20
REMARK    7  A    between atoms: C_15  and  C_16
REMARK    8  A    between atoms: C_15  and  C_18
REMARK    9  A    between atoms: C_23  and  C_24
REMARK                            x       y       z     vdW  Elec       q    Type
REMARK                         _______ _______ _______ _____ _____    ______ ____
ROOT
ATOM      1  C   UNL     1      -1.415  -2.058  -0.121  0.00  0.00    +0.038 C 
ATOM      2  C   UNL     1      -2.838  -2.568  -0.355  0.00  0.00    +0.040 C 
ATOM      3  C   UNL     1      -3.514  -1.846  -1.499  0.00  0.00    +0.093 C 
ATOM      4  N   UNL     1      -3.470  -2.624  -2.741  0.00  0.00    -0.298 NA
ATOM      5  C   UNL     1      -4.154  -3.916  -2.556  0.00  0.00    +0.112 C 
ATOM      6  C   UNL     1      -3.391  -4.693  -1.512  0.00  0.00    -0.007 C 
ATOM      7  C   UNL     1      -2.775  -4.056  -0.551  0.00  0.00    -0.027 C 
ATOM      8  C   UNL     1      -1.929  -4.827   0.394  0.00  0.00    +0.074 C 
ATOM      9  C   UNL     1      -1.038  -4.168   1.178  0.00  0.00    +0.054 C 
ATOM     10  C   UNL     1      -0.868  -2.678   1.165  0.00  0.00    +0.184 C 
ENDROOT
BRANCH   9  11
ATOM     11  N   UNL     1      -0.253  -4.900   2.023  0.00  0.00    -0.358 N 
ATOM     12  H   UNL     1      -0.341  -5.866   2.052  0.00  0.00    +0.142 HD
ATOM     13  H   UNL     1       0.392  -4.455   2.595  0.00  0.00    +0.142 HD
ENDBRANCH   9  11
BRANCH  10  14
ATOM     14  C   UNL     1      -1.584  -2.105   2.316  0.00  0.00    +0.091 C 
ATOM     15  N   UNL     1      -2.136  -1.663   3.205  0.00  0.00    -0.195 NA
ENDBRANCH  10  14
BRANCH  10  16
ATOM     16  C   UNL     1       0.563  -2.355   1.282  0.00  0.00    +0.091 C 
ATOM     17  N   UNL     1       1.668  -2.106   1.373  0.00  0.00    -0.195 NA
ENDBRANCH  10  16
BRANCH   8  18
ATOM     18  C   UNL     1      -2.050  -6.252   0.477  0.00  0.00    +0.101 C 
ATOM     19  N   UNL     1      -2.146  -7.382   0.542  0.00  0.00    -0.191 NA
ENDBRANCH   8  18
BRANCH   4  20
ATOM     20  C   UNL     1      -4.061  -1.870  -3.855  0.00  0.00    +0.081 C 
ATOM     21  C   UNL     1      -3.776  -2.598  -5.171  0.00  0.00    +0.020 C 
ENDBRANCH   4  20
BRANCH   1  22
ATOM     22  C   UNL     1      -1.433  -0.534   0.013  0.00  0.00    +0.007 C 
BRANCH  22  24
ATOM     23  C   UNL     1      -0.009   1.518   0.075  0.00  0.00    +0.004 C 
ATOM     24  C   UNL     1       0.003  -0.011   0.091  0.00  0.00    -0.003 C 
ENDBRANCH  22  24
ENDBRANCH   1  22
TORSDOF 7
