REMARK  Name = ZINC09388135
REMARK  9 active torsions:
REMARK  status: ('A' for Active; 'I' for Inactive)
REMARK    1  A    between atoms: C_1  and  C_2
REMARK    2  A    between atoms: C_2  and  C_4
REMARK    3  A    between atoms: C_2  and  O_16
REMARK    4  A    between atoms: N_6  and  C_7
REMARK    5  A    between atoms: O_16  and  C_17
REMARK    6  A    between atoms: C_17  and  C_19
REMARK    7  A    between atoms: C_19  and  N_20
REMARK    8  A    between atoms: C_23  and  C_27
REMARK    9  A    between atoms: C_23  and  C_28
REMARK                            x       y       z     vdW  Elec       q    Type
REMARK                         _______ _______ _______ _____ _____    ______ ____
ROOT
ATOM      1  C   UNL     1      -2.700   0.132  -1.030  0.00  0.00    +0.062 C 
ATOM      2  C   UNL     1      -2.478   1.091   0.142  0.00  0.00    +0.259 C 
ENDROOT
BRANCH   2   3
ATOM      3  C   UNL     1      -1.120   1.732   0.016  0.00  0.00    +0.258 C 
ATOM      4  O   UNL     1      -1.025   2.937  -0.077  0.00  0.00    -0.271 OA
ATOM      5  N   UNL     1      -0.011   0.966   0.007  0.00  0.00    -0.281 N 
ATOM      6  H   UNL     1      -0.089  -0.001   0.017  0.00  0.00    +0.155 HD
BRANCH   5   7
ATOM      7  C   UNL     1       1.254   1.565  -0.021  0.00  0.00    +0.053 A 
ATOM      8  C   UNL     1       1.447   2.748  -0.723  0.00  0.00    +0.046 A 
ATOM      9  C   UNL     1       2.696   3.340  -0.746  0.00  0.00    +0.061 A 
ATOM     10  C   UNL     1       3.756   2.750  -0.077  0.00  0.00    +0.061 A 
ATOM     11  C   UNL     1       3.567   1.569   0.618  0.00  0.00    +0.043 A 
ATOM     12  C   UNL     1       2.319   0.975   0.648  0.00  0.00    +0.064 A 
ATOM     13 CL   UNL     1       2.083  -0.506   1.521  0.00  0.00    -0.082 Cl
ATOM     14 CL   UNL     1       5.324   3.493  -0.113  0.00  0.00    -0.082 Cl
ATOM     15 CL   UNL     1       2.937   4.822  -1.618  0.00  0.00    -0.082 Cl
ENDBRANCH   5   7
ENDBRANCH   2   3
BRANCH   2  16
ATOM     16  O   UNL     1      -3.502   2.119   0.127  0.00  0.00    -0.451 OA
BRANCH  16  17
ATOM     17  C   UNL     1      -4.629   1.867   0.812  0.00  0.00    +0.326 C 
ATOM     18  O   UNL     1      -4.755   0.822   1.404  0.00  0.00    -0.249 OA
BRANCH  17  19
ATOM     19  C   UNL     1      -5.737   2.889   0.842  0.00  0.00    +0.238 C 
BRANCH  19  20
ATOM     20  N   UNL     1      -6.848   2.380   1.649  0.00  0.00    -0.213 N 
ATOM     21  C   UNL     1      -7.875   1.660   1.155  0.00  0.00    +0.246 C 
ATOM     22  O   UNL     1      -8.047   1.325   0.003  0.00  0.00    -0.273 OA
ATOM     23  C   UNL     1      -8.770   1.356   2.341  0.00  0.00    +0.107 C 
ATOM     24  N   UNL     1      -8.082   2.007   3.469  0.00  0.00    -0.285 N 
ATOM     25  C   UNL     1      -6.972   2.577   2.966  0.00  0.00    +0.310 C 
ATOM     26  O   UNL     1      -6.172   3.201   3.634  0.00  0.00    -0.252 OA
ATOM     27  C   UNL     1      -8.872  -0.153   2.570  0.00  0.00    +0.041 C 
ATOM     28  C   UNL     1     -10.158   1.965   2.132  0.00  0.00    +0.041 C 
ATOM     29  H   UNL     1      -8.374   2.022   4.394  0.00  0.00    +0.151 HD
ENDBRANCH  19  20
ENDBRANCH  17  19
ENDBRANCH  16  17
ENDBRANCH   2  16
TORSDOF 6
