REMARK  Name = ZINC36656199
REMARK  13 active torsions:
REMARK  status: ('A' for Active; 'I' for Inactive)
REMARK    1  A    between atoms: C_1  and  C_2
REMARK    2  A    between atoms: C_2  and  C_3
REMARK    3  A    between atoms: C_2  and  C_4
REMARK    4  A    between atoms: C_4  and  C_6
REMARK    5  A    between atoms: C_4  and  N_17
REMARK    6  A    between atoms: N_8  and  C_9
REMARK    7  A    between atoms: C_9  and  C_10
REMARK    8  A    between atoms: C_10  and  N_11
REMARK    9  A    between atoms: C_12  and  C_14
REMARK   10  A    between atoms: C_14  and  C_15
REMARK   11  A    between atoms: C_14  and  C_16
REMARK   12  A    between atoms: N_17  and  S_18
REMARK   13  A    between atoms: S_18  and  C_21
REMARK                            x       y       z     vdW  Elec       q    Type
REMARK                         _______ _______ _______ _____ _____    ______ ____
ROOT
ATOM      1  C   UNL     1      -1.605  -0.629  -0.079  0.00  0.00    +0.165 C 
ENDROOT
BRANCH   1   2
ATOM      2  C   UNL     1      -2.713  -0.221  -1.015  0.00  0.00    +0.232 C 
ATOM      3  O   UNL     1      -3.238  -1.047  -1.731  0.00  0.00    -0.274 OA
ATOM      4  N   UNL     1      -3.121   1.063  -1.056  0.00  0.00    -0.312 N 
ATOM      5  H   UNL     1      -2.651   1.738  -0.542  0.00  0.00    +0.149 HD
BRANCH   4   6
ATOM      6  C   UNL     1      -4.274   1.440  -1.879  0.00  0.00    +0.123 C 
BRANCH   6   7
ATOM      7  C   UNL     1      -4.524   2.944  -1.748  0.00  0.00    +0.123 C 
BRANCH   7   8
ATOM      8  N   UNL     1      -5.676   3.320  -2.571  0.00  0.00    -0.314 N 
ATOM      9  C   UNL     1      -6.084   4.604  -2.612  0.00  0.00    +0.216 C 
ATOM     10  O   UNL     1      -5.497   5.448  -1.968  0.00  0.00    -0.276 OA
ATOM     11  H   UNL     1      -6.146   2.645  -3.085  0.00  0.00    +0.149 HD
BRANCH   9  12
ATOM     12  C   UNL     1      -7.270   4.991  -3.458  0.00  0.00    +0.069 C 
ATOM     13  C   UNL     1      -8.507   4.226  -2.983  0.00  0.00    +0.017 C 
ATOM     14  C   UNL     1      -7.520   6.495  -3.328  0.00  0.00    +0.017 C 
ENDBRANCH   9  12
ENDBRANCH   7   8
ENDBRANCH   6   7
ENDBRANCH   4   6
ENDBRANCH   1   2
BRANCH   1  16
ATOM     15  C   UNL     1       0.837  -0.410   0.402  0.00  0.00    +0.009 C 
ATOM     16  C   UNL     1      -0.269  -0.108  -0.612  0.00  0.00    +0.010 C 
ATOM     17  C   UNL     1       0.054  -0.797  -1.939  0.00  0.00    +0.009 C 
ENDBRANCH   1  16
BRANCH   1  18
ATOM     18  N   UNL     1      -1.558  -2.091   0.013  0.00  0.00    -0.178 NA
ATOM     19  H   UNL     1      -1.351  -2.620  -0.774  0.00  0.00    +0.149 HD
BRANCH  18  20
ATOM     20  S   UNL     1      -1.858  -2.840   1.459  0.00  0.00    +0.059 S 
ATOM     21  O   UNL     1      -1.856  -4.237   1.200  0.00  0.00    -0.153 OA
ATOM     22  O   UNL     1      -0.993  -2.240   2.414  0.00  0.00    -0.153 OA
BRANCH  20  23
ATOM     23  C   UNL     1      -3.502  -2.418   1.933  0.00  0.00    +0.105 A 
ATOM     24  C   UNL     1      -3.732  -1.289   2.697  0.00  0.00    +0.029 A 
ATOM     25  C   UNL     1      -5.022  -0.958   3.069  0.00  0.00    +0.017 A 
ATOM     26  C   UNL     1      -6.081  -1.755   2.676  0.00  0.00    +0.018 A 
ATOM     27  C   UNL     1      -5.850  -2.885   1.911  0.00  0.00    +0.017 A 
ATOM     28  C   UNL     1      -4.561  -3.212   1.536  0.00  0.00    +0.029 A 
ATOM     29 BR   UNL     1      -7.845  -1.302   3.185  0.00  0.00    -0.050 Br
ENDBRANCH  20  23
ENDBRANCH  18  20
ENDBRANCH   1  18
TORSDOF 9
