REMARK  Name = ZINC09913037
REMARK  7 active torsions:
REMARK  status: ('A' for Active; 'I' for Inactive)
REMARK    1  A    between atoms: C_1  and  C_2
REMARK    2  A    between atoms: C_5  and  C_25
REMARK    3  A    between atoms: C_6  and  N_8
REMARK    4  A    between atoms: C_9  and  C_11
REMARK    5  A    between atoms: N_13  and  C_14
REMARK    6  A    between atoms: C_17  and  N_22
REMARK    7  A    between atoms: C_19  and  C_20
REMARK                            x       y       z     vdW  Elec       q    Type
REMARK                         _______ _______ _______ _____ _____    ______ ____
ROOT
ATOM      1  C   UNL     1       1.105   2.021   0.033  0.00  0.00    +0.303 C 
ATOM      2  O   UNL     1       2.157   1.415   0.027  0.00  0.00    -0.265 OA
ATOM      3  N   UNL     1       1.104   3.368   0.035  0.00  0.00    -0.277 N 
ATOM      4  H   UNL     1       0.266   3.852   0.110  0.00  0.00    +0.155 HD
ENDROOT
BRANCH   3   5
ATOM      5  C   UNL     1       2.304   4.066  -0.070  0.00  0.00    +0.051 A 
ATOM      6  C   UNL     1       3.457   3.563   0.516  0.00  0.00    +0.027 A 
ATOM      7  C   UNL     1       4.646   4.256   0.410  0.00  0.00    +0.034 A 
ATOM      8  C   UNL     1       4.699   5.456  -0.280  0.00  0.00    +0.128 A 
ATOM      9  C   UNL     1       3.564   5.972  -0.868  0.00  0.00    +0.053 A 
ATOM     10  C   UNL     1       2.355   5.279  -0.774  0.00  0.00    +0.075 A 
BRANCH   8  11
ATOM     11  N   UNL     1       5.981   6.189  -0.386  0.00  0.00    +0.056 N 
ATOM     12  O   UNL     1       6.986   5.736   0.133  0.00  0.00    -0.126 OA
ATOM     13  O   UNL     1       6.031   7.244  -0.992  0.00  0.00    -0.126 OA
ENDBRANCH   8  11
BRANCH  10  14
ATOM     14  C   UNL     1       1.173   5.806  -1.388  0.00  0.00    +0.101 C 
ATOM     15  N   UNL     1       0.236   6.224  -1.875  0.00  0.00    -0.191 NA
ENDBRANCH  10  14
ENDBRANCH   3   5
BRANCH   1  17
ATOM     16  N   UNL     1      -0.185  -0.075   0.035  0.00  0.00    -0.277 N 
ATOM     17  C   UNL     1      -0.186   1.273   0.038  0.00  0.00    +0.303 C 
ATOM     18  O   UNL     1      -1.238   1.879   0.039  0.00  0.00    -0.265 OA
ATOM     19  H   UNL     1       0.651  -0.559  -0.049  0.00  0.00    +0.155 HD
BRANCH  16  25
ATOM     20  C   UNL     1      -4.859  -0.229   1.549  0.00  0.00    +0.044 C 
ATOM     21  C   UNL     1      -3.671  -0.874   0.883  0.00  0.00    -0.049 A 
ATOM     22  C   UNL     1      -3.771  -2.162   0.390  0.00  0.00    +0.004 A 
ATOM     23  C   UNL     1      -2.683  -2.759  -0.221  0.00  0.00    +0.005 A 
ATOM     24  C   UNL     1      -1.492  -2.069  -0.341  0.00  0.00    -0.029 A 
ATOM     25  C   UNL     1      -1.388  -0.775   0.154  0.00  0.00    +0.037 A 
ATOM     26  C   UNL     1      -2.482  -0.181   0.772  0.00  0.00    +0.027 A 
ATOM     27  C   UNL     1      -0.307  -2.720  -1.007  0.00  0.00    +0.045 C 
ENDBRANCH  16  25
ENDBRANCH   1  17
TORSDOF 5
