REMARK  Name = ZINC51021858
REMARK  3 active torsions:
REMARK  status: ('A' for Active; 'I' for Inactive)
REMARK    1  A    between atoms: C_8  and  C_10
REMARK    2  A    between atoms: C_10  and  S_11
REMARK    3  A    between atoms: S_11  and  C_12
REMARK                            x       y       z     vdW  Elec       q    Type
REMARK                         _______ _______ _______ _____ _____    ______ ____
ROOT
ATOM      1  C   UNL     1       0.638  -4.181  -0.027  0.00  0.00    +0.152 C 
ENDROOT
BRANCH   1   9
ATOM      2  C   UNL     1      -0.018   1.449   0.010  0.00  0.00    +0.020 A 
ATOM      3  C   UNL     1       1.143   2.120   0.003  0.00  0.00    +0.048 A 
ATOM      4  S   UNL     1       2.373   0.829  -0.016  0.00  0.00    -0.077 S 
ATOM      5  C   UNL     1       1.296  -0.580  -0.013  0.00  0.00    +0.113 A 
ATOM      6  C   UNL     1       0.002  -0.004   0.002  0.00  0.00    +0.044 A 
ATOM      7  C   UNL     1      -1.072  -0.924   0.007  0.00  0.00    +0.141 A 
ATOM      8  N   UNL     1      -0.814  -2.216  -0.003  0.00  0.00    -0.219 NA
ATOM      9  C   UNL     1       0.420  -2.690  -0.017  0.00  0.00    +0.142 A 
ATOM     10  N   UNL     1       1.465  -1.884  -0.023  0.00  0.00    -0.224 NA
ATOM     11 CL   UNL     1      -2.713  -0.358   0.026  0.00  0.00    -0.061 Cl
ENDBRANCH   1   9
BRANCH   1  12
ATOM     12  S   UNL     1       0.709  -4.770  -1.741  0.00  0.00    -0.096 S 
BRANCH  12  13
ATOM     13  C   UNL     1       0.964  -6.506  -1.585  0.00  0.00    +0.126 A 
ATOM     14  C   UNL     1       1.079  -7.316  -2.717  0.00  0.00    +0.117 A 
ATOM     15  C   UNL     1       1.282  -8.694  -2.541  0.00  0.00    +0.182 A 
ATOM     16  N   UNL     1       1.357  -9.238  -3.771  0.00  0.00    -0.216 NA
ATOM     17  H   UNL     1       0.916  -6.255  -4.528  0.00  0.00    +0.167 HD
ATOM     18  C   UNL     1       1.216  -8.308  -4.674  0.00  0.00    +0.199 A 
ATOM     19  N   UNL     1       1.042  -7.106  -4.080  0.00  0.00    -0.341 N 
ATOM     20  N   UNL     1       1.358  -9.178  -1.296  0.00  0.00    -0.214 NA
ATOM     21  C   UNL     1       1.244  -8.377  -0.260  0.00  0.00    +0.224 A 
ATOM     22  N   UNL     1       1.058  -7.075  -0.385  0.00  0.00    -0.227 NA
ENDBRANCH  12  13
ENDBRANCH   1  12
TORSDOF 3
