REMARK  Name = ZINC64742775
REMARK  8 active torsions:
REMARK  status: ('A' for Active; 'I' for Inactive)
REMARK    1  A    between atoms: C_1  and  C_2
REMARK    2  A    between atoms: C_6  and  C_8
REMARK    3  A    between atoms: C_8  and  S_9
REMARK    4  A    between atoms: S_9  and  C_10
REMARK    5  A    between atoms: C_16  and  C_24
REMARK    6  A    between atoms: N_26  and  C_27
REMARK    7  A    between atoms: C_30  and  C_34
REMARK    8  A    between atoms: C_32  and  C_33
REMARK                            x       y       z     vdW  Elec       q    Type
REMARK                         _______ _______ _______ _____ _____    ______ ____
ROOT
ATOM      1  C   UNL     1       1.620  -4.015   4.517  0.00  0.00    +0.182 C 
ATOM      2  N   UNL     1       0.397  -4.288   4.938  0.00  0.00    -0.154 NA
ATOM      3  C   UNL     1       0.167  -4.897   6.103  0.00  0.00    +0.249 C 
ATOM      4  O   UNL     1      -0.960  -5.168   6.469  0.00  0.00    -0.273 OA
ATOM      5  C   UNL     1       1.380  -5.234   6.945  0.00  0.00    +0.153 C 
ATOM      6  C   UNL     1       1.347  -6.732   7.255  0.00  0.00    +0.103 C 
ATOM      7  C   UNL     1       2.469  -7.052   8.246  0.00  0.00    +0.110 C 
ATOM      8  C   UNL     1       3.772  -6.460   7.792  0.00  0.00    +0.219 C 
ATOM      9  O   UNL     1       4.801  -6.900   8.258  0.00  0.00    -0.275 OA
ATOM     10  N   UNL     1       3.848  -5.465   6.893  0.00  0.00    -0.273 N 
ATOM     11  C   UNL     1       2.728  -4.965   6.303  0.00  0.00    +0.117 C 
ATOM     12  N   UNL     1       2.748  -4.364   5.147  0.00  0.00    -0.212 NA
ATOM     13  H   UNL     1       4.712  -5.085   6.669  0.00  0.00    +0.156 HD
ENDROOT
BRANCH   6  14
ATOM     14  C   UNL     1       1.551  -7.516   5.984  0.00  0.00    +0.222 C 
ATOM     15  O   UNL     1       1.708  -6.935   4.932  0.00  0.00    -0.275 OA
ATOM     16  N   UNL     1       1.559  -8.864   6.018  0.00  0.00    -0.285 N 
ATOM     17  H   UNL     1       1.514  -9.328   6.868  0.00  0.00    +0.155 HD
BRANCH  16  18
ATOM     18  C   UNL     1       1.632  -9.592   4.825  0.00  0.00    +0.036 A 
ATOM     19  C   UNL     1       1.190  -9.028   3.636  0.00  0.00    +0.024 A 
ATOM     20  C   UNL     1       1.264  -9.750   2.461  0.00  0.00    +0.005 A 
ATOM     21  C   UNL     1       1.777 -11.034   2.468  0.00  0.00    -0.050 A 
ATOM     22  C   UNL     1       2.217 -11.599   3.651  0.00  0.00    +0.008 A 
ATOM     23  C   UNL     1       2.152 -10.880   4.828  0.00  0.00    -0.029 A 
ATOM     24  C   UNL     1       2.639 -11.494   6.115  0.00  0.00    +0.045 C 
ATOM     25  C   UNL     1       1.855 -11.819   1.184  0.00  0.00    +0.044 C 
ENDBRANCH  16  18
ENDBRANCH   6  14
BRANCH   1  26
ATOM     26  S   UNL     1       1.778  -3.127   3.003  0.00  0.00    -0.084 S 
BRANCH  26  27
ATOM     27  C   UNL     1       0.065  -2.849   2.477  0.00  0.00    +0.112 C 
BRANCH  27  33
ATOM     28  C   UNL     1      -0.000   1.498  -0.003  0.00  0.00    +0.044 C 
ATOM     29  C   UNL     1       0.024  -0.009  -0.011  0.00  0.00    -0.050 A 
ATOM     30  C   UNL     1       0.039  -0.694  -1.212  0.00  0.00    +0.003 A 
ATOM     31  C   UNL     1       0.061  -2.075  -1.219  0.00  0.00    +0.001 A 
ATOM     32  C   UNL     1       0.070  -2.773  -0.025  0.00  0.00    +0.004 A 
ATOM     33  C   UNL     1       0.056  -2.088   1.175  0.00  0.00    -0.037 A 
ATOM     34  C   UNL     1       0.038  -0.706   1.183  0.00  0.00    +0.007 A 
ENDBRANCH  27  33
ENDBRANCH  26  27
ENDBRANCH   1  26
TORSDOF 5
