REMARK  Name = ZINC09947283
REMARK  10 active torsions:
REMARK  status: ('A' for Active; 'I' for Inactive)
REMARK    1  A    between atoms: C_1  and  C_2
REMARK    2  A    between atoms: C_4  and  C_37
REMARK    3  A    between atoms: C_5  and  N_9
REMARK    4  A    between atoms: C_6  and  C_8
REMARK    5  A    between atoms: C_10  and  C_12
REMARK    6  A    between atoms: C_12  and  C_14
REMARK    7  A    between atoms: C_12  and  S_15
REMARK    8  A    between atoms: S_15  and  C_16
REMARK    9  A    between atoms: N_29  and  C_30
REMARK   10  A    between atoms: C_30  and  C_31
REMARK                            x       y       z     vdW  Elec       q    Type
REMARK                         _______ _______ _______ _____ _____    ______ ____
ROOT
ATOM      1  C   UNL     1       8.684  -1.101  -1.519  0.00  0.00    +0.198 A 
ATOM      2  N   UNL     1       8.800  -2.254  -0.906  0.00  0.00    -0.120 NA
ATOM      3  N   UNL     1      10.053  -2.790  -1.226  0.00  0.00    -0.109 NA
ATOM      4  C   UNL     1      10.670  -1.944  -2.019  0.00  0.00    +0.240 A 
ATOM      5  N   UNL     1       9.837  -0.877  -2.221  0.00  0.00    -0.256 N 
ATOM      6  C   UNL     1      10.232   0.187  -3.029  0.00  0.00    +0.064 A 
ATOM      7  C   UNL     1       9.395   1.272  -3.240  0.00  0.00    +0.027 A 
ATOM      8  C   UNL     1       9.810   2.314  -4.045  0.00  0.00    +0.002 A 
ATOM      9  C   UNL     1      11.059   2.285  -4.647  0.00  0.00    +0.001 A 
ATOM     10  C   UNL     1      11.904   1.214  -4.449  0.00  0.00    +0.015 A 
ATOM     11  C   UNL     1      11.496   0.156  -3.638  0.00  0.00    +0.064 A 
ATOM     12  C   UNL     1      12.369  -1.008  -3.401  0.00  0.00    +0.263 A 
ATOM     13  O   UNL     1      13.471  -1.069  -3.912  0.00  0.00    -0.267 OA
ATOM     14  N   UNL     1      11.925  -2.004  -2.607  0.00  0.00    -0.272 N 
ENDROOT
BRANCH   1  15
ATOM     15  S   UNL     1       7.290  -0.025  -1.446  0.00  0.00    -0.073 S 
BRANCH  15  16
ATOM     16  C   UNL     1       6.121  -0.895  -0.366  0.00  0.00    +0.137 C 
ATOM     17  C   UNL     1       6.707  -0.997   1.044  0.00  0.00    +0.029 C 
BRANCH  16  19
ATOM     18  N   UNL     1       3.691  -0.753   0.075  0.00  0.00    -0.284 N 
ATOM     19  C   UNL     1       4.822  -0.133  -0.315  0.00  0.00    +0.230 C 
ATOM     20  O   UNL     1       4.794   1.040  -0.625  0.00  0.00    -0.274 OA
ATOM     21  H   UNL     1       3.725  -1.670   0.390  0.00  0.00    +0.155 HD
BRANCH  18  26
ATOM     22  C   UNL     1      -1.267   1.996  -0.136  0.00  0.00    +0.044 C 
ATOM     23  C   UNL     1       0.048   1.264  -0.076  0.00  0.00    -0.050 A 
ATOM     24  C   UNL     1       1.101   1.792   0.649  0.00  0.00    +0.008 A 
ATOM     25  C   UNL     1       2.309   1.126   0.701  0.00  0.00    -0.029 A 
ATOM     26  C   UNL     1       2.467  -0.076   0.024  0.00  0.00    +0.039 A 
ATOM     27  C   UNL     1       1.409  -0.605  -0.703  0.00  0.00    -0.029 A 
ATOM     28  C   UNL     1       0.203   0.067  -0.751  0.00  0.00    +0.008 A 
ATOM     29  C   UNL     1       1.576  -1.909  -1.439  0.00  0.00    +0.045 C 
ATOM     30  C   UNL     1       3.455   1.703   1.492  0.00  0.00    +0.045 C 
ENDBRANCH  18  26
ENDBRANCH  16  19
ENDBRANCH  15  16
ENDBRANCH   1  15
BRANCH  14  31
ATOM     31  C   UNL     1      12.780  -3.167  -2.362  0.00  0.00    +0.163 C 
BRANCH  31  32
ATOM     32  C   UNL     1      12.513  -4.217  -3.410  0.00  0.00    -0.028 A 
ATOM     33  C   UNL     1      11.545  -5.180  -3.192  0.00  0.00    +0.005 A 
ATOM     34  C   UNL     1      11.297  -6.140  -4.155  0.00  0.00    +0.000 A 
ATOM     35  C   UNL     1      12.023  -6.143  -5.332  0.00  0.00    +0.000 A 
ATOM     36  C   UNL     1      12.994  -5.183  -5.547  0.00  0.00    +0.000 A 
ATOM     37  C   UNL     1      13.239  -4.220  -4.586  0.00  0.00    +0.005 A 
ENDBRANCH  31  32
ENDBRANCH  14  31
TORSDOF 6
