REMARK  Name = ZINC09522039
REMARK  6 active torsions:
REMARK  status: ('A' for Active; 'I' for Inactive)
REMARK    1  A    between atoms: C_1  and  O_2
REMARK    2  A    between atoms: O_2  and  C_3
REMARK    3  A    between atoms: C_6  and  C_8
REMARK    4  A    between atoms: C_12  and  N_13
REMARK    5  A    between atoms: C_14  and  C_16
REMARK    6  A    between atoms: C_16  and  C_17
REMARK                            x       y       z     vdW  Elec       q    Type
REMARK                         _______ _______ _______ _____ _____    ______ ____
ROOT
ATOM      1  C   UNL     1       9.643  -1.855   0.625  0.00  0.00    +0.069 A 
ATOM      2  C   UNL     1      10.357  -2.274  -0.569  0.00  0.00    -0.023 A 
ATOM      3  C   UNL     1       9.598  -2.400  -1.679  0.00  0.00    -0.004 A 
ATOM      4  S   UNL     1       7.959  -1.982  -1.156  0.00  0.00    -0.077 S 
ATOM      5  C   UNL     1       8.276  -1.642   0.513  0.00  0.00    +0.084 A 
ATOM      6  C   UNL     1      10.056  -2.807  -3.046  0.00  0.00    +0.043 C 
ATOM      7  C   UNL     1      11.587  -2.699  -3.094  0.00  0.00    +0.005 C 
ATOM      8  C   UNL     1      12.169  -3.382  -1.854  0.00  0.00    +0.005 C 
ATOM      9  C   UNL     1      11.855  -2.553  -0.607  0.00  0.00    +0.037 C 
ENDROOT
BRANCH   1  13
ATOM     10  C   UNL     1      11.496  -0.294   3.391  0.00  0.00    +0.407 C 
ATOM     11  O   UNL     1      11.608  -1.226   4.163  0.00  0.00    -0.226 OA
ATOM     12  N   UNL     1      10.856  -0.466   2.218  0.00  0.00    -0.217 N 
ATOM     13  C   UNL     1      10.339  -1.669   1.901  0.00  0.00    +0.255 C 
ATOM     14  O   UNL     1      10.451  -2.602   2.674  0.00  0.00    -0.270 OA
ATOM     15  H   UNL     1      10.766   0.278   1.601  0.00  0.00    +0.161 HD
BRANCH  10  17
ATOM     16  C   UNL     1      12.688   1.019   4.987  0.00  0.00    +0.282 C 
ATOM     17  O   UNL     1      12.012   0.908   3.707  0.00  0.00    -0.453 OA
ENDBRANCH  10  17
ENDBRANCH   1  13
BRANCH   5  18
ATOM     18  N   UNL     1       7.382  -1.247   1.497  0.00  0.00    -0.279 N 
ATOM     19  C   UNL     1       6.078  -1.085   1.196  0.00  0.00    +0.222 C 
ATOM     20  O   UNL     1       5.687  -1.283   0.066  0.00  0.00    -0.275 OA
ATOM     21  H   UNL     1       7.695  -1.089   2.401  0.00  0.00    +0.155 HD
BRANCH  19  22
ATOM     22  C   UNL     1       5.107  -0.655   2.265  0.00  0.00    +0.131 C 
BRANCH  22  23
ATOM     23  C   UNL     1       3.725  -0.548   1.674  0.00  0.00    -0.035 A 
ATOM     24  C   UNL     1       2.885  -1.646   1.677  0.00  0.00    +0.008 A 
ATOM     25  C   UNL     1       1.617  -1.553   1.135  0.00  0.00    +0.050 A 
ATOM     26  C   UNL     1       1.183  -0.356   0.589  0.00  0.00    +0.166 A 
ATOM     27  C   UNL     1       2.028   0.751   0.586  0.00  0.00    +0.166 A 
ATOM     28  C   UNL     1       3.298   0.650   1.131  0.00  0.00    +0.053 A 
ATOM     29  O   UNL     1       1.376   1.797  -0.001  0.00  0.00    -0.453 OA
ATOM     30  C   UNL     1      -0.018   1.436   0.010  0.00  0.00    +0.466 C 
ATOM     31  O   UNL     1       0.002  -0.004   0.002  0.00  0.00    -0.453 OA
ENDBRANCH  22  23
ENDBRANCH  19  22
ENDBRANCH   5  18
TORSDOF 5
