REMARK  Name = ZINC06443134
REMARK  11 active torsions:
REMARK  status: ('A' for Active; 'I' for Inactive)
REMARK    1  A    between atoms: C_1  and  C_2
REMARK    2  A    between atoms: C_6  and  N_9
REMARK    3  A    between atoms: C_7  and  C_8
REMARK    4  A    between atoms: C_14  and  C_16
REMARK    5  A    between atoms: C_14  and  C_29
REMARK    6  A    between atoms: C_14  and  N_69
REMARK    7  A    between atoms: C_22  and  C_28
REMARK    8  A    between atoms: N_33  and  C_34
REMARK    9  A    between atoms: C_34  and  C_35
REMARK   10  A    between atoms: C_35  and  O_36
REMARK   11  A    between atoms: O_36  and  C_37
REMARK                            x       y       z     vdW  Elec       q    Type
REMARK                         _______ _______ _______ _____ _____    ______ ____
ROOT
ATOM      1  C   UNL     1       0.088  -2.864   4.922  0.00  0.00    +0.039 C 
ENDROOT
BRANCH   1   2
ATOM      2  C   UNL     1       0.065  -2.141   3.600  0.00  0.00    +0.011 A 
ATOM      3  C   UNL     1       0.064  -2.848   2.443  0.00  0.00    +0.017 A 
ATOM      4  C   UNL     1       0.042  -2.116   1.176  0.00  0.00    -0.001 A 
ATOM      5  C   UNL     1       0.039  -2.790  -0.050  0.00  0.00    +0.010 A 
ATOM      6  C   UNL     1       0.019  -2.077  -1.215  0.00  0.00    +0.001 A 
ATOM      7  C   UNL     1      -0.006  -0.689  -1.194  0.00  0.00    +0.005 A 
ATOM      8  C   UNL     1       0.002  -0.004   0.002  0.00  0.00    -0.026 A 
ATOM      9  C   UNL     1       0.023  -0.709   1.201  0.00  0.00    +0.052 A 
ATOM     10  N   UNL     1       0.026  -0.049   2.412  0.00  0.00    -0.322 N 
ATOM     11  H   UNL     1       0.014   0.921   2.428  0.00  0.00    +0.169 HD
ATOM     12  C   UNL     1       0.046  -0.730   3.571  0.00  0.00    +0.251 A 
ATOM     13  O   UNL     1       0.047  -0.114   4.622  0.00  0.00    -0.268 OA
ATOM     14  C   UNL     1      -0.018   1.503   0.010  0.00  0.00    +0.046 C 
ENDBRANCH   1   2
BRANCH   1  20
ATOM     15  N   UNL     1       3.688  -2.656   7.122  0.00  0.00    -0.333 N 
ATOM     16  C   UNL     1       2.424  -2.492   7.853  0.00  0.00    +0.086 C 
ATOM     17  C   UNL     1       1.278  -3.072   7.021  0.00  0.00    -0.058 C 
ATOM     18  C   UNL     1       2.488  -2.551   4.991  0.00  0.00    -0.058 C 
ATOM     19  C   UNL     1       3.634  -1.971   5.823  0.00  0.00    +0.086 C 
ATOM     20  N   UNL     1       1.221  -2.360   5.727  0.00  0.00    +0.391 N 
ATOM     21  H   UNL     1       1.085  -1.358   5.904  0.00  0.00    -0.080 HD
BRANCH  15  27
ATOM     22  C   UNL     1       7.975  -3.568   9.345  0.00  0.00    +0.044 C 
ATOM     23  C   UNL     1       6.861  -2.623   8.976  0.00  0.00    -0.046 A 
ATOM     24  C   UNL     1       6.908  -1.304   9.390  0.00  0.00    +0.004 A 
ATOM     25  C   UNL     1       5.888  -0.433   9.053  0.00  0.00    +0.002 A 
ATOM     26  C   UNL     1       4.819  -0.879   8.300  0.00  0.00    +0.023 A 
ATOM     27  C   UNL     1       4.768  -2.202   7.883  0.00  0.00    +0.033 A 
ATOM     28  C   UNL     1       5.792  -3.076   8.228  0.00  0.00    -0.027 A 
ATOM     29  C   UNL     1       5.738  -4.514   7.783  0.00  0.00    +0.046 C 
ENDBRANCH  15  27
ENDBRANCH   1  20
BRANCH   1  30
ATOM     30  C   UNL     1      -1.197  -2.596   5.663  0.00  0.00    +0.143 A 
ATOM     31  N   UNL     1      -1.525  -1.489   6.285  0.00  0.00    -0.115 NA
ATOM     32  N   UNL     1      -2.699  -1.650   6.791  0.00  0.00    -0.023 NA
ATOM     33  N   UNL     1      -3.125  -2.833   6.515  0.00  0.00    -0.044 NA
ATOM     34  N   UNL     1      -2.227  -3.447   5.821  0.00  0.00    -0.228 N 
BRANCH  34  35
ATOM     35  C   UNL     1      -2.313  -4.814   5.301  0.00  0.00    +0.175 C 
BRANCH  35  36
ATOM     36  C   UNL     1      -1.745  -5.789   6.335  0.00  0.00    +0.183 C 
BRANCH  36  37
ATOM     37  O   UNL     1      -1.829  -7.123   5.828  0.00  0.00    -0.381 OA
ATOM     38  C   UNL     1      -1.322  -8.117   6.721  0.00  0.00    +0.194 C 
ENDBRANCH  36  37
ENDBRANCH  35  36
ENDBRANCH  34  35
ENDBRANCH   1  30
TORSDOF 7
