REMARK  Name = ZINC32123922
REMARK  9 active torsions:
REMARK  status: ('A' for Active; 'I' for Inactive)
REMARK    1  A    between atoms: C_1  and  O_2
REMARK    2  A    between atoms: O_2  and  C_3
REMARK    3  A    between atoms: C_6  and  C_9
REMARK    4  A    between atoms: N_22  and  C_23
REMARK    5  A    between atoms: C_23  and  C_25
REMARK    6  A    between atoms: C_23  and  C_32
REMARK    7  A    between atoms: C_25  and  C_26
REMARK    8  A    between atoms: C_32  and  O_34
REMARK    9  A    between atoms: O_34  and  C_35
REMARK                            x       y       z     vdW  Elec       q    Type
REMARK                         _______ _______ _______ _____ _____    ______ ____
ROOT
ATOM      1  C   UNL     1       2.503  -2.503  -4.380  0.00  0.00    +0.156 C 
ATOM      2  C   UNL     1       3.927  -2.855  -4.029  0.00  0.00    +0.064 A 
ATOM      3  C   UNL     1       4.368  -4.115  -3.822  0.00  0.00    +0.066 A 
ATOM      4  N   UNL     1       5.671  -4.049  -3.529  0.00  0.00    -0.240 NA
ATOM      5  C   UNL     1       6.054  -2.800  -3.550  0.00  0.00    +0.197 A 
ATOM      6  N   UNL     1       4.990  -2.023  -3.861  0.00  0.00    -0.346 N 
ATOM      7  H   UNL     1       4.986  -1.057  -3.947  0.00  0.00    +0.167 HD
ATOM      8  C   UNL     1       3.504  -5.347  -3.922  0.00  0.00    +0.076 C 
ATOM      9  C   UNL     1       2.031  -4.927  -3.838  0.00  0.00    +0.116 C 
ATOM     10  N   UNL     1       1.809  -3.761  -4.709  0.00  0.00    -0.273 N 
ATOM     11  C   UNL     1       0.994  -3.842  -5.780  0.00  0.00    +0.304 C 
ATOM     12  O   UNL     1       0.896  -2.900  -6.542  0.00  0.00    -0.253 OA
ATOM     13  N   UNL     1       0.287  -4.967  -6.005  0.00  0.00    -0.286 N 
ATOM     14  H   UNL     1       0.306  -5.690  -5.359  0.00  0.00    +0.151 HD
ENDROOT
BRANCH   1  18
ATOM     15  C   UNL     1       0.606  -0.623  -1.045  0.00  0.00    +0.120 A 
ATOM     16  C   UNL     1       1.209  -1.863  -0.893  0.00  0.00    +0.046 A 
ATOM     17  C   UNL     1       1.822  -2.469  -1.972  0.00  0.00    +0.009 A 
ATOM     18  C   UNL     1       1.834  -1.840  -3.204  0.00  0.00    -0.021 A 
ATOM     19  C   UNL     1       1.234  -0.604  -3.358  0.00  0.00    +0.009 A 
ATOM     20  C   UNL     1       0.615   0.003  -2.283  0.00  0.00    +0.046 A 
BRANCH  15  22
ATOM     21  C   UNL     1       0.032  -0.727   1.260  0.00  0.00    +0.277 C 
ATOM     22  O   UNL     1       0.003  -0.025   0.016  0.00  0.00    -0.495 OA
ENDBRANCH  15  22
ENDBRANCH   1  18
BRANCH  13  23
ATOM     23  C   UNL     1      -0.512  -5.097  -7.227  0.00  0.00    +0.187 C 
BRANCH  23  24
ATOM     24  C   UNL     1      -1.863  -4.463  -7.014  0.00  0.00    +0.328 C 
ATOM     25  O   UNL     1      -2.131  -3.955  -5.951  0.00  0.00    -0.249 OA
BRANCH  24  26
ATOM     26  O   UNL     1      -2.768  -4.464  -8.005  0.00  0.00    -0.467 OA
ATOM     27  C   UNL     1      -4.027  -3.846  -7.734  0.00  0.00    +0.280 C 
ENDBRANCH  24  26
ENDBRANCH  23  24
BRANCH  23  28
ATOM     28  C   UNL     1      -0.691  -6.579  -7.563  0.00  0.00    +0.069 C 
BRANCH  28  29
ATOM     29  C   UNL     1       0.648  -7.185  -7.895  0.00  0.00    -0.045 A 
ATOM     30  C   UNL     1       1.105  -7.176  -9.200  0.00  0.00    +0.004 A 
ATOM     31  C   UNL     1       2.334  -7.732  -9.505  0.00  0.00    +0.000 A 
ATOM     32  C   UNL     1       3.106  -8.295  -8.506  0.00  0.00    +0.000 A 
ATOM     33  C   UNL     1       2.649  -8.302  -7.201  0.00  0.00    +0.000 A 
ATOM     34  C   UNL     1       1.422  -7.743  -6.895  0.00  0.00    +0.004 A 
ENDBRANCH  28  29
ENDBRANCH  23  28
ENDBRANCH  13  23
TORSDOF 7
