REMARK  Name = ZINC39979750
REMARK  8 active torsions:
REMARK  status: ('A' for Active; 'I' for Inactive)
REMARK    1  A    between atoms: C_1  and  O_2
REMARK    2  A    between atoms: O_2  and  C_3
REMARK    3  A    between atoms: C_6  and  S_9
REMARK    4  A    between atoms: S_9  and  N_12
REMARK    5  A    between atoms: N_12  and  C_13
REMARK    6  A    between atoms: C_15  and  C_18
REMARK    7  A    between atoms: C_18  and  C_19
REMARK    8  A    between atoms: N_21  and  C_22
REMARK                            x       y       z     vdW  Elec       q    Type
REMARK                         _______ _______ _______ _____ _____    ______ ____
ROOT
ATOM      1  C   UNL     1       1.424  -3.665   6.631  0.00  0.00    +0.202 A 
ATOM      2  N   UNL     1       0.781  -3.929   7.749  0.00  0.00    -0.227 NA
ATOM      3  C   UNL     1       1.408  -4.449   8.789  0.00  0.00    +0.059 A 
ATOM      4  C   UNL     1       2.732  -4.696   8.650  0.00  0.00    +0.072 A 
ATOM      5  S   UNL     1       2.999  -4.151   6.971  0.00  0.00    -0.057 S 
ENDROOT
BRANCH   1   6
ATOM      6  N   UNL     1       0.924  -3.124   5.457  0.00  0.00    -0.070 NA
BRANCH   6   7
ATOM      7  S   UNL     1       1.928  -2.885   4.162  0.00  0.00    +0.093 S 
ATOM      8  O   UNL     1       2.334  -4.173   3.719  0.00  0.00    -0.148 OA
ATOM      9  O   UNL     1       2.859  -1.884   4.549  0.00  0.00    -0.148 OA
BRANCH   7  13
ATOM     10  C   UNL     1      -0.577  -1.103   0.836  0.00  0.00    +0.120 A 
ATOM     11  C   UNL     1       0.061  -0.274   1.746  0.00  0.00    +0.047 A 
ATOM     12  C   UNL     1       0.824  -0.819   2.760  0.00  0.00    +0.032 A 
ATOM     13  C   UNL     1       0.953  -2.192   2.868  0.00  0.00    +0.111 A 
ATOM     14  C   UNL     1       0.319  -3.021   1.961  0.00  0.00    +0.032 A 
ATOM     15  C   UNL     1      -0.451  -2.480   0.949  0.00  0.00    +0.047 A 
BRANCH  10  17
ATOM     16  C   UNL     1      -1.414   0.856  -0.218  0.00  0.00    +0.277 C 
ATOM     17  O   UNL     1      -1.329  -0.569  -0.162  0.00  0.00    -0.495 OA
ENDBRANCH  10  17
ENDBRANCH   7  13
ENDBRANCH   6   7
ENDBRANCH   1   6
BRANCH   3  18
ATOM     18  C   UNL     1       0.681  -4.755  10.073  0.00  0.00    +0.152 C 
BRANCH  18  19
ATOM     19  C   UNL     1      -0.014  -3.511  10.565  0.00  0.00    +0.223 C 
ATOM     20  O   UNL     1       0.071  -2.479   9.934  0.00  0.00    -0.275 OA
ATOM     21  N   UNL     1      -0.732  -3.546  11.705  0.00  0.00    -0.285 N 
ATOM     22  H   UNL     1      -0.862  -4.387  12.171  0.00  0.00    +0.155 HD
BRANCH  21  23
ATOM     23  C   UNL     1      -1.285  -2.380  12.213  0.00  0.00    +0.034 C 
ATOM     24  C   UNL     1      -2.642  -2.300  12.437  0.00  0.00    +0.029 C 
ATOM     25  C   UNL     1      -3.096  -1.058  12.896  0.00  0.00    -0.016 C 
ATOM     26  C   UNL     1      -4.121  -0.695  13.693  0.00  0.00    +0.025 C 
ATOM     27  C   UNL     1      -3.965   0.653  14.070  0.00  0.00    +0.106 C 
ATOM     28  N   UNL     1      -2.944   1.214  13.482  0.00  0.00    -0.279 NA
ATOM     29  C   UNL     1      -2.381   0.240  12.557  0.00  0.00    +0.158 C 
ATOM     30  C   UNL     1      -0.909   0.001  12.704  0.00  0.00    +0.006 C 
ATOM     31  C   UNL     1      -0.426  -1.232  12.518  0.00  0.00    +0.021 C 
ENDBRANCH  21  23
ENDBRANCH  18  19
ENDBRANCH   3  18
TORSDOF 7
