REMARK  Name = ZINC52902247
REMARK  3 active torsions:
REMARK  status: ('A' for Active; 'I' for Inactive)
REMARK    1  A    between atoms: C_3  and  C_6
REMARK    2  A    between atoms: C_7  and  C_12
REMARK    3  A    between atoms: C_10  and  N_11
REMARK                            x       y       z     vdW  Elec       q    Type
REMARK                         _______ _______ _______ _____ _____    ______ ____
ROOT
ATOM      1  C   UNL     1       4.836   1.029   0.210  0.00  0.00    +0.077 A 
ATOM      2  C   UNL     1       4.822   1.656  -1.114  0.00  0.00    +0.123 A 
ATOM      3  N   UNL     1       4.911   2.952  -0.929  0.00  0.00    -0.075 NA
ATOM      4  O   UNL     1       4.984   3.212   0.458  0.00  0.00    -0.339 OA
ATOM      5  C   UNL     1       4.932   2.053   1.133  0.00  0.00    +0.224 A 
ENDROOT
BRANCH   2   6
ATOM      6  C   UNL     1       4.725   0.957  -2.418  0.00  0.00    +0.005 A 
ATOM      7  C   UNL     1       3.850  -0.117  -2.576  0.00  0.00    +0.014 A 
ATOM      8  C   UNL     1       3.758  -0.763  -3.788  0.00  0.00    +0.046 A 
ATOM      9  C   UNL     1       4.537  -0.351  -4.869  0.00  0.00    +0.124 A 
ATOM     10  C   UNL     1       5.412   0.717  -4.702  0.00  0.00    -0.002 A 
ATOM     11  C   UNL     1       5.504   1.374  -3.498  0.00  0.00    +0.017 A 
ATOM     12  C   UNL     1       6.130   0.913  -6.024  0.00  0.00    +0.080 C 
ATOM     13  C   UNL     1       5.817  -0.412  -6.758  0.00  0.00    +0.234 C 
ATOM     14  O   UNL     1       4.590  -0.837  -6.139  0.00  0.00    -0.491 OA
ENDBRANCH   2   6
BRANCH   1  17
ATOM     15  C   UNL     1       3.912  -2.479   1.298  0.00  0.00    +0.008 A 
ATOM     16  C   UNL     1       3.764  -1.116   1.138  0.00  0.00    +0.016 A 
ATOM     17  C   UNL     1       4.756  -0.418   0.503  0.00  0.00    +0.026 A 
ATOM     18  S   UNL     1       5.928  -1.709   0.119  0.00  0.00    -0.096 S 
ATOM     19  C   UNL     1       5.030  -3.082   0.823  0.00  0.00    +0.046 A 
ENDBRANCH   1  17
BRANCH   5  20
ATOM     20  N   UNL     1       4.972   1.910   2.505  0.00  0.00    -0.327 N 
ATOM     21  H   UNL     1       4.931   1.026   2.901  0.00  0.00    +0.145 HD
ATOM     22  H   UNL     1       5.041   2.693   3.072  0.00  0.00    +0.145 HD
ENDBRANCH   5  20
TORSDOF 3
