REMARK  Name = ZINC67205699
REMARK  3 active torsions:
REMARK  status: ('A' for Active; 'I' for Inactive)
REMARK    1  A    between atoms: C_1  and  C_2
REMARK    2  A    between atoms: C_8  and  C_10
REMARK    3  A    between atoms: C_14  and  N_16
REMARK                            x       y       z     vdW  Elec       q    Type
REMARK                         _______ _______ _______ _____ _____    ______ ____
ROOT
ATOM      1  C   UNL     1       0.371  -5.154   3.152  0.00  0.00    +0.039 A 
ATOM      2  C   UNL     1       0.079  -4.658   4.425  0.00  0.00    +0.013 A 
ATOM      3  C   UNL     1      -0.183  -5.530   5.462  0.00  0.00    +0.003 A 
ATOM      4  C   UNL     1      -0.157  -6.896   5.245  0.00  0.00    +0.025 A 
ATOM      5  C   UNL     1       0.132  -7.399   3.983  0.00  0.00    +0.057 A 
ATOM      6  C   UNL     1       0.391  -6.531   2.933  0.00  0.00    +0.038 A 
ENDROOT
BRANCH   5   7
ATOM      7  N   UNL     1       0.156  -8.782   3.769  0.00  0.00    -0.188 N 
ATOM      8  C   UNL     1      -0.503  -9.309   2.717  0.00  0.00    +0.240 C 
ATOM      9  O   UNL     1      -1.157  -8.601   1.981  0.00  0.00    -0.273 OA
ATOM     10  C   UNL     1      -0.412 -10.804   2.473  0.00  0.00    +0.093 C 
ATOM     11  C   UNL     1      -1.385 -11.485   3.442  0.00  0.00    +0.040 C 
ATOM     12  C   UNL     1      -1.080 -12.943   3.579  0.00  0.00    -0.030 C 
ATOM     13  C   UNL     1       0.043 -13.489   3.241  0.00  0.00    -0.030 C 
ATOM     14  C   UNL     1       1.189 -12.730   2.642  0.00  0.00    +0.040 C 
ATOM     15  C   UNL     1       1.023 -11.229   2.811  0.00  0.00    +0.092 C 
ATOM     16  C   UNL     1       1.343 -10.799   4.215  0.00  0.00    +0.234 C 
ATOM     17  O   UNL     1       2.013 -11.502   4.942  0.00  0.00    -0.274 OA
ATOM     18  N   UNL     1       0.871  -9.609   4.648  0.00  0.00    -0.227 N 
ATOM     19  H   UNL     1       1.024  -9.330   5.564  0.00  0.00    +0.173 HD
ENDBRANCH   5   7
BRANCH   1  27
ATOM     20  C   UNL     1       1.221   1.502   0.158  0.00  0.00    +0.066 C 
ATOM     21  C   UNL     1       1.190  -0.005   0.142  0.00  0.00    +0.047 A 
ATOM     22  C   UNL     1       1.438  -0.706  -0.991  0.00  0.00    +0.071 A 
ATOM     23  S   UNL     1       1.260  -2.379  -0.393  0.00  0.00    -0.060 S 
ATOM     24  C   UNL     1       0.895  -2.015   1.209  0.00  0.00    +0.165 A 
ATOM     25  N   UNL     1       0.925  -0.700   1.232  0.00  0.00    -0.230 NA
ATOM     26  N   UNL     1       0.631  -2.891   2.254  0.00  0.00    -0.261 N 
ATOM     27  C   UNL     1       0.651  -4.222   2.040  0.00  0.00    +0.250 C 
ATOM     28  O   UNL     1       0.900  -4.655   0.932  0.00  0.00    -0.270 OA
ATOM     29  H   UNL     1       0.433  -2.545   3.139  0.00  0.00    +0.157 HD
ENDBRANCH   1  27
TORSDOF 2
