REMARK  Name = ZINC62238101
REMARK  3 active torsions:
REMARK  status: ('A' for Active; 'I' for Inactive)
REMARK    1  A    between atoms: C_6  and  C_7
REMARK    2  A    between atoms: C_8  and  C_13
REMARK    3  A    between atoms: C_11  and  N_12
REMARK                            x       y       z     vdW  Elec       q    Type
REMARK                         _______ _______ _______ _____ _____    ______ ____
ROOT
ATOM      1  C   UNL     1      -1.270  -0.765   0.010  0.00  0.00    +0.067 A 
ATOM      2  C   UNL     1      -1.732  -1.608   1.044  0.00  0.00    +0.098 A 
ATOM      3  N   UNL     1      -2.885  -2.097   0.685  0.00  0.00    -0.080 NA
ATOM      4  O   UNL     1      -3.215  -1.591  -0.594  0.00  0.00    -0.339 OA
ATOM      5  C   UNL     1      -2.223  -0.775  -0.990  0.00  0.00    +0.223 A 
ENDROOT
BRANCH   1  11
ATOM      6  C   UNL     1      -0.017   1.390   0.010  0.00  0.00    +0.010 A 
ATOM      7  C   UNL     1       1.170   2.094   0.002  0.00  0.00    +0.016 A 
ATOM      8  C   UNL     1       2.378   1.418  -0.013  0.00  0.00    +0.018 A 
ATOM      9  C   UNL     1       2.403   0.034  -0.021  0.00  0.00    +0.016 A 
ATOM     10  C   UNL     1       1.222  -0.680  -0.014  0.00  0.00    +0.010 A 
ATOM     11  C   UNL     1       0.002  -0.004   0.002  0.00  0.00    -0.011 A 
ATOM     12 BR   UNL     1       4.001   2.389  -0.023  0.00  0.00    -0.050 Br
ENDBRANCH   1  11
BRANCH   2  13
ATOM     13  C   UNL     1      -1.016  -1.893   2.339  0.00  0.00    +0.067 C 
ATOM     14  C   UNL     1      -0.738  -3.395   2.450  0.00  0.00    +0.014 C 
ATOM     15  C   UNL     1      -0.080  -3.683   3.803  0.00  0.00    +0.029 C 
ATOM     16  C   UNL     1      -0.992  -3.176   4.923  0.00  0.00    +0.160 C 
ATOM     17  O   UNL     1      -1.235  -1.780   4.743  0.00  0.00    -0.379 OA
ATOM     18  C   UNL     1      -1.891  -1.454   3.515  0.00  0.00    +0.169 C 
ENDBRANCH   2  13
BRANCH   5  19
ATOM     19  N   UNL     1      -2.165  -0.079  -2.179  0.00  0.00    -0.327 N 
ATOM     20  H   UNL     1      -1.401   0.485  -2.374  0.00  0.00    +0.145 HD
ATOM     21  H   UNL     1      -2.889  -0.153  -2.820  0.00  0.00    +0.145 HD
ENDBRANCH   5  19
TORSDOF 3
