REMARK  Name = ZINC19458523
REMARK  7 active torsions:
REMARK  status: ('A' for Active; 'I' for Inactive)
REMARK    1  A    between atoms: C_1  and  C_2
REMARK    2  A    between atoms: C_2  and  C_4
REMARK    3  A    between atoms: C_2  and  N_14
REMARK    4  A    between atoms: C_15  and  C_17
REMARK    5  A    between atoms: C_17  and  C_18
REMARK    6  A    between atoms: C_18  and  C_19
REMARK    7  A    between atoms: C_19  and  C_26
REMARK                            x       y       z     vdW  Elec       q    Type
REMARK                         _______ _______ _______ _____ _____    ______ ____
ROOT
ATOM      1  N   UNL     1      -1.494   5.405   2.710  0.00  0.00    -0.306 N 
ATOM      2  C   UNL     1      -1.373   4.078   2.509  0.00  0.00    +0.214 C 
ATOM      3  O   UNL     1      -1.802   3.298   3.332  0.00  0.00    -0.276 OA
ATOM      4  H   UNL     1      -1.105   6.113   1.963  0.00  0.00    +0.149 HD
ENDROOT
BRANCH   1   6
ATOM      5  C   UNL     1      -1.121   5.974   5.059  0.00  0.00    +0.036 C 
ATOM      6  C   UNL     1      -2.145   5.905   3.924  0.00  0.00    +0.136 C 
BRANCH   6   7
ATOM      7  C   UNL     1      -2.702   7.281   3.665  0.00  0.00    +0.126 A 
ATOM      8  C   UNL     1      -3.885   7.726   4.110  0.00  0.00    +0.055 A 
ATOM      9  C   UNL     1      -4.011   9.106   3.627  0.00  0.00    +0.022 A 
ATOM     10  C   UNL     1      -4.986  10.096   3.748  0.00  0.00    +0.031 A 
ATOM     11  C   UNL     1      -4.790  11.321   3.148  0.00  0.00    +0.042 A 
ATOM     12  C   UNL     1      -3.630  11.569   2.427  0.00  0.00    +0.023 A 
ATOM     13  C   UNL     1      -2.659  10.599   2.300  0.00  0.00    +0.048 A 
ATOM     14  C   UNL     1      -2.837   9.357   2.897  0.00  0.00    +0.135 A 
ATOM     15  O   UNL     1      -2.087   8.238   2.949  0.00  0.00    -0.458 OA
ATOM     16 CL   UNL     1      -5.999  12.558   3.294  0.00  0.00    -0.084 Cl
ENDBRANCH   6   7
ENDBRANCH   1   6
BRANCH   2  17
ATOM     17  C   UNL     1      -0.704   3.564   1.260  0.00  0.00    +0.098 C 
BRANCH  17  18
ATOM     18  C   UNL     1      -0.698   2.034   1.278  0.00  0.00    +0.044 C 
BRANCH  18  19
ATOM     19  C   UNL     1      -0.018   1.512   0.010  0.00  0.00    +0.110 C 
ATOM     20  C   UNL     1       0.002  -0.004   0.002  0.00  0.00    +0.244 C 
ATOM     21  O   UNL     1      -0.954  -0.749   0.006  0.00  0.00    -0.273 OA
ATOM     22  N   UNL     1       1.304  -0.351  -0.012  0.00  0.00    -0.238 N 
ATOM     23  C   UNL     1       2.101   0.724  -0.014  0.00  0.00    +0.307 C 
ATOM     24  O   UNL     1       3.315   0.665  -0.026  0.00  0.00    -0.252 OA
ATOM     25  N   UNL     1       1.409   1.877  -0.001  0.00  0.00    -0.285 N 
ATOM     26  C   UNL     1      -0.722   2.047  -1.238  0.00  0.00    +0.041 C 
ATOM     27  H   UNL     1       1.591  -1.413  -0.021  0.00  0.00    +0.159 HD
ATOM     28  H   UNL     1       1.705   2.937   0.002  0.00  0.00    +0.151 HD
ENDBRANCH  18  19
ENDBRANCH  17  18
ENDBRANCH   2  17
TORSDOF 5
