REMARK  Name = ZINC12548951
REMARK  7 active torsions:
REMARK  status: ('A' for Active; 'I' for Inactive)
REMARK    1  A    between atoms: C_1  and  C_2
REMARK    2  A    between atoms: C_4  and  C_25
REMARK    3  A    between atoms: C_6  and  N_8
REMARK    4  A    between atoms: C_11  and  C_14
REMARK    5  A    between atoms: C_15  and  N_24
REMARK    6  A    between atoms: N_16  and  C_23
REMARK    7  A    between atoms: N_19  and  C_22
REMARK                            x       y       z     vdW  Elec       q    Type
REMARK                         _______ _______ _______ _____ _____    ______ ____
ROOT
ATOM      1  N   UNL     1       0.697   5.107  -0.011  0.00  0.00    -0.294 N 
ATOM      2  C   UNL     1       0.318   3.773   0.010  0.00  0.00    +0.163 A 
ATOM      3  N   UNL     1      -0.895   3.260   0.048  0.00  0.00    -0.224 NA
ATOM      4  C   UNL     1      -1.085   1.947   0.059  0.00  0.00    +0.089 A 
ATOM      5  C   UNL     1       0.016   1.139   0.042  0.00  0.00    +0.077 A 
ATOM      6  S   UNL     1       1.323   2.357  -0.004  0.00  0.00    -0.060 S 
ATOM      7  H   UNL     1       0.024   5.801  -0.090  0.00  0.00    +0.154 HD
ENDROOT
BRANCH   4   8
ATOM      8  C   UNL     1      -2.453   1.373   0.093  0.00  0.00    +0.103 A 
ATOM      9  C   UNL     1      -3.327   1.563  -0.969  0.00  0.00    +0.114 A 
ATOM     10  N   UNL     1      -4.585   1.018  -0.905  0.00  0.00    -0.284 N 
ATOM     11  C   UNL     1      -4.968   0.309   0.172  0.00  0.00    +0.333 A 
ATOM     12  O   UNL     1      -6.088  -0.164   0.206  0.00  0.00    -0.246 OA
ATOM     13  N   UNL     1      -4.139   0.112   1.212  0.00  0.00    -0.263 N 
ATOM     14  C   UNL     1      -2.890   0.617   1.205  0.00  0.00    +0.267 A 
ATOM     15  O   UNL     1      -2.145   0.428   2.151  0.00  0.00    -0.267 OA
ATOM     16  C   UNL     1      -4.597  -0.668   2.364  0.00  0.00    +0.157 C 
ATOM     17  C   UNL     1      -5.518   1.210  -2.018  0.00  0.00    +0.155 C 
BRANCH   9  18
ATOM     18  N   UNL     1      -2.938   2.286  -2.067  0.00  0.00    -0.344 N 
ATOM     19  H   UNL     1      -2.026   2.606  -2.139  0.00  0.00    +0.144 HD
ATOM     20  H   UNL     1      -3.576   2.476  -2.773  0.00  0.00    +0.144 HD
ENDBRANCH   9  18
ENDBRANCH   4   8
BRANCH   1  26
ATOM     21  C   UNL     1       4.396   8.093  -1.259  0.00  0.00    +0.044 C 
ATOM     22  C   UNL     1       3.869   6.894  -0.513  0.00  0.00    -0.048 A 
ATOM     23  C   UNL     1       4.723   6.133   0.264  0.00  0.00    +0.006 A 
ATOM     24  C   UNL     1       4.244   5.033   0.950  0.00  0.00    -0.048 A 
ATOM     25  C   UNL     1       2.909   4.689   0.861  0.00  0.00    +0.026 A 
ATOM     26  C   UNL     1       2.048   5.451   0.081  0.00  0.00    +0.033 A 
ATOM     27  C   UNL     1       2.534   6.553  -0.611  0.00  0.00    +0.026 A 
ATOM     28  C   UNL     1       5.178   4.207   1.796  0.00  0.00    +0.044 C 
ENDBRANCH   1  26
TORSDOF 3
