REMARK  Name = ZINC04885357
REMARK  7 active torsions:
REMARK  status: ('A' for Active; 'I' for Inactive)
REMARK    1  A    between atoms: C_1  and  C_2
REMARK    2  A    between atoms: C_2  and  C_3
REMARK    3  A    between atoms: C_3  and  C_28
REMARK    4  A    between atoms: C_8  and  C_11
REMARK    5  A    between atoms: N_18  and  C_21
REMARK    6  A    between atoms: C_28  and  O_30
REMARK    7  A    between atoms: O_30  and  C_31
REMARK                            x       y       z     vdW  Elec       q    Type
REMARK                         _______ _______ _______ _____ _____    ______ ____
ROOT
ATOM      1  C   UNL     1       0.869  -0.657  -0.935  0.00  0.00    +0.044 C 
ATOM      2  C   UNL     1       0.544  -2.152  -1.133  0.00  0.00    +0.086 C 
ATOM      3  C   UNL     1      -0.554  -2.179  -2.229  0.00  0.00    +0.080 C 
ATOM      4  C   UNL     1      -0.802  -0.697  -2.579  0.00  0.00    +0.010 C 
ATOM      5  N   UNL     1       0.472  -0.012  -2.213  0.00  0.00    +0.397 N 
ATOM      6  C   UNL     1       0.126  -2.872  -3.389  0.00  0.00    +0.229 C 
ATOM      7  O   UNL     1      -0.384  -3.103  -4.464  0.00  0.00    -0.275 OA
ATOM      8  N   UNL     1       1.379  -3.190  -3.043  0.00  0.00    -0.210 N 
ATOM      9  C   UNL     1       1.726  -2.836  -1.784  0.00  0.00    +0.229 C 
ATOM     10  O   UNL     1       2.801  -3.028  -1.258  0.00  0.00    -0.275 OA
ATOM     11  H   UNL     1       0.310   0.974  -2.075  0.00  0.00    -0.083 HD
ATOM     12  H   UNL     1       1.179  -0.161  -2.917  0.00  0.00    -0.083 HD
ENDROOT
BRANCH   8  13
ATOM     13  C   UNL     1       2.263  -3.845  -3.913  0.00  0.00    +0.044 A 
ATOM     14  C   UNL     1       3.381  -3.180  -4.398  0.00  0.00    +0.027 A 
ATOM     15  C   UNL     1       4.250  -3.826  -5.254  0.00  0.00    +0.040 A 
ATOM     16  C   UNL     1       4.008  -5.137  -5.630  0.00  0.00    +0.124 A 
ATOM     17  C   UNL     1       2.893  -5.802  -5.147  0.00  0.00    +0.040 A 
ATOM     18  C   UNL     1       2.024  -5.160  -4.286  0.00  0.00    +0.027 A 
ATOM     19  F   UNL     1       4.859  -5.767  -6.468  0.00  0.00    -0.205 F 
ENDBRANCH   8  13
BRANCH   4  20
ATOM     20  C   UNL     1      -1.061  -0.542  -4.055  0.00  0.00    +0.092 A 
ATOM     21  C   UNL     1      -2.268  -0.404  -4.632  0.00  0.00    +0.043 A 
ATOM     22  C   UNL     1      -2.047  -0.290  -6.024  0.00  0.00    +0.041 A 
ATOM     23  C   UNL     1      -0.717  -0.365  -6.214  0.00  0.00    +0.195 A 
ATOM     24  O   UNL     1      -0.125  -0.512  -5.018  0.00  0.00    -0.469 OA
ENDBRANCH   4  20
BRANCH   1  26
ATOM     25  C   UNL     1       0.233   1.435   0.275  0.00  0.00    +0.003 C 
ATOM     26  C   UNL     1       0.054  -0.084   0.226  0.00  0.00    -0.004 C 
ENDBRANCH   1  26
BRANCH   1  27
ATOM     27  C   UNL     1       2.343  -0.466  -0.686  0.00  0.00    +0.297 C 
ATOM     28  O   UNL     1       2.760  -0.396   0.446  0.00  0.00    -0.252 OA
BRANCH  27  29
ATOM     29  O   UNL     1       3.192  -0.373  -1.721  0.00  0.00    -0.469 OA
ATOM     30  C   UNL     1       4.575  -0.192  -1.411  0.00  0.00    +0.280 C 
ENDBRANCH  27  29
ENDBRANCH   1  27
TORSDOF 5
