REMARK  Name = ZINC38689007
REMARK  9 active torsions:
REMARK  status: ('A' for Active; 'I' for Inactive)
REMARK    1  A    between atoms: C_1  and  C_2
REMARK    2  A    between atoms: C_8  and  C_26
REMARK    3  A    between atoms: C_10  and  N_12
REMARK    4  A    between atoms: C_13  and  C_15
REMARK    5  A    between atoms: C_15  and  N_16
REMARK    6  A    between atoms: C_18  and  C_25
REMARK    7  A    between atoms: C_21  and  C_24
REMARK    8  A    between atoms: C_26  and  O_28
REMARK    9  A    between atoms: O_28  and  C_29
REMARK                            x       y       z     vdW  Elec       q    Type
REMARK                         _______ _______ _______ _____ _____    ______ ____
ROOT
ATOM      1  C   UNL     1       1.193  -2.572   5.182  0.00  0.00    +0.044 C 
ATOM      2  C   UNL     1       0.721  -3.147   3.871  0.00  0.00    -0.040 A 
ATOM      3  C   UNL     1       0.638  -4.490   3.706  0.00  0.00    +0.004 A 
ATOM      4  C   UNL     1       0.204  -5.056   2.504  0.00  0.00    +0.002 A 
ATOM      5  C   UNL     1      -0.155  -4.294   1.443  0.00  0.00    +0.026 A 
ATOM      6  C   UNL     1      -0.096  -2.879   1.537  0.00  0.00    +0.045 A 
ATOM      7  N   UNL     1      -0.386  -1.934   0.666  0.00  0.00    -0.367 N 
ATOM      8  C   UNL     1      -0.145  -0.625   1.281  0.00  0.00    +0.234 C 
ATOM      9  C   UNL     1       0.344  -0.907   2.685  0.00  0.00    +0.053 C 
ATOM     10  C   UNL     1       0.356  -2.286   2.808  0.00  0.00    +0.021 A 
ATOM     11  H   UNL     1      -0.706  -2.081  -0.238  0.00  0.00    +0.161 HD
ENDROOT
BRANCH   9  12
ATOM     12  N   UNL     1       0.694   0.006   3.633  0.00  0.00    -0.285 N 
ATOM     13  C   UNL     1       0.455   1.317   3.427  0.00  0.00    +0.231 C 
ATOM     14  O   UNL     1       0.001   1.691   2.367  0.00  0.00    -0.274 OA
ATOM     15  H   UNL     1       1.115  -0.286   4.456  0.00  0.00    +0.155 HD
BRANCH  13  16
ATOM     16  C   UNL     1       0.753   2.317   4.514  0.00  0.00    +0.181 C 
BRANCH  16  17
ATOM     17  N   UNL     1       0.409   3.666   4.046  0.00  0.00    -0.289 NA
ATOM     18  C   UNL     1      -1.041   3.800   3.845  0.00  0.00    +0.116 C 
ATOM     19  C   UNL     1      -1.349   5.198   3.301  0.00  0.00    +0.130 C 
ATOM     20  O   UNL     1      -0.835   6.179   4.206  0.00  0.00    -0.371 OA
ATOM     21  C   UNL     1       0.575   6.078   4.425  0.00  0.00    +0.130 C 
ATOM     22  C   UNL     1       0.902   4.689   4.979  0.00  0.00    +0.116 C 
ATOM     23  C   UNL     1       1.014   7.146   5.428  0.00  0.00    +0.039 C 
ATOM     24  C   UNL     1      -2.863   5.371   3.164  0.00  0.00    +0.039 C 
ENDBRANCH  16  17
ENDBRANCH  13  16
ENDBRANCH   9  12
BRANCH   8  25
ATOM     25  C   UNL     1       0.905   0.128   0.506  0.00  0.00    +0.335 C 
ATOM     26  O   UNL     1       1.925  -0.428   0.174  0.00  0.00    -0.248 OA
BRANCH  25  27
ATOM     27  O   UNL     1       0.707   1.416   0.184  0.00  0.00    -0.466 OA
ATOM     28  C   UNL     1       1.745   2.068  -0.552  0.00  0.00    +0.280 C 
ENDBRANCH  25  27
ENDBRANCH   8  25
TORSDOF 5
