REMARK  Name = ZINC37696529
REMARK  6 active torsions:
REMARK  status: ('A' for Active; 'I' for Inactive)
REMARK    1  A    between atoms: C_1  and  C_2
REMARK    2  A    between atoms: C_4  and  C_19
REMARK    3  A    between atoms: C_5  and  C_18
REMARK    4  A    between atoms: C_6  and  O_8
REMARK    5  A    between atoms: O_8  and  C_9
REMARK    6  A    between atoms: C_15  and  O_17
REMARK                            x       y       z     vdW  Elec       q    Type
REMARK                         _______ _______ _______ _____ _____    ______ ____
ROOT
ATOM      1  C   UNL     1      -0.886   1.458   0.118  0.00  0.00    +0.044 C 
ATOM      2  C   UNL     1      -0.637  -0.027   0.076  0.00  0.00    -0.047 A 
ATOM      3  C   UNL     1      -0.638  -0.694  -1.136  0.00  0.00    +0.007 A 
ATOM      4  C   UNL     1      -0.409  -2.056  -1.178  0.00  0.00    -0.044 A 
ATOM      5  C   UNL     1      -0.179  -2.756  -0.009  0.00  0.00    -0.006 A 
ATOM      6  C   UNL     1      -0.177  -2.090   1.207  0.00  0.00    +0.124 A 
ATOM      7  C   UNL     1      -0.401  -0.721   1.246  0.00  0.00    +0.049 A 
ATOM      8  C   UNL     1       0.070  -4.242  -0.056  0.00  0.00    +0.048 C 
ATOM      9  C   UNL     1      -0.412  -2.780  -2.500  0.00  0.00    +0.044 C 
ENDROOT
BRANCH   6  10
ATOM     10  O   UNL     1       0.050  -2.776   2.358  0.00  0.00    -0.486 OA
BRANCH  10  11
ATOM     11  C   UNL     1       0.162  -2.009   3.559  0.00  0.00    +0.202 C 
ATOM     12  C   UNL     1      -1.233  -1.746   4.129  0.00  0.00    +0.047 C 
ATOM     13  C   UNL     1      -1.113  -0.925   5.414  0.00  0.00    +0.004 C 
ATOM     14  C   UNL     1      -0.281  -1.700   6.439  0.00  0.00    +0.003 C 
ATOM     15  C   UNL     1       1.114  -1.963   5.869  0.00  0.00    +0.035 C 
ATOM     16  C   UNL     1       0.994  -2.784   4.583  0.00  0.00    +0.155 C 
BRANCH  16  17
ATOM     17  O   UNL     1       0.354  -4.029   4.872  0.00  0.00    -0.388 OA
ATOM     18  H   UNL     1       0.827  -4.574   5.515  0.00  0.00    +0.210 HD
ENDBRANCH  16  17
ENDBRANCH  10  11
ENDBRANCH   6  10
TORSDOF 3
