REMARK  Name = ZINC02276706
REMARK  7 active torsions:
REMARK  status: ('A' for Active; 'I' for Inactive)
REMARK    1  A    between atoms: C_5  and  C_7
REMARK    2  A    between atoms: N_9  and  C_10
REMARK    3  A    between atoms: C_10  and  C_21
REMARK    4  A    between atoms: C_11  and  C_12
REMARK    5  A    between atoms: N_23  and  C_24
REMARK    6  A    between atoms: C_24  and  C_25
REMARK    7  A    between atoms: C_25  and  C_26
REMARK                            x       y       z     vdW  Elec       q    Type
REMARK                         _______ _______ _______ _____ _____    ______ ____
ROOT
ATOM      1  C   UNL     1      -1.317   1.597   0.090  0.00  0.00    +0.097 C 
ATOM      2  C   UNL     1      -1.443   2.865  -0.368  0.00  0.00    +0.036 C 
ENDROOT
BRANCH   2   3
ATOM      3  C   UNL     1      -2.758   3.366  -0.793  0.00  0.00    -0.019 A 
ATOM      4  C   UNL     1      -3.698   2.489  -1.347  0.00  0.00    +0.012 A 
ATOM      5  C   UNL     1      -4.931   2.961  -1.739  0.00  0.00    +0.050 A 
ATOM      6  C   UNL     1      -5.243   4.306  -1.597  0.00  0.00    +0.166 A 
ATOM      7  C   UNL     1      -4.309   5.188  -1.052  0.00  0.00    +0.167 A 
ATOM      8  C   UNL     1      -3.072   4.722  -0.651  0.00  0.00    +0.057 A 
ATOM      9  O   UNL     1      -4.856   6.439  -1.022  0.00  0.00    -0.453 OA
ATOM     10  C   UNL     1      -6.274   6.241  -1.174  0.00  0.00    +0.466 C 
ATOM     11  O   UNL     1      -6.372   5.007  -1.909  0.00  0.00    -0.453 OA
ENDBRANCH   2   3
BRANCH   1  14
ATOM     12  C   UNL     1       0.068  -0.135   0.950  0.00  0.00    +0.249 C 
ATOM     13  O   UNL     1      -0.927  -0.754   1.272  0.00  0.00    -0.270 OA
ATOM     14  N   UNL     1      -0.050   1.082   0.383  0.00  0.00    -0.277 N 
ATOM     15  H   UNL     1       0.850   1.671   0.151  0.00  0.00    +0.155 HD
BRANCH  12  20
ATOM     16  C   UNL     1       3.798  -0.558   1.025  0.00  0.00    +0.001 A 
ATOM     17  C   UNL     1       3.917  -1.808   1.607  0.00  0.00    +0.001 A 
ATOM     18  C   UNL     1       2.787  -2.515   1.976  0.00  0.00    +0.016 A 
ATOM     19  C   UNL     1       1.533  -1.978   1.766  0.00  0.00    +0.030 A 
ATOM     20  C   UNL     1       1.407  -0.717   1.179  0.00  0.00    +0.051 A 
ATOM     21  C   UNL     1       2.552  -0.011   0.804  0.00  0.00    +0.014 A 
ATOM     22 BR   UNL     1      -0.011  -2.947   2.270  0.00  0.00    -0.050 Br
ENDBRANCH  12  20
ENDBRANCH   1  14
BRANCH   1  23
ATOM     23  C   UNL     1      -2.511   0.763   0.278  0.00  0.00    +0.258 C 
ATOM     24  O   UNL     1      -2.682  -0.220  -0.419  0.00  0.00    -0.269 OA
ATOM     25  N   UNL     1      -3.416   1.085   1.223  0.00  0.00    -0.310 N 
ATOM     26  H   UNL     1      -3.304   2.017   1.797  0.00  0.00    +0.149 HD
BRANCH  25  27
ATOM     27  C   UNL     1      -4.550   0.195   1.486  0.00  0.00    +0.116 C 
BRANCH  27  28
ATOM     28  C   UNL     1      -5.484   0.847   2.507  0.00  0.00    +0.144 C 
BRANCH  28  29
ATOM     29  C   UNL     1      -6.586  -0.117   2.866  0.00  0.00    +0.357 C 
ATOM     30  O   UNL     1      -6.620  -1.212   2.357  0.00  0.00    -0.246 OA
ATOM     31  O   UNL     1      -7.529   0.242   3.751  0.00  0.00    -0.246 OA
ENDBRANCH  28  29
ENDBRANCH  27  28
ENDBRANCH  25  27
ENDBRANCH   1  23
TORSDOF 7
