REMARK  Name = ZINC35098515
REMARK  9 active torsions:
REMARK  status: ('A' for Active; 'I' for Inactive)
REMARK    1  A    between atoms: C_1  and  C_2
REMARK    2  A    between atoms: C_2  and  C_3
REMARK    3  A    between atoms: C_3  and  C_5
REMARK    4  A    between atoms: C_3  and  C_6
REMARK    5  A    between atoms: C_6  and  C_8
REMARK    6  A    between atoms: C_6  and  N_27
REMARK    7  A    between atoms: C_14  and  C_17
REMARK    8  A    between atoms: N_20  and  C_21
REMARK    9  A    between atoms: C_28  and  C_30
REMARK                            x       y       z     vdW  Elec       q    Type
REMARK                         _______ _______ _______ _____ _____    ______ ____
ROOT
ATOM      1  C   UNL     1       1.456  -2.240   0.239  0.00  0.00    +0.236 C 
ATOM      2  O   UNL     1       0.875  -2.833  -0.646  0.00  0.00    -0.274 OA
ATOM      3  N   UNL     1       2.763  -1.941   0.105  0.00  0.00    -0.297 N 
ATOM      4  C   UNL     1       3.438  -1.083   1.088  0.00  0.00    +0.127 C 
ATOM      5  C   UNL     1       4.087   0.094   0.348  0.00  0.00    +0.128 C 
ATOM      6  N   UNL     1       4.863  -0.433  -0.783  0.00  0.00    -0.280 N 
ATOM      7  C   UNL     1       4.187  -1.292  -1.766  0.00  0.00    +0.092 C 
ATOM      8  C   UNL     1       3.540  -2.473  -1.023  0.00  0.00    +0.130 C 
ATOM      9  C   UNL     1       3.112  -0.486  -2.499  0.00  0.00    +0.030 C 
ATOM     10  C   UNL     1       6.170  -0.134  -0.917  0.00  0.00    +0.303 C 
ATOM     11  O   UNL     1       6.776  -0.486  -1.911  0.00  0.00    -0.253 OA
ATOM     12  N   UNL     1       6.806   0.555   0.051  0.00  0.00    -0.296 N 
ATOM     13  H   UNL     1       6.346   0.766   0.879  0.00  0.00    +0.151 HD
ENDROOT
BRANCH  12  14
ATOM     14  C   UNL     1       8.193   0.985  -0.146  0.00  0.00    +0.074 C 
ATOM     15  C   UNL     1       9.140  -0.151   0.243  0.00  0.00    +0.022 C 
ATOM     16  C   UNL     1      10.588   0.298   0.037  0.00  0.00    +0.002 C 
ATOM     17  C   UNL     1      10.871   1.521   0.911  0.00  0.00    +0.000 C 
ATOM     18  C   UNL     1       9.924   2.658   0.522  0.00  0.00    +0.002 C 
ATOM     19  C   UNL     1       8.476   2.208   0.728  0.00  0.00    +0.022 C 
ENDBRANCH  12  14
BRANCH   1  20
ATOM     20  C   UNL     1       0.715  -1.838   1.488  0.00  0.00    +0.162 C 
BRANCH  20  21
ATOM     21  N   UNL     1      -0.215  -2.904   1.869  0.00  0.00    -0.304 N 
ATOM     22  C   UNL     1      -0.605  -3.031   3.153  0.00  0.00    +0.217 C 
ATOM     23  O   UNL     1      -0.186  -2.263   3.993  0.00  0.00    -0.275 OA
ATOM     24  H   UNL     1      -0.550  -3.518   1.197  0.00  0.00    +0.149 HD
BRANCH  22  25
ATOM     25  C   UNL     1      -1.562  -4.128   3.545  0.00  0.00    +0.075 C 
ATOM     26  C   UNL     1      -2.970  -3.715   3.978  0.00  0.00    +0.013 C 
ATOM     27  C   UNL     1      -1.966  -4.219   5.017  0.00  0.00    +0.013 C 
ENDBRANCH  22  25
ENDBRANCH  20  21
BRANCH  20  28
ATOM     28  C   UNL     1      -0.067  -0.549   1.224  0.00  0.00    +0.015 C 
ATOM     29  C   UNL     1       0.910   0.585   0.908  0.00  0.00    +0.010 C 
BRANCH  28  31
ATOM     30  C   UNL     1      -1.879   0.487  -0.150  0.00  0.00    +0.004 C 
ATOM     31  C   UNL     1      -1.008  -0.758   0.036  0.00  0.00    +0.002 C 
ENDBRANCH  28  31
ENDBRANCH  20  28
ENDBRANCH   1  20
TORSDOF 6
