REMARK  Name = ZINC08876548
REMARK  9 active torsions:
REMARK  status: ('A' for Active; 'I' for Inactive)
REMARK    1  A    between atoms: C_1  and  C_2
REMARK    2  A    between atoms: C_2  and  C_3
REMARK    3  A    between atoms: C_2  and  N_4
REMARK    4  A    between atoms: C_5  and  C_7
REMARK    5  A    between atoms: C_10  and  N_13
REMARK    6  A    between atoms: C_14  and  C_18
REMARK    7  A    between atoms: C_25  and  O_26
REMARK    8  A    between atoms: O_26  and  C_27
REMARK    9  A    between atoms: C_33  and  N_59
REMARK                            x       y       z     vdW  Elec       q    Type
REMARK                         _______ _______ _______ _____ _____    ______ ____
ROOT
ATOM      1  N   UNL     1      -6.556   5.417   0.407  0.00  0.00    -0.198 N 
ATOM      2  C   UNL     1      -5.241   5.173   0.602  0.00  0.00    +0.148 A 
ATOM      3  N   UNL     1      -4.977   4.015   0.055  0.00  0.00    -0.114 NA
ATOM      4  N   UNL     1      -6.034   3.511  -0.472  0.00  0.00    -0.023 NA
ATOM      5  N   UNL     1      -7.039   4.300  -0.296  0.00  0.00    -0.039 NA
ENDROOT
BRANCH   2   6
ATOM      6  C   UNL     1      -4.262   6.068   1.316  0.00  0.00    +0.037 C 
ATOM      7  C   UNL     1      -4.380   5.848   2.801  0.00  0.00    -0.005 A 
ATOM      8  C   UNL     1      -4.362   6.898   3.695  0.00  0.00    -0.040 A 
ATOM      9  C   UNL     1      -4.468   6.652   5.056  0.00  0.00    +0.053 A 
ATOM     10  C   UNL     1      -4.594   5.356   5.528  0.00  0.00    +0.170 A 
ATOM     11  C   UNL     1      -4.615   4.295   4.630  0.00  0.00    +0.208 A 
ATOM     12  C   UNL     1      -4.508   4.544   3.269  0.00  0.00    +0.168 A 
ATOM     13  O   UNL     1      -4.747   3.130   5.332  0.00  0.00    -0.449 OA
ATOM     14  C   UNL     1      -4.395   3.459   6.689  0.00  0.00    +0.467 C 
ATOM     15  O   UNL     1      -4.712   4.859   6.794  0.00  0.00    -0.452 OA
ATOM     16  C   UNL     1      -4.235   8.328   3.234  0.00  0.00    +0.017 C 
ATOM     17  C   UNL     1      -3.721   8.367   1.794  0.00  0.00    -0.073 C 
ATOM     18  C   UNL     1      -4.344   7.715  -0.454  0.00  0.00    -0.095 C 
ATOM     19  N   UNL     1      -4.572   7.470   0.988  0.00  0.00    +0.388 N 
ATOM     20  H   UNL     1      -5.557   7.655   1.207  0.00  0.00    -0.081 HD
BRANCH  12  21
ATOM     21  O   UNL     1      -4.529   3.509   2.387  0.00  0.00    -0.491 OA
ATOM     22  C   UNL     1      -3.291   2.837   2.146  0.00  0.00    +0.277 C 
ENDBRANCH  12  21
ENDBRANCH   2   6
BRANCH   1  26
ATOM     23  C   UNL     1      -8.720   8.761   1.645  0.00  0.00    +0.037 A 
ATOM     24  C   UNL     1      -7.838   8.132   2.527  0.00  0.00    +0.015 A 
ATOM     25  C   UNL     1      -7.129   7.024   2.116  0.00  0.00    +0.028 A 
ATOM     26  C   UNL     1      -7.282   6.539   0.823  0.00  0.00    +0.069 A 
ATOM     27  C   UNL     1      -8.155   7.165  -0.060  0.00  0.00    +0.028 A 
ATOM     28  C   UNL     1      -8.872   8.270   0.346  0.00  0.00    +0.015 A 
BRANCH  23  30
ATOM     29  N   UNL     1      -9.343  10.414   3.338  0.00  0.00    -0.309 N 
ATOM     30  C   UNL     1      -9.486   9.945   2.083  0.00  0.00    +0.244 C 
ATOM     31  O   UNL     1     -10.250  10.494   1.312  0.00  0.00    -0.270 OA
ATOM     32  H   UNL     1      -8.734   9.976   3.953  0.00  0.00    +0.149 HD
BRANCH  29  34
ATOM     33  C   UNL     1     -10.270  11.550   5.295  0.00  0.00    +0.027 C 
ATOM     34  C   UNL     1     -10.107  11.585   3.775  0.00  0.00    +0.067 C 
ATOM     35  C   UNL     1      -9.363  12.859   3.371  0.00  0.00    +0.027 C 
ENDBRANCH  29  34
ENDBRANCH  23  30
ENDBRANCH   1  26
TORSDOF 5
