REMARK  Name = ZINC31663204
REMARK  4 active torsions:
REMARK  status: ('A' for Active; 'I' for Inactive)
REMARK    1  A    between atoms: C_1  and  C_2
REMARK    2  A    between atoms: C_7  and  N_8
REMARK    3  A    between atoms: C_9  and  C_11
REMARK    4  A    between atoms: C_13  and  N_18
REMARK                            x       y       z     vdW  Elec       q    Type
REMARK                         _______ _______ _______ _____ _____    ______ ____
ROOT
ATOM      1  N   UNL     1      -0.011   0.966   0.007  0.00  0.00    -0.281 N 
ATOM      2  C   UNL     1       1.174   1.608   0.008  0.00  0.00    +0.249 C 
ATOM      3  O   UNL     1       1.209   2.820  -0.072  0.00  0.00    -0.270 OA
ATOM      4  H   UNL     1      -0.041  -0.134  -0.010  0.00  0.00    +0.155 HD
ENDROOT
BRANCH   1  11
ATOM      5  C   UNL     1      -2.358  -0.259  -1.036  0.00  0.00    +0.045 C 
ATOM      6  C   UNL     1      -2.372   1.138  -0.471  0.00  0.00    -0.029 A 
ATOM      7  C   UNL     1      -3.547   1.864  -0.448  0.00  0.00    +0.005 A 
ATOM      8  C   UNL     1      -3.560   3.146   0.070  0.00  0.00    +0.000 A 
ATOM      9  C   UNL     1      -2.398   3.705   0.568  0.00  0.00    +0.002 A 
ATOM     10  C   UNL     1      -1.221   2.983   0.554  0.00  0.00    +0.023 A 
ATOM     11  C   UNL     1      -1.203   1.698   0.028  0.00  0.00    +0.037 A 
ENDBRANCH   1  11
BRANCH   2  12
ATOM     12  C   UNL     1       2.431   0.838   0.107  0.00  0.00    +0.052 A 
ATOM     13  C   UNL     1       2.395  -0.555   0.199  0.00  0.00    +0.046 A 
ATOM     14  C   UNL     1       3.572  -1.268   0.290  0.00  0.00    +0.127 A 
ATOM     15  C   UNL     1       4.788  -0.606   0.290  0.00  0.00    +0.034 A 
ATOM     16  C   UNL     1       4.832   0.773   0.199  0.00  0.00    +0.017 A 
ATOM     17  C   UNL     1       3.661   1.499   0.102  0.00  0.00    +0.026 A 
ATOM     18  I   UNL     1       3.730   3.588  -0.044  0.00  0.00    -0.043 I 
BRANCH  14  19
ATOM     19  N   UNL     1       3.536  -2.745   0.388  0.00  0.00    +0.056 N 
ATOM     20  O   UNL     1       2.467  -3.329   0.387  0.00  0.00    -0.126 OA
ATOM     21  O   UNL     1       4.574  -3.376   0.468  0.00  0.00    -0.126 OA
ENDBRANCH  14  19
ENDBRANCH   2  12
TORSDOF 3
