REMARK  Name = ZINC00965722
REMARK  8 active torsions:
REMARK  status: ('A' for Active; 'I' for Inactive)
REMARK    1  A    between atoms: C_1  and  C_2
REMARK    2  A    between atoms: C_5  and  N_8
REMARK    3  A    between atoms: C_9  and  C_29
REMARK    4  A    between atoms: C_12  and  S_13
REMARK    5  A    between atoms: S_13  and  C_14
REMARK    6  A    between atoms: C_14  and  C_15
REMARK    7  A    between atoms: C_17  and  C_20
REMARK    8  A    between atoms: C_25  and  C_28
REMARK                            x       y       z     vdW  Elec       q    Type
REMARK                         _______ _______ _______ _____ _____    ______ ____
ROOT
ATOM      1  N   UNL     1       9.615   0.888   1.600  0.00  0.00    -0.270 N 
ATOM      2  C   UNL     1      10.288   1.130   2.778  0.00  0.00    +0.171 A 
ATOM      3  N   UNL     1       9.645   2.092   3.398  0.00  0.00    -0.128 NA
ATOM      4  N   UNL     1       8.635   2.468   2.699  0.00  0.00    -0.122 NA
ATOM      5  C   UNL     1       8.568   1.769   1.588  0.00  0.00    +0.197 A 
ENDROOT
BRANCH   1  10
ATOM      6  C   UNL     1      10.917  -2.951  -2.372  0.00  0.00    +0.044 C 
ATOM      7  C   UNL     1      10.571  -1.931  -1.317  0.00  0.00    -0.050 A 
ATOM      8  C   UNL     1      10.638  -0.582  -1.613  0.00  0.00    +0.005 A 
ATOM      9  C   UNL     1      10.322   0.354  -0.649  0.00  0.00    +0.026 A 
ATOM     10  C   UNL     1       9.936  -0.060   0.619  0.00  0.00    +0.051 A 
ATOM     11  C   UNL     1       9.876  -1.415   0.915  0.00  0.00    +0.026 A 
ATOM     12  C   UNL     1      10.187  -2.347  -0.056  0.00  0.00    +0.005 A 
ENDBRANCH   1  10
BRANCH   2  13
ATOM     13  C   UNL     1      11.502   0.433   3.255  0.00  0.00    +0.038 A 
ATOM     14  C   UNL     1      11.905   0.542   4.591  0.00  0.00    +0.014 A 
ATOM     15  C   UNL     1      13.048  -0.130   4.987  0.00  0.00    +0.020 A 
ATOM     16  C   UNL     1      13.749  -0.879   4.059  0.00  0.00    +0.111 A 
ATOM     17  N   UNL     1      13.345  -0.963   2.807  0.00  0.00    -0.263 NA
ATOM     18  C   UNL     1      12.261  -0.347   2.383  0.00  0.00    +0.122 A 
ENDBRANCH   2  13
BRANCH   5  19
ATOM     19  S   UNL     1       7.353   1.932   0.322  0.00  0.00    -0.079 S 
BRANCH  19  20
ATOM     20  C   UNL     1       6.343   3.259   1.024  0.00  0.00    +0.140 C 
BRANCH  20  21
ATOM     21  C   UNL     1       5.208   3.577   0.085  0.00  0.00    +0.089 A 
ATOM     22  N   UNL     1       4.008   3.059   0.051  0.00  0.00    -0.239 NA
ATOM     23  C   UNL     1       3.131   3.470  -0.866  0.00  0.00    +0.133 A 
ATOM     24  C   UNL     1       3.538   4.445  -1.741  0.00  0.00    +0.080 A 
ATOM     25  S   UNL     1       5.167   4.725  -1.213  0.00  0.00    -0.079 S 
BRANCH  23  26
ATOM     26  C   UNL     1       1.774   2.902  -0.933  0.00  0.00    +0.265 C 
ATOM     27  O   UNL     1       0.941   3.402  -1.666  0.00  0.00    -0.268 OA
ATOM     28  N   UNL     1       1.454   1.829  -0.183  0.00  0.00    -0.296 N 
ATOM     29  C   UNL     1       0.067   1.349  -0.115  0.00  0.00    +0.108 C 
ATOM     30  C   UNL     1       0.043  -0.140  -0.474  0.00  0.00    +0.022 C 
ATOM     31  C   UNL     1       1.014  -0.896   0.434  0.00  0.00    -0.011 C 
ATOM     32  C   UNL     1       2.435  -0.369   0.215  0.00  0.00    +0.022 C 
ATOM     33  C   UNL     1       2.487   1.117   0.582  0.00  0.00    +0.108 C 
ATOM     34  C   UNL     1       0.967  -2.388   0.102  0.00  0.00    +0.007 C 
ENDBRANCH  23  26
ENDBRANCH  20  21
ENDBRANCH  19  20
ENDBRANCH   5  19
TORSDOF 6
