REMARK  Name = ZINC42802200
REMARK  6 active torsions:
REMARK  status: ('A' for Active; 'I' for Inactive)
REMARK    1  A    between atoms: C_1  and  N_2
REMARK    2  A    between atoms: N_5  and  C_6
REMARK    3  A    between atoms: C_10  and  N_12
REMARK    4  A    between atoms: C_13  and  C_15
REMARK    5  A    between atoms: C_20  and  N_21
REMARK    6  A    between atoms: C_22  and  C_24
REMARK                            x       y       z     vdW  Elec       q    Type
REMARK                         _______ _______ _______ _____ _____    ______ ____
ROOT
ATOM      1  N   UNL     1       2.011  -6.065  -3.314  0.00  0.00    -0.281 N 
ATOM      2  C   UNL     1       2.744  -6.683  -4.261  0.00  0.00    +0.250 C 
ATOM      3  O   UNL     1       3.320  -6.027  -5.108  0.00  0.00    -0.270 OA
ATOM      4  H   UNL     1       1.497  -6.590  -2.680  0.00  0.00    +0.155 HD
ENDROOT
BRANCH   1   9
ATOM      5  C   UNL     1       1.891  -2.649  -1.950  0.00  0.00    +0.037 A 
ATOM      6  C   UNL     1       1.948  -1.900  -3.119  0.00  0.00    +0.023 A 
ATOM      7  C   UNL     1       2.026  -2.534  -4.344  0.00  0.00    +0.004 A 
ATOM      8  C   UNL     1       2.047  -3.914  -4.411  0.00  0.00    +0.023 A 
ATOM      9  C   UNL     1       1.990  -4.669  -3.246  0.00  0.00    +0.035 A 
ATOM     10  C   UNL     1       1.918  -4.034  -2.013  0.00  0.00    +0.046 A 
BRANCH   5  15
ATOM     11  C   UNL     1       3.113  -2.439   2.702  0.00  0.00    +0.129 C 
ATOM     12  N   UNL     1       2.437  -1.867   1.535  0.00  0.00    -0.302 N 
ATOM     13  C   UNL     1       2.434  -2.533   0.363  0.00  0.00    +0.304 C 
ATOM     14  O   UNL     1       2.993  -3.609   0.275  0.00  0.00    -0.253 OA
ATOM     15  N   UNL     1       1.812  -2.006  -0.710  0.00  0.00    -0.269 N 
ATOM     16  H   UNL     1       1.991  -1.008   1.606  0.00  0.00    +0.150 HD
ATOM     17  H   UNL     1       1.309  -1.181  -0.622  0.00  0.00    +0.156 HD
ENDBRANCH   5  15
ENDBRANCH   1   9
BRANCH   2  18
ATOM     18  C   UNL     1       2.848  -8.154  -4.271  0.00  0.00    +0.058 A 
ATOM     19  C   UNL     1       2.098  -8.917  -3.373  0.00  0.00    +0.015 A 
ATOM     20  C   UNL     1       2.200 -10.291  -3.387  0.00  0.00    +0.001 A 
ATOM     21  C   UNL     1       3.044 -10.922  -4.287  0.00  0.00    +0.002 A 
ATOM     22  C   UNL     1       3.791 -10.181  -5.180  0.00  0.00    +0.024 A 
ATOM     23  C   UNL     1       3.697  -8.795  -5.186  0.00  0.00    +0.046 A 
BRANCH  23  24
ATOM     24  N   UNL     1       4.445  -8.047  -6.090  0.00  0.00    -0.280 N 
ATOM     25  C   UNL     1       4.683  -8.526  -7.327  0.00  0.00    +0.255 C 
ATOM     26  O   UNL     1       4.164  -9.566  -7.687  0.00  0.00    -0.269 OA
ATOM     27  H   UNL     1       4.794  -7.180  -5.830  0.00  0.00    +0.155 HD
BRANCH  25  28
ATOM     28  C   UNL     1       5.567  -7.794  -8.238  0.00  0.00    +0.074 A 
ATOM     29  C   UNL     1       5.935  -8.107  -9.538  0.00  0.00    +0.021 A 
ATOM     30  C   UNL     1       6.787  -7.218 -10.147  0.00  0.00    +0.008 A 
ATOM     31  C   UNL     1       7.202  -6.126  -9.460  0.00  0.00    +0.046 A 
ATOM     32  S   UNL     1       6.444  -6.266  -7.967  0.00  0.00    -0.092 S 
ENDBRANCH  25  28
ENDBRANCH  23  24
ENDBRANCH   2  18
TORSDOF 5
