REMARK  Name = ZINC00825436
REMARK  7 active torsions:
REMARK  status: ('A' for Active; 'I' for Inactive)
REMARK    1  A    between atoms: C_1  and  C_2
REMARK    2  A    between atoms: C_2  and  O_3
REMARK    3  A    between atoms: O_3  and  C_4
REMARK    4  A    between atoms: C_4  and  C_6
REMARK    5  A    between atoms: C_10  and  N_11
REMARK    6  A    between atoms: C_12  and  C_14
REMARK    7  A    between atoms: C_18  and  N_20
REMARK                            x       y       z     vdW  Elec       q    Type
REMARK                         _______ _______ _______ _____ _____    ______ ____
ROOT
ATOM      1  C   UNL     1       2.146   8.275   0.032  0.00  0.00    +0.091 A 
ATOM      2  C   UNL     1       1.851   9.698   0.036  0.00  0.00    -0.021 A 
ATOM      3  C   UNL     1       0.537  10.013   0.050  0.00  0.00    -0.004 A 
ATOM      4  S   UNL     1      -0.303   8.455   0.050  0.00  0.00    -0.077 S 
ATOM      5  C   UNL     1       1.069   7.397   0.031  0.00  0.00    +0.087 A 
ATOM      6  C   UNL     1      -0.062  11.386   0.064  0.00  0.00    +0.043 C 
ATOM      7  C   UNL     1       1.038  12.390   0.437  0.00  0.00    +0.005 C 
ATOM      8  C   UNL     1       2.279  12.102  -0.413  0.00  0.00    +0.005 C 
ATOM      9  C   UNL     1       2.918  10.785   0.031  0.00  0.00    +0.037 C 
ENDROOT
BRANCH   5  10
ATOM     10  N   UNL     1       1.088   6.012   0.024  0.00  0.00    -0.275 N 
ATOM     11  C   UNL     1      -0.070   5.323   0.030  0.00  0.00    +0.249 C 
ATOM     12  O   UNL     1      -1.131   5.916   0.043  0.00  0.00    -0.270 OA
ATOM     13  H   UNL     1       1.934   5.539   0.013  0.00  0.00    +0.156 HD
BRANCH  11  14
ATOM     14  C   UNL     1      -0.050   3.845   0.022  0.00  0.00    +0.039 A 
ATOM     15  C   UNL     1       1.167   3.160   0.007  0.00  0.00    +0.013 A 
ATOM     16  C   UNL     1       1.178   1.781   0.000  0.00  0.00    +0.003 A 
ATOM     17  C   UNL     1      -0.013   1.076   0.008  0.00  0.00    +0.033 A 
ATOM     18  C   UNL     1      -1.222   1.748   0.017  0.00  0.00    +0.127 A 
ATOM     19  C   UNL     1      -1.248   3.127   0.030  0.00  0.00    +0.045 A 
BRANCH  18  20
ATOM     20  N   UNL     1      -2.490   0.986   0.020  0.00  0.00    +0.056 N 
ATOM     21  O   UNL     1      -2.469  -0.232   0.013  0.00  0.00    -0.126 OA
ATOM     22  O   UNL     1      -3.556   1.576   0.028  0.00  0.00    -0.126 OA
ENDBRANCH  18  20
ENDBRANCH  11  14
ENDBRANCH   5  10
BRANCH   1  23
ATOM     23  C   UNL     1       3.525   7.785   0.024  0.00  0.00    +0.342 C 
ATOM     24  O   UNL     1       4.095   7.587  -1.033  0.00  0.00    -0.245 OA
BRANCH  23  25
ATOM     25  O   UNL     1       4.165   7.553   1.189  0.00  0.00    -0.461 OA
BRANCH  25  27
ATOM     26  C   UNL     1       6.087   6.865   2.516  0.00  0.00    +0.048 C 
ATOM     27  C   UNL     1       5.531   7.068   1.105  0.00  0.00    +0.229 C 
ENDBRANCH  25  27
ENDBRANCH  23  25
ENDBRANCH   1  23
TORSDOF 6
