REMARK  Name = ZINC41077438
REMARK  7 active torsions:
REMARK  status: ('A' for Active; 'I' for Inactive)
REMARK    1  A    between atoms: C_1  and  C_2
REMARK    2  A    between atoms: C_2  and  O_3
REMARK    3  A    between atoms: O_3  and  C_4
REMARK    4  A    between atoms: C_9  and  N_10
REMARK    5  A    between atoms: N_16  and  C_19
REMARK    6  A    between atoms: C_19  and  C_20
REMARK    7  A    between atoms: C_28  and  C_30
REMARK                            x       y       z     vdW  Elec       q    Type
REMARK                         _______ _______ _______ _____ _____    ______ ____
ROOT
ATOM      1  N   UNL     1      -3.903  -1.565   0.034  0.00  0.00    -0.266 N 
ATOM      2  C   UNL     1      -5.138  -2.097  -0.062  0.00  0.00    +0.307 C 
ATOM      3  O   UNL     1      -5.281  -3.304  -0.070  0.00  0.00    -0.252 OA
ATOM      4  N   UNL     1      -6.214  -1.290  -0.149  0.00  0.00    -0.283 N 
ATOM      5  C   UNL     1      -6.057   0.168  -0.260  0.00  0.00    +0.124 C 
ATOM      6  C   UNL     1      -6.935   0.835   0.804  0.00  0.00    +0.104 C 
ATOM      7  N   UNL     1      -8.314   0.346   0.673  0.00  0.00    -0.294 NA
ATOM      8  C   UNL     1      -8.394  -1.099   0.925  0.00  0.00    +0.104 C 
ATOM      9  C   UNL     1      -7.576  -1.845  -0.141  0.00  0.00    +0.124 C 
ATOM     10  H   UNL     1      -3.792  -0.603   0.089  0.00  0.00    +0.156 HD
ENDROOT
BRANCH   1  16
ATOM     11  C   UNL     1      -1.553  -1.937  -0.416  0.00  0.00    +0.142 A 
ATOM     12  C   UNL     1      -0.444  -2.768  -0.388  0.00  0.00    +0.047 A 
ATOM     13  C   UNL     1      -0.557  -4.057   0.099  0.00  0.00    +0.004 A 
ATOM     14  C   UNL     1      -1.776  -4.521   0.559  0.00  0.00    +0.002 A 
ATOM     15  C   UNL     1      -2.886  -3.699   0.536  0.00  0.00    +0.027 A 
ATOM     16  C   UNL     1      -2.779  -2.403   0.054  0.00  0.00    +0.077 A 
BRANCH  11  17
ATOM     17  O   UNL     1      -1.444  -0.670  -0.895  0.00  0.00    -0.490 OA
BRANCH  17  19
ATOM     18  C   UNL     1      -0.228   1.184  -1.857  0.00  0.00    +0.048 C 
ATOM     19  C   UNL     1      -0.156  -0.261  -1.360  0.00  0.00    +0.226 C 
ENDBRANCH  17  19
ENDBRANCH  11  17
ENDBRANCH   1  16
BRANCH   7  20
ATOM     20  C   UNL     1      -9.222   1.086   1.560  0.00  0.00    +0.140 C 
BRANCH  20  21
ATOM     21  C   UNL     1     -10.649   0.735   1.226  0.00  0.00    +0.063 A 
ATOM     22  C   UNL     1     -11.442   0.077   2.141  0.00  0.00    +0.096 A 
ATOM     23  C   UNL     1     -12.761  -0.239   1.813  0.00  0.00    +0.275 A 
ATOM     24  O   UNL     1     -13.469  -0.821   2.620  0.00  0.00    -0.266 OA
ATOM     25  N   UNL     1     -13.258   0.104   0.588  0.00  0.00    -0.171 N 
ATOM     26  C   UNL     1     -12.403   0.755  -0.258  0.00  0.00    +0.199 A 
ATOM     27  N   UNL     1     -11.166   1.059   0.044  0.00  0.00    -0.225 NA
ATOM     28  S   UNL     1     -13.409   1.015  -1.703  0.00  0.00    -0.027 S 
ATOM     29  C   UNL     1     -14.901   0.245  -1.095  0.00  0.00    +0.139 A 
ATOM     30  N   UNL     1     -14.542  -0.135   0.107  0.00  0.00    -0.154 NA
BRANCH  29  31
ATOM     31  C   UNL     1     -16.199   0.082  -1.769  0.00  0.00    +0.046 A 
ATOM     32  C   UNL     1     -16.575   0.475  -3.028  0.00  0.00    +0.018 A 
ATOM     33  C   UNL     1     -17.858   0.210  -3.447  0.00  0.00    +0.008 A 
ATOM     34  C   UNL     1     -18.712  -0.430  -2.605  0.00  0.00    +0.046 A 
ATOM     35  S   UNL     1     -17.692  -0.687  -1.163  0.00  0.00    -0.095 S 
ENDBRANCH  29  31
ENDBRANCH  20  21
ENDBRANCH   7  20
TORSDOF 6
