REMARK  Name = ZINC22138951
REMARK  15 active torsions:
REMARK  status: ('A' for Active; 'I' for Inactive)
REMARK    1  A    between atoms: C_1  and  C_2
REMARK    2  A    between atoms: C_7  and  C_9
REMARK    3  A    between atoms: C_7  and  C_10
REMARK    4  A    between atoms: N_13  and  C_17
REMARK    5  A    between atoms: C_17  and  C_18
REMARK    6  A    between atoms: C_18  and  O_20
REMARK    7  A    between atoms: O_20  and  C_21
REMARK    8  A    between atoms: C_21  and  C_23
REMARK    9  A    between atoms: C_21  and  C_24
REMARK   10  A    between atoms: N_26  and  C_27
REMARK   11  A    between atoms: C_27  and  C_28
REMARK   12  A    between atoms: C_27  and  C_29
REMARK   13  A    between atoms: C_27  and  C_31
REMARK   14  A    between atoms: C_31  and  C_32
REMARK   15  A    between atoms: C_31  and  C_33
REMARK                            x       y       z     vdW  Elec       q    Type
REMARK                         _______ _______ _______ _____ _____    ______ ____
ROOT
ATOM      1  C   UNL     1      -4.079  -4.264  -1.458  0.00  0.00    +0.238 C 
ENDROOT
BRANCH   1  13
ATOM      2  C   UNL     1      -0.159   1.471  -0.048  0.00  0.00    +0.007 C 
ATOM      3  C   UNL     1      -0.085  -0.057  -0.027  0.00  0.00    -0.011 C 
ATOM      4  C   UNL     1      -1.501  -0.636   0.015  0.00  0.00    +0.038 C 
ATOM      5  C   UNL     1      -1.428  -2.159   0.057  0.00  0.00    +0.113 C 
ATOM      6  C   UNL     1      -0.642  -2.627   1.276  0.00  0.00    +0.041 C 
ATOM      7  C   UNL     1       0.772  -2.041   1.230  0.00  0.00    -0.032 C 
ATOM      8  C   UNL     1       0.688  -0.513   1.212  0.00  0.00    +0.009 C 
ATOM      9  C   UNL     1       1.553  -2.495   2.465  0.00  0.00    +0.011 C 
ATOM     10  C   UNL     1       1.485  -2.527  -0.033  0.00  0.00    +0.011 C 
ATOM     11  C   UNL     1      -2.817  -2.754   0.064  0.00  0.00    +0.247 C 
ATOM     12  O   UNL     1      -3.679  -2.595   0.901  0.00  0.00    -0.273 OA
ATOM     13  N   UNL     1      -2.895  -3.499  -1.058  0.00  0.00    -0.213 N 
ATOM     14  C   UNL     1      -1.756  -3.453  -1.761  0.00  0.00    +0.310 C 
ATOM     15  O   UNL     1      -1.585  -4.042  -2.810  0.00  0.00    -0.252 OA
ATOM     16  N   UNL     1      -0.823  -2.679  -1.176  0.00  0.00    -0.285 N 
ATOM     17  H   UNL     1       0.073  -2.500  -1.504  0.00  0.00    +0.151 HD
ENDBRANCH   1  13
BRANCH   1  18
ATOM     18  C   UNL     1      -4.972  -3.399  -2.310  0.00  0.00    +0.326 C 
ATOM     19  O   UNL     1      -4.652  -2.260  -2.557  0.00  0.00    -0.249 OA
BRANCH  18  20
ATOM     20  O   UNL     1      -6.122  -3.893  -2.793  0.00  0.00    -0.451 OA
BRANCH  20  21
ATOM     21  C   UNL     1      -6.920  -3.018  -3.593  0.00  0.00    +0.259 C 
ATOM     22  C   UNL     1      -6.513  -3.156  -5.061  0.00  0.00    +0.062 C 
BRANCH  21  23
ATOM     23  C   UNL     1      -8.374  -3.380  -3.438  0.00  0.00    +0.255 C 
ATOM     24  O   UNL     1      -8.696  -4.299  -2.714  0.00  0.00    -0.272 OA
ATOM     25  N   UNL     1      -9.317  -2.685  -4.104  0.00  0.00    -0.294 N 
ATOM     26  H   UNL     1      -9.059  -1.950  -4.683  0.00  0.00    +0.150 HD
BRANCH  25  27
ATOM     27  C   UNL     1     -10.731  -3.038  -3.953  0.00  0.00    +0.121 C 
ATOM     28  C   UNL     1     -10.947  -4.482  -4.408  0.00  0.00    +0.048 C 
BRANCH  27  29
ATOM     29  C   UNL     1     -11.585  -2.100  -4.809  0.00  0.00    +0.020 C 
ATOM     30  C   UNL     1     -11.266  -2.328  -6.288  0.00  0.00    +0.010 C 
ATOM     31  C   UNL     1     -13.066  -2.386  -4.556  0.00  0.00    +0.010 C 
ENDBRANCH  27  29
BRANCH  27  32
ATOM     32  C   UNL     1     -11.122  -2.904  -2.540  0.00  0.00    +0.088 C 
ATOM     33  N   UNL     1     -11.424  -2.801  -1.450  0.00  0.00    -0.194 NA
ENDBRANCH  27  32
ENDBRANCH  25  27
ENDBRANCH  21  23
ENDBRANCH  20  21
ENDBRANCH  18  20
ENDBRANCH   1  18
TORSDOF 8
