REMARK  Name = ZINC23123251
REMARK  10 active torsions:
REMARK  status: ('A' for Active; 'I' for Inactive)
REMARK    1  A    between atoms: C_1  and  C_2
REMARK    2  A    between atoms: C_2  and  C_4
REMARK    3  A    between atoms: C_2  and  S_25
REMARK    4  A    between atoms: N_6  and  C_7
REMARK    5  A    between atoms: C_9  and  S_15
REMARK    6  A    between atoms: C_12  and  O_13
REMARK    7  A    between atoms: O_13  and  C_14
REMARK    8  A    between atoms: S_15  and  N_18
REMARK    9  A    between atoms: S_25  and  C_26
REMARK   10  A    between atoms: C_29  and  N_32
REMARK                            x       y       z     vdW  Elec       q    Type
REMARK                         _______ _______ _______ _____ _____    ______ ____
ROOT
ATOM      1  C   UNL     1      -1.121  -0.807  -0.482  0.00  0.00    +0.077 A 
ATOM      2  C   UNL     1      -1.113  -2.182  -0.667  0.00  0.00    +0.055 A 
ATOM      3  C   UNL     1       0.082  -2.844  -0.875  0.00  0.00    +0.107 A 
ATOM      4  C   UNL     1       1.271  -2.138  -0.905  0.00  0.00    +0.032 A 
ATOM      5  C   UNL     1       1.270  -0.767  -0.726  0.00  0.00    +0.049 A 
ATOM      6  C   UNL     1       0.076  -0.096  -0.517  0.00  0.00    +0.141 A 
ENDROOT
BRANCH   1   9
ATOM      7  C   UNL     1      -3.459  -0.566  -0.865  0.00  0.00    +0.230 C 
ATOM      8  O   UNL     1      -3.444  -1.585  -1.523  0.00  0.00    -0.274 OA
ATOM      9  N   UNL     1      -2.332  -0.135  -0.265  0.00  0.00    -0.282 N 
ATOM     10  H   UNL     1      -2.362   0.744   0.396  0.00  0.00    +0.155 HD
BRANCH   7  12
ATOM     11  C   UNL     1      -4.778   1.329  -1.768  0.00  0.00    +0.029 C 
ATOM     12  C   UNL     1      -4.738   0.217  -0.718  0.00  0.00    +0.134 C 
BRANCH  12  13
ATOM     13  S   UNL     1      -6.156  -0.889  -0.953  0.00  0.00    -0.113 S 
BRANCH  13  14
ATOM     14  C   UNL     1      -6.106  -1.951   0.452  0.00  0.00    +0.009 A 
ATOM     15  C   UNL     1      -5.190  -1.716   1.470  0.00  0.00    +0.017 A 
ATOM     16  C   UNL     1      -5.157  -2.547   2.573  0.00  0.00    +0.034 A 
ATOM     17  C   UNL     1      -6.028  -3.618   2.660  0.00  0.00    +0.126 A 
ATOM     18  C   UNL     1      -6.938  -3.858   1.645  0.00  0.00    +0.034 A 
ATOM     19  C   UNL     1      -6.979  -3.028   0.543  0.00  0.00    +0.017 A 
BRANCH  17  20
ATOM     20  N   UNL     1      -5.987  -4.509   3.841  0.00  0.00    +0.056 N 
ATOM     21  O   UNL     1      -6.753  -5.453   3.918  0.00  0.00    -0.126 OA
ATOM     22  O   UNL     1      -5.187  -4.299   4.734  0.00  0.00    -0.126 OA
ENDBRANCH  17  20
ENDBRANCH  13  14
ENDBRANCH  12  13
ENDBRANCH   7  12
ENDBRANCH   1   9
BRANCH   3  23
ATOM     23  S   UNL     1       0.092  -4.591  -1.105  0.00  0.00    +0.061 S 
ATOM     24  O   UNL     1      -1.201  -4.945  -1.577  0.00  0.00    -0.153 OA
ATOM     25  O   UNL     1       1.277  -4.899  -1.825  0.00  0.00    -0.153 OA
BRANCH  23  26
ATOM     26  N   UNL     1       0.254  -5.280   0.392  0.00  0.00    -0.177 NA
ATOM     27  C   UNL     1       1.585  -5.550   0.890  0.00  0.00    +0.109 C 
ATOM     28  C   UNL     1       2.034  -6.960   0.450  0.00  0.00    +0.017 C 
ATOM     29  C   UNL     1       1.284  -7.988   1.188  0.00  0.00    +0.001 C 
ATOM     30  C   UNL     1      -0.220  -7.972   0.934  0.00  0.00    +0.001 C 
ATOM     31  C   UNL     1      -0.873  -6.970   1.854  0.00  0.00    +0.017 C 
ATOM     32  C   UNL     1      -0.965  -5.598   1.161  0.00  0.00    +0.109 C 
ENDBRANCH  23  26
ENDBRANCH   3  23
BRANCH   6  33
ATOM     33  O   UNL     1       0.073   1.252  -0.341  0.00  0.00    -0.493 OA
ATOM     34  C   UNL     1       1.339   1.914  -0.383  0.00  0.00    +0.277 C 
ENDBRANCH   6  33
TORSDOF 8
