REMARK  Name = ZINC25782571
REMARK  9 active torsions:
REMARK  status: ('A' for Active; 'I' for Inactive)
REMARK    1  A    between atoms: C_1  and  C_2
REMARK    2  A    between atoms: C_4  and  C_8
REMARK    3  A    between atoms: C_5  and  C_7
REMARK    4  A    between atoms: C_10  and  C_33
REMARK    5  A    between atoms: C_11  and  N_32
REMARK    6  A    between atoms: N_12  and  C_22
REMARK    7  A    between atoms: C_18  and  C_20
REMARK    8  A    between atoms: C_18  and  C_21
REMARK    9  A    between atoms: C_25  and  N_29
REMARK                            x       y       z     vdW  Elec       q    Type
REMARK                         _______ _______ _______ _____ _____    ______ ____
ROOT
ATOM      1  C   UNL     1      -0.405  -4.209  -0.758  0.00  0.00    +0.098 C 
ATOM      2  C   UNL     1      -1.308  -4.806   0.281  0.00  0.00    +0.077 C 
ATOM      3  C   UNL     1      -2.269  -4.062   0.886  0.00  0.00    +0.107 C 
ATOM      4  N   UNL     1      -2.426  -2.735   0.556  0.00  0.00    -0.259 N 
ATOM      5  C   UNL     1      -1.411  -2.046  -0.055  0.00  0.00    +0.025 C 
ATOM      6  C   UNL     1      -0.418  -2.703  -0.690  0.00  0.00    +0.025 C 
ATOM      7  C   UNL     1       0.637  -2.005  -1.304  0.00  0.00    +0.162 C 
ATOM      8  O   UNL     1       1.510  -2.626  -1.877  0.00  0.00    -0.292 OA
ATOM      9  C   UNL     1       0.710  -0.502  -1.262  0.00  0.00    +0.086 C 
ATOM     10  C   UNL     1       0.002  -0.004   0.002  0.00  0.00    -0.023 C 
ATOM     11  C   UNL     1      -1.432  -0.538   0.003  0.00  0.00    +0.058 C 
ATOM     12  C   UNL     1      -0.019   1.526   0.010  0.00  0.00    +0.011 C 
ATOM     13  C   UNL     1       0.741  -0.515   1.240  0.00  0.00    +0.011 C 
ENDROOT
BRANCH   1  17
ATOM     14  C   UNL     1      -3.839  -4.527  -4.504  0.00  0.00    +0.051 C 
ATOM     15  C   UNL     1      -2.523  -4.741  -3.801  0.00  0.00    -0.013 A 
ATOM     16  C   UNL     1      -2.139  -4.332  -2.568  0.00  0.00    +0.015 A 
ATOM     17  C   UNL     1      -0.868  -4.646  -2.124  0.00  0.00    -0.025 A 
ATOM     18  C   UNL     1      -0.042  -5.348  -2.938  0.00  0.00    -0.009 A 
ATOM     19  S   UNL     1      -1.067  -5.597  -4.378  0.00  0.00    -0.098 S 
ATOM     20  C   UNL     1       1.374  -5.803  -2.691  0.00  0.00    +0.052 C 
ENDBRANCH   1  17
BRANCH   4  21
ATOM     21  C   UNL     1      -3.631  -2.084   0.847  0.00  0.00    +0.058 A 
ATOM     22  C   UNL     1      -4.659  -2.073  -0.086  0.00  0.00    +0.027 A 
ATOM     23  C   UNL     1      -5.848  -1.435   0.206  0.00  0.00    +0.034 A 
ATOM     24  C   UNL     1      -6.012  -0.797   1.422  0.00  0.00    +0.128 A 
ATOM     25  C   UNL     1      -4.989  -0.800   2.352  0.00  0.00    +0.054 A 
ATOM     26  C   UNL     1      -3.798  -1.441   2.068  0.00  0.00    +0.065 A 
ATOM     27 CL   UNL     1      -2.513  -1.445   3.235  0.00  0.00    -0.082 Cl
BRANCH  24  28
ATOM     28  N   UNL     1      -7.287  -0.109   1.729  0.00  0.00    +0.056 N 
ATOM     29  O   UNL     1      -7.432   0.454   2.799  0.00  0.00    -0.126 OA
ATOM     30  O   UNL     1      -8.189  -0.105   0.911  0.00  0.00    -0.126 OA
ENDBRANCH  24  28
ENDBRANCH   4  21
BRANCH   3  31
ATOM     31  N   UNL     1      -3.089  -4.635   1.829  0.00  0.00    -0.345 N 
ATOM     32  H   UNL     1      -3.868  -4.033   2.320  0.00  0.00    +0.144 HD
ATOM     33  H   UNL     1      -2.965  -5.695   2.094  0.00  0.00    +0.144 HD
ENDBRANCH   3  31
BRANCH   2  34
ATOM     34  C   UNL     1      -1.152  -6.183   0.642  0.00  0.00    +0.099 C 
ATOM     35  N   UNL     1      -1.029  -7.276   0.929  0.00  0.00    -0.191 NA
ENDBRANCH   2  34
TORSDOF 5
