REMARK  Name = ZINC36591515
REMARK  10 active torsions:
REMARK  status: ('A' for Active; 'I' for Inactive)
REMARK    1  A    between atoms: C_1  and  C_2
REMARK    2  A    between atoms: C_2  and  C_3
REMARK    3  A    between atoms: C_2  and  C_4
REMARK    4  A    between atoms: C_2  and  N_5
REMARK    5  A    between atoms: N_5  and  C_6
REMARK    6  A    between atoms: C_6  and  C_8
REMARK    7  A    between atoms: C_6  and  C_17
REMARK    8  A    between atoms: C_11  and  N_14
REMARK    9  A    between atoms: N_19  and  C_20
REMARK   10  A    between atoms: C_26  and  C_28
REMARK                            x       y       z     vdW  Elec       q    Type
REMARK                         _______ _______ _______ _____ _____    ______ ____
ROOT
ATOM      1  C   UNL     1       1.455  -0.479  -2.660  0.00  0.00    +0.193 C 
ENDROOT
BRANCH   1   2
ATOM      2  C   UNL     1       1.785   0.334  -1.435  0.00  0.00    -0.018 A 
ATOM      3  C   UNL     1       0.850   0.478  -0.428  0.00  0.00    +0.008 A 
ATOM      4  C   UNL     1       1.153   1.224   0.696  0.00  0.00    +0.033 A 
ATOM      5  C   UNL     1       2.392   1.826   0.812  0.00  0.00    +0.126 A 
ATOM      6  C   UNL     1       3.328   1.681  -0.195  0.00  0.00    +0.033 A 
ATOM      7  C   UNL     1       3.026   0.931  -1.316  0.00  0.00    +0.008 A 
BRANCH   5   8
ATOM      8  N   UNL     1       2.716   2.625   2.015  0.00  0.00    +0.056 N 
ATOM      9  O   UNL     1       1.897   2.752   2.895  0.00  0.00    -0.126 OA
ATOM     10  O   UNL     1       3.800   3.151   2.117  0.00  0.00    -0.126 OA
ENDBRANCH   5   8
ENDBRANCH   1   2
BRANCH   1  11
ATOM     11  C   UNL     1       0.607   0.344  -3.596  0.00  0.00    +0.238 C 
ATOM     12  O   UNL     1      -0.186   1.145  -3.149  0.00  0.00    -0.273 OA
ATOM     13  N   UNL     1       0.731   0.189  -4.929  0.00  0.00    -0.311 N 
ATOM     14  H   UNL     1       1.365  -0.452  -5.286  0.00  0.00    +0.149 HD
BRANCH  13  15
ATOM     15  C   UNL     1      -0.093   0.989  -5.839  0.00  0.00    +0.073 C 
ATOM     16  C   UNL     1      -1.448   0.306  -6.033  0.00  0.00    +0.022 C 
ATOM     17  C   UNL     1      -2.309   1.141  -6.983  0.00  0.00    +0.002 C 
ATOM     18  C   UNL     1      -1.602   1.266  -8.334  0.00  0.00    +0.000 C 
ATOM     19  C   UNL     1      -0.247   1.949  -8.140  0.00  0.00    +0.002 C 
ATOM     20  C   UNL     1       0.614   1.114  -7.190  0.00  0.00    +0.022 C 
ENDBRANCH  13  15
ENDBRANCH   1  11
BRANCH   1  21
ATOM     21  N   UNL     1       0.718  -1.682  -2.264  0.00  0.00    -0.279 N 
ATOM     22  C   UNL     1      -0.345  -2.089  -2.985  0.00  0.00    +0.237 C 
ATOM     23  O   UNL     1      -0.406  -3.233  -3.383  0.00  0.00    -0.274 OA
BRANCH  22  24
ATOM     24  C   UNL     1      -1.459  -1.123  -3.297  0.00  0.00    +0.159 C 
ATOM     25  C   UNL     1      -2.354  -0.920  -2.054  0.00  0.00    +0.041 C 
ATOM     26  C   UNL     1      -3.466  -1.968  -2.292  0.00  0.00    +0.098 C 
ATOM     27  C   UNL     1      -3.473  -2.167  -3.791  0.00  0.00    +0.214 C 
ATOM     28  O   UNL     1      -4.371  -2.690  -4.418  0.00  0.00    -0.276 OA
ATOM     29  N   UNL     1      -2.340  -1.680  -4.330  0.00  0.00    -0.304 N 
ATOM     30  H   UNL     1      -2.132  -1.693  -5.277  0.00  0.00    +0.149 HD
ENDBRANCH  22  24
BRANCH  21  32
ATOM     31  C   UNL     1       2.352  -1.765  -0.445  0.00  0.00    +0.031 C 
ATOM     32  C   UNL     1       1.137  -2.442  -1.083  0.00  0.00    +0.030 C 
ATOM     33  C   UNL     1       1.507  -3.867  -1.499  0.00  0.00    +0.031 C 
ATOM     34  C   UNL     1      -0.011  -2.487  -0.072  0.00  0.00    +0.031 C 
ENDBRANCH  21  32
ENDBRANCH   1  21
TORSDOF 7
