REMARK  Name = ZINC34830611
REMARK  7 active torsions:
REMARK  status: ('A' for Active; 'I' for Inactive)
REMARK    1  A    between atoms: C_1  and  C_2
REMARK    2  A    between atoms: C_7  and  C_8
REMARK    3  A    between atoms: N_17  and  C_18
REMARK    4  A    between atoms: C_18  and  C_19
REMARK    5  A    between atoms: C_19  and  C_20
REMARK    6  A    between atoms: N_26  and  S_29
REMARK    7  A    between atoms: S_29  and  C_32
REMARK                            x       y       z     vdW  Elec       q    Type
REMARK                         _______ _______ _______ _____ _____    ______ ____
ROOT
ATOM      1  C   UNL     1      -1.580  -2.422   4.640  0.00  0.00    +0.077 C 
ENDROOT
BRANCH   1   2
ATOM      2  C   UNL     1      -2.997  -2.931   4.578  0.00  0.00    +0.214 C 
ATOM      3  O   UNL     1      -3.763  -2.494   3.746  0.00  0.00    -0.276 OA
ATOM      4  N   UNL     1      -3.413  -3.873   5.449  0.00  0.00    -0.300 N 
ATOM      5  C   UNL     1      -2.478  -4.402   6.470  0.00  0.00    +0.109 C 
ATOM      6  C   UNL     1      -2.760  -3.799   7.782  0.00  0.00    +0.036 C 
ATOM      7  C   UNL     1      -4.205  -4.065   8.236  0.00  0.00    +0.111 C 
ATOM      8  N   UNL     1      -5.064  -3.156   7.532  0.00  0.00    -0.175 NA
ATOM      9  C   UNL     1      -5.736  -3.529   6.257  0.00  0.00    +0.128 C 
ATOM     10  C   UNL     1      -4.763  -4.358   5.389  0.00  0.00    +0.125 C 
BRANCH   8  11
ATOM     11  S   UNL     1      -5.315  -1.644   8.157  0.00  0.00    +0.061 S 
ATOM     12  O   UNL     1      -6.557  -1.190   7.636  0.00  0.00    -0.153 OA
ATOM     13  O   UNL     1      -5.063  -1.735   9.553  0.00  0.00    -0.153 OA
BRANCH  11  14
ATOM     14  C   UNL     1      -4.072  -0.590   7.488  0.00  0.00    +0.105 A 
ATOM     15  C   UNL     1      -2.864  -0.443   8.144  0.00  0.00    +0.028 A 
ATOM     16  C   UNL     1      -1.889   0.385   7.620  0.00  0.00    +0.002 A 
ATOM     17  C   UNL     1      -2.121   1.064   6.438  0.00  0.00    +0.000 A 
ATOM     18  C   UNL     1      -3.329   0.916   5.782  0.00  0.00    +0.002 A 
ATOM     19  C   UNL     1      -4.302   0.086   6.304  0.00  0.00    +0.028 A 
ENDBRANCH  11  14
ENDBRANCH   8  11
ENDBRANCH   1   2
BRANCH   1  20
ATOM     20  C   UNL     1      -1.369  -1.368   3.551  0.00  0.00    -0.068 C 
BRANCH  20  29
ATOM     21  C   UNL     1       0.243   0.050   2.492  0.00  0.00    -0.006 C 
ATOM     22  C   UNL     1       1.644   0.640   2.620  0.00  0.00    -0.047 A 
ATOM     23  C   UNL     1       2.341   1.229   1.568  0.00  0.00    +0.010 A 
ATOM     24  C   UNL     1       3.583   1.725   1.772  0.00  0.00    +0.045 A 
ATOM     25  S   UNL     1       3.839   1.376   3.506  0.00  0.00    -0.101 S 
ATOM     26  C   UNL     1       2.280   0.602   3.825  0.00  0.00    -0.010 A 
ATOM     27  C   UNL     1       1.740   0.030   5.095  0.00  0.00    +0.024 C 
ATOM     28  C   UNL     1       0.230  -0.194   4.897  0.00  0.00    -0.072 C 
ATOM     29  N   UNL     1       0.012  -0.871   3.611  0.00  0.00    +0.388 N 
ATOM     30  H   UNL     1       0.648  -1.651   3.536  0.00  0.00    -0.080 HD
BRANCH  21  37
ATOM     31  C   UNL     1      -0.648   1.422   0.111  0.00  0.00    +0.044 C 
ATOM     32  C   UNL     1      -0.299  -0.043   0.050  0.00  0.00    -0.049 A 
ATOM     33  C   UNL     1      -0.400  -0.728  -1.146  0.00  0.00    +0.003 A 
ATOM     34  C   UNL     1      -0.080  -2.072  -1.202  0.00  0.00    +0.000 A 
ATOM     35  C   UNL     1       0.342  -2.730  -0.061  0.00  0.00    +0.000 A 
ATOM     36  C   UNL     1       0.443  -2.044   1.134  0.00  0.00    +0.002 A 
ATOM     37  C   UNL     1       0.127  -0.699   1.189  0.00  0.00    -0.054 A 
ENDBRANCH  21  37
ENDBRANCH  20  29
ENDBRANCH   1  20
TORSDOF 6
