REMARK  Name = ZINC01450043
REMARK  8 active torsions:
REMARK  status: ('A' for Active; 'I' for Inactive)
REMARK    1  A    between atoms: C_1  and  C_2
REMARK    2  A    between atoms: C_2  and  C_3
REMARK    3  A    between atoms: C_3  and  C_5
REMARK    4  A    between atoms: C_3  and  N_6
REMARK    5  A    between atoms: C_10  and  C_11
REMARK    6  A    between atoms: C_12  and  N_23
REMARK    7  A    between atoms: C_15  and  C_22
REMARK    8  A    between atoms: N_26  and  C_29
REMARK                            x       y       z     vdW  Elec       q    Type
REMARK                         _______ _______ _______ _____ _____    ______ ____
ROOT
ATOM      1  C   UNL     1       4.774   0.181   0.096  0.00  0.00    +0.081 A 
ATOM      2  C   UNL     1       4.827   1.549   0.453  0.00  0.00    +0.136 A 
ATOM      3  N   UNL     1       3.706   2.253   0.511  0.00  0.00    -0.213 NA
ATOM      4  C   UNL     1       2.521   1.705   0.240  0.00  0.00    +0.145 A 
ATOM      5  C   UNL     1       1.365   2.502   0.318  0.00  0.00    -0.007 A 
ATOM      6  C   UNL     1       0.148   1.951   0.044  0.00  0.00    +0.008 A 
ATOM      7  C   UNL     1       0.067   0.597  -0.310  0.00  0.00    +0.019 A 
ATOM      8  C   UNL     1       1.189  -0.154  -0.381  0.00  0.00    +0.096 A 
ATOM      9  N   UNL     1       2.410   0.388  -0.109  0.00  0.00    -0.267 N 
ATOM     10  C   UNL     1       3.510  -0.390  -0.188  0.00  0.00    +0.267 A 
ATOM     11  O   UNL     1       3.417  -1.565  -0.499  0.00  0.00    -0.267 OA
ATOM     12  C   UNL     1       1.470   3.956   0.700  0.00  0.00    +0.047 C 
ENDROOT
BRANCH   1  17
ATOM     13  N   UNL     1       9.104  -0.214  -1.803  0.00  0.00    -0.252 N 
ATOM     14  C   UNL     1       8.268  -0.791  -0.959  0.00  0.00    +0.259 C 
ATOM     15  O   UNL     1       8.583  -1.803  -0.358  0.00  0.00    -0.269 OA
ATOM     16  C   UNL     1       6.986  -0.199  -0.774  0.00  0.00    +0.077 C 
ATOM     17  C   UNL     1       5.953  -0.597   0.026  0.00  0.00    +0.037 C 
ATOM     18  S   UNL     1       7.099   1.210  -1.868  0.00  0.00    -0.061 S 
ATOM     19  C   UNL     1       8.757   0.913  -2.464  0.00  0.00    +0.121 C 
ATOM     20  S   UNL     1       9.674   1.826  -3.585  0.00  0.00    -0.027 S 
BRANCH  13  21
ATOM     21  C   UNL     1      10.429  -0.800  -2.021  0.00  0.00    +0.080 C 
ATOM     22  C   UNL     1      10.588  -1.166  -3.498  0.00  0.00    +0.028 C 
BRANCH  21  24
ATOM     23  C   UNL     1      11.427   0.486  -0.125  0.00  0.00    +0.006 C 
ATOM     24  C   UNL     1      11.506   0.214  -1.629  0.00  0.00    +0.019 C 
ENDBRANCH  21  24
ENDBRANCH  13  21
ENDBRANCH   1  17
BRANCH   2  25
ATOM     25  N   UNL     1       6.036   2.145   0.739  0.00  0.00    -0.312 N 
ATOM     26  C   UNL     1       6.643   1.555   1.941  0.00  0.00    +0.125 C 
ATOM     27  C   UNL     1       8.016   2.187   2.178  0.00  0.00    +0.124 C 
ATOM     28  N   UNL     1       7.864   3.640   2.328  0.00  0.00    -0.327 N 
ATOM     29  C   UNL     1       7.258   4.230   1.126  0.00  0.00    +0.124 C 
ATOM     30  C   UNL     1       5.884   3.599   0.889  0.00  0.00    +0.125 C 
BRANCH  28  31
ATOM     31  C   UNL     1       9.090   4.245   2.618  0.00  0.00    +0.030 A 
ATOM     32  C   UNL     1       9.577   5.258   1.802  0.00  0.00    +0.023 A 
ATOM     33  C   UNL     1      10.787   5.856   2.094  0.00  0.00    +0.002 A 
ATOM     34  C   UNL     1      11.518   5.440   3.192  0.00  0.00    +0.000 A 
ATOM     35  C   UNL     1      11.039   4.428   4.003  0.00  0.00    +0.002 A 
ATOM     36  C   UNL     1       9.827   3.829   3.719  0.00  0.00    +0.023 A 
ENDBRANCH  28  31
ENDBRANCH   2  25
TORSDOF 5
