REMARK  Name = ZINC38568581
REMARK  3 active torsions:
REMARK  status: ('A' for Active; 'I' for Inactive)
REMARK    1  A    between atoms: C_9  and  C_12
REMARK    2  A    between atoms: N_14  and  C_15
REMARK    3  A    between atoms: C_15  and  C_16
REMARK                            x       y       z     vdW  Elec       q    Type
REMARK                         _______ _______ _______ _____ _____    ______ ____
ROOT
ATOM      1  C   UNL     1       4.898  -2.639  -0.050  0.00  0.00    +0.257 C 
ATOM      2  O   UNL     1       5.739  -2.006   0.552  0.00  0.00    -0.272 OA
ATOM      3  N   UNL     1       5.136  -3.921  -0.391  0.00  0.00    -0.310 N 
ATOM      4  H   UNL     1       4.464  -4.428  -0.873  0.00  0.00    +0.149 HD
ENDROOT
BRANCH   1  13
ATOM      5  C   UNL     1      -0.017   1.378   0.010  0.00  0.00    +0.004 A 
ATOM      6  C   UNL     1       1.170   2.088   0.002  0.00  0.00    +0.004 A 
ATOM      7  C   UNL     1       2.378   1.418  -0.012  0.00  0.00    +0.049 A 
ATOM      8  C   UNL     1       2.404   0.031  -0.019  0.00  0.00    +0.163 A 
ATOM      9  C   UNL     1       1.212  -0.683  -0.014  0.00  0.00    +0.162 A 
ATOM     10  C   UNL     1       0.002  -0.004   0.002  0.00  0.00    +0.049 A 
ATOM     11  O   UNL     1       1.214  -2.043  -0.029  0.00  0.00    -0.484 OA
ATOM     12  C   UNL     1       2.441  -2.689   0.331  0.00  0.00    +0.283 C 
ATOM     13  C   UNL     1       3.587  -1.993  -0.416  0.00  0.00    +0.296 C 
ATOM     14  O   UNL     1       3.602  -0.615  -0.029  0.00  0.00    -0.473 OA
ENDBRANCH   1  13
BRANCH   3  15
ATOM     15  C   UNL     1       6.411  -4.550  -0.035  0.00  0.00    +0.138 C 
BRANCH  15  16
ATOM     16  C   UNL     1       6.424  -5.995  -0.536  0.00  0.00    +0.164 C 
ATOM     17  C   UNL     1       7.740  -6.708  -0.136  0.00  0.00    +0.196 C 
ATOM     18  O   UNL     1       7.883  -7.723  -1.151  0.00  0.00    -0.346 OA
ATOM     19  C   UNL     1       7.102  -7.309  -2.279  0.00  0.00    +0.171 C 
ATOM     20  O   UNL     1       6.490  -6.043  -1.981  0.00  0.00    -0.342 OA
ATOM     21  C   UNL     1       8.006  -7.162  -3.504  0.00  0.00    +0.065 C 
ATOM     22  C   UNL     1       7.168  -6.713  -4.703  0.00  0.00    +0.005 C 
ATOM     23  C   UNL     1       6.083  -7.754  -4.986  0.00  0.00    +0.000 C 
ATOM     24  C   UNL     1       5.178  -7.895  -3.760  0.00  0.00    +0.005 C 
ATOM     25  C   UNL     1       6.013  -8.346  -2.559  0.00  0.00    +0.065 C 
ENDBRANCH  15  16
ENDBRANCH   3  15
TORSDOF 3
