REMARK  Name = ZINC09912620
REMARK  5 active torsions:
REMARK  status: ('A' for Active; 'I' for Inactive)
REMARK    1  A    between atoms: C_8  and  C_30
REMARK    2  A    between atoms: C_11  and  C_12
REMARK    3  A    between atoms: C_11  and  N_53
REMARK    4  A    between atoms: C_15  and  C_25
REMARK    5  A    between atoms: C_18  and  C_20
REMARK                            x       y       z     vdW  Elec       q    Type
REMARK                         _______ _______ _______ _____ _____    ______ ____
ROOT
ATOM      1  C   UNL     1       1.630   7.813   0.762  0.00  0.00    +0.022 C 
ENDROOT
BRANCH   1  11
ATOM      2  C   UNL     1      -1.109   2.006   0.465  0.00  0.00    +0.000 A 
ATOM      3  C   UNL     1      -1.927   2.848   1.196  0.00  0.00    +0.000 A 
ATOM      4  C   UNL     1      -1.523   4.141   1.460  0.00  0.00    +0.002 A 
ATOM      5  C   UNL     1      -0.304   4.606   0.986  0.00  0.00    -0.061 A 
ATOM      6  C   UNL     1       0.507   3.768   0.250  0.00  0.00    -0.047 A 
ATOM      7  C   UNL     1       0.102   2.468  -0.009  0.00  0.00    +0.004 A 
ATOM      8  C   UNL     1       1.836   4.230  -0.291  0.00  0.00    +0.029 C 
ATOM      9  C   UNL     1       2.280   5.503   0.430  0.00  0.00    +0.024 C 
ATOM     10  C   UNL     1       0.093   6.024   1.299  0.00  0.00    -0.041 C 
ATOM     11  N   UNL     1       1.159   6.463   0.382  0.00  0.00    +0.396 N 
ATOM     12  H   UNL     1       0.786   6.496  -0.574  0.00  0.00    -0.080 HD
BRANCH   9  13
ATOM     13  C   UNL     1       3.476   6.091  -0.273  0.00  0.00    +0.197 C 
ATOM     14  O   UNL     1       3.318   6.839  -1.215  0.00  0.00    -0.278 OA
ATOM     15  N   UNL     1       4.721   5.787   0.145  0.00  0.00    -0.331 N 
ATOM     16  H   UNL     1       4.846   5.189   0.899  0.00  0.00    +0.145 HD
ATOM     17  H   UNL     1       5.490   6.166  -0.307  0.00  0.00    +0.145 HD
ENDBRANCH   9  13
ENDBRANCH   1  11
BRANCH   1  18
ATOM     18  C   UNL     1       0.460   8.762   0.764  0.00  0.00    +0.219 C 
ATOM     19  O   UNL     1      -0.625   8.389   0.368  0.00  0.00    -0.276 OA
ATOM     20  N   UNL     1       0.617  10.026   1.206  0.00  0.00    -0.184 N 
ATOM     21  C   UNL     1      -0.438  11.051   1.261  0.00  0.00    +0.172 C 
ATOM     22  C   UNL     1       0.285  12.284   1.839  0.00  0.00    +0.090 C 
ATOM     23  C   UNL     1       1.704  11.809   2.052  0.00  0.00    +0.075 C 
ATOM     24  N   UNL     1       1.804  10.573   1.690  0.00  0.00    -0.180 NA
BRANCH  23  25
ATOM     25  C   UNL     1       2.798  12.623   2.591  0.00  0.00    +0.035 A 
ATOM     26  C   UNL     1       4.116  12.271   2.823  0.00  0.00    +0.017 A 
ATOM     27  C   UNL     1       4.966  13.222   3.338  0.00  0.00    +0.008 A 
ATOM     28  C   UNL     1       4.487  14.464   3.610  0.00  0.00    +0.046 A 
ATOM     29  S   UNL     1       2.775  14.326   3.127  0.00  0.00    -0.095 S 
ENDBRANCH  23  25
BRANCH  21  30
ATOM     30  C   UNL     1      -1.554  10.614   2.175  0.00  0.00    +0.128 A 
ATOM     31  C   UNL     1      -2.866  10.823   1.969  0.00  0.00    +0.046 A 
ATOM     32  C   UNL     1      -3.550  10.249   3.065  0.00  0.00    +0.041 A 
ATOM     33  C   UNL     1      -2.613   9.731   3.880  0.00  0.00    +0.195 A 
ATOM     34  O   UNL     1      -1.406   9.955   3.336  0.00  0.00    -0.466 OA
ENDBRANCH  21  30
ENDBRANCH   1  18
TORSDOF 5
