REMARK  Name = ZINC64622470
REMARK  8 active torsions:
REMARK  status: ('A' for Active; 'I' for Inactive)
REMARK    1  A    between atoms: C_1  and  C_2
REMARK    2  A    between atoms: C_5  and  O_8
REMARK    3  A    between atoms: O_8  and  C_9
REMARK    4  A    between atoms: C_9  and  C_10
REMARK    5  A    between atoms: C_12  and  C_16
REMARK    6  A    between atoms: N_18  and  C_19
REMARK    7  A    between atoms: N_18  and  C_20
REMARK    8  A    between atoms: C_20  and  C_21
REMARK                            x       y       z     vdW  Elec       q    Type
REMARK                         _______ _______ _______ _____ _____    ______ ____
ROOT
ATOM      1  C   UNL     1       1.045  -9.276   2.487  0.00  0.00    +0.240 C 
ATOM      2  O   UNL     1       0.162  -9.618   3.244  0.00  0.00    -0.273 OA
ATOM      3  N   UNL     1       2.310  -9.691   2.696  0.00  0.00    -0.299 N 
ATOM      4  C   UNL     1       3.377  -9.277   1.781  0.00  0.00    +0.132 C 
ENDROOT
BRANCH   1   7
ATOM      5  C   UNL     1       0.091  -6.185   1.225  0.00  0.00    +0.161 C 
ATOM      6  C   UNL     1       1.091  -6.945   1.616  0.00  0.00    +0.051 C 
ATOM      7  C   UNL     1       0.728  -8.386   1.312  0.00  0.00    +0.204 C 
ATOM      8  N   UNL     1      -0.739  -8.310   1.084  0.00  0.00    -0.140 NA
ATOM      9  O   UNL     1      -0.922  -6.905   0.686  0.00  0.00    -0.407 OA
ATOM     10  H   UNL     1      -1.248  -8.512   1.932  0.00  0.00    +0.168 HD
BRANCH   5  11
ATOM     11  C   UNL     1       0.072  -4.684   1.367  0.00  0.00    +0.304 C 
BRANCH  11  12
ATOM     12  O   UNL     1       0.057  -4.083   0.071  0.00  0.00    -0.483 OA
BRANCH  12  17
ATOM     13  C   UNL     1      -0.018   1.503   0.010  0.00  0.00    +0.065 C 
ATOM     14  C   UNL     1       0.002  -0.004   0.002  0.00  0.00    +0.038 A 
ATOM     15  C   UNL     1       0.005  -0.679  -1.204  0.00  0.00    +0.026 A 
ATOM     16  C   UNL     1       0.024  -2.065  -1.204  0.00  0.00    +0.049 A 
ATOM     17  C   UNL     1       0.039  -2.725   0.021  0.00  0.00    +0.139 A 
ATOM     18  C   UNL     1       0.035  -1.978   1.189  0.00  0.00    +0.156 A 
ATOM     19  N   UNL     1       0.022  -0.660   1.145  0.00  0.00    -0.257 NA
ENDBRANCH  12  17
ENDBRANCH  11  12
ENDBRANCH   5  11
ENDBRANCH   1   7
BRANCH   3  20
ATOM     20  C   UNL     1       2.618 -10.556   3.837  0.00  0.00    +0.154 C 
BRANCH  20  21
ATOM     21  C   UNL     1       2.478 -12.021   3.420  0.00  0.00    +0.192 C 
ATOM     22  N   UNL     1       3.352 -12.304   2.275  0.00  0.00    -0.362 N 
ATOM     23  C   UNL     1       2.593 -12.685   1.288  0.00  0.00    +0.060 A 
ATOM     24  C   UNL     1       2.880 -13.097  -0.093  0.00  0.00    +0.027 A 
ATOM     25  C   UNL     1       1.865 -13.446  -0.907  0.00  0.00    +0.002 A 
ATOM     26  C   UNL     1       0.521 -13.436  -0.492  0.00  0.00    +0.002 A 
ATOM     27  C   UNL     1       0.148 -13.075   0.752  0.00  0.00    +0.027 A 
ATOM     28  C   UNL     1       1.171 -12.675   1.728  0.00  0.00    +0.060 A 
ATOM     29  N   UNL     1       1.106 -12.287   2.969  0.00  0.00    -0.362 N 
ATOM     30  H   UNL     1       4.319 -12.222   2.256  0.00  0.00    +0.162 HD
ATOM     31  H   UNL     1       0.300 -12.193   3.500  0.00  0.00    +0.162 HD
ENDBRANCH  20  21
ENDBRANCH   3  20
TORSDOF 6
