REMARK  Name = ZINC53473222
REMARK  3 active torsions:
REMARK  status: ('A' for Active; 'I' for Inactive)
REMARK    1  A    between atoms: C_4  and  C_7
REMARK    2  A    between atoms: C_7  and  N_11
REMARK    3  A    between atoms: C_12  and  C_14
REMARK                            x       y       z     vdW  Elec       q    Type
REMARK                         _______ _______ _______ _____ _____    ______ ____
ROOT
ATOM      1  N   UNL     1       4.818   0.081  -0.586  0.00  0.00    -0.301 N 
ATOM      2  C   UNL     1       5.112   1.287  -0.060  0.00  0.00    +0.261 C 
ATOM      3  O   UNL     1       4.519   1.681   0.926  0.00  0.00    -0.269 OA
ATOM      4  H   UNL     1       5.340  -0.266  -1.326  0.00  0.00    +0.150 HD
ENDROOT
BRANCH   2   5
ATOM      5  C   UNL     1       6.152   2.128  -0.680  0.00  0.00    +0.105 A 
ATOM      6  C   UNL     1       6.434   3.335  -0.130  0.00  0.00    +0.039 A 
ATOM      7  C   UNL     1       7.465   4.177  -0.738  0.00  0.00    -0.011 A 
ATOM      8  C   UNL     1       7.796   5.428  -0.213  0.00  0.00    +0.009 A 
ATOM      9  C   UNL     1       8.775   6.183  -0.822  0.00  0.00    +0.001 A 
ATOM     10  C   UNL     1       9.433   5.713  -1.951  0.00  0.00    +0.001 A 
ATOM     11  C   UNL     1       9.121   4.481  -2.486  0.00  0.00    +0.014 A 
ATOM     12  C   UNL     1       8.136   3.700  -1.887  0.00  0.00    +0.046 A 
ATOM     13  C   UNL     1       7.766   2.379  -2.417  0.00  0.00    +0.257 A 
ATOM     14  O   UNL     1       8.324   1.936  -3.405  0.00  0.00    -0.267 OA
ATOM     15  N   UNL     1       6.810   1.661  -1.797  0.00  0.00    -0.318 N 
ATOM     16  H   UNL     1       6.574   0.789  -2.151  0.00  0.00    +0.169 HD
ENDBRANCH   2   5
BRANCH   1  17
ATOM     17  C   UNL     1       3.709  -0.706  -0.040  0.00  0.00    +0.060 C 
ATOM     18  C   UNL     1       3.936  -1.172   1.407  0.00  0.00    +0.030 C 
ATOM     19  C   UNL     1       4.604  -2.425   0.816  0.00  0.00    +0.005 C 
ATOM     20  C   UNL     1       3.750  -2.189  -0.442  0.00  0.00    +0.030 C 
BRANCH  17  24
ATOM     21  C   UNL     1      -0.096   1.133  -0.666  0.00  0.00    +0.000 A 
ATOM     22  C   UNL     1       0.002  -0.005   0.112  0.00  0.00    +0.000 A 
ATOM     23  C   UNL     1       1.233  -0.601   0.314  0.00  0.00    +0.006 A 
ATOM     24  C   UNL     1       2.367  -0.057  -0.262  0.00  0.00    -0.024 A 
ATOM     25  C   UNL     1       2.269   1.081  -1.040  0.00  0.00    +0.006 A 
ATOM     26  C   UNL     1       1.038   1.677  -1.241  0.00  0.00    +0.000 A 
ENDBRANCH  17  24
ENDBRANCH   1  17
TORSDOF 3
