REMARK  Name = ZINC07918856
REMARK  6 active torsions:
REMARK  status: ('A' for Active; 'I' for Inactive)
REMARK    1  A    between atoms: C_5  and  N_7
REMARK    2  A    between atoms: C_8  and  C_10
REMARK    3  A    between atoms: C_10  and  C_26
REMARK    4  A    between atoms: C_11  and  C_12
REMARK    5  A    between atoms: N_16  and  C_17
REMARK    6  A    between atoms: C_20  and  N_23
REMARK                            x       y       z     vdW  Elec       q    Type
REMARK                         _______ _______ _______ _____ _____    ______ ____
ROOT
ATOM      1  C   UNL     1      -4.511   2.014   2.947  0.00  0.00    +0.116 C 
ATOM      2  C   UNL     1      -3.471   2.067   2.033  0.00  0.00    +0.050 C 
ENDROOT
BRANCH   2   3
ATOM      3  C   UNL     1      -3.495   1.246   0.890  0.00  0.00    +0.048 A 
ATOM      4  C   UNL     1      -4.552   0.446   0.476  0.00  0.00    +0.027 A 
ATOM      5  C   UNL     1      -4.144  -0.196  -0.694  0.00  0.00    +0.020 A 
ATOM      6  C   UNL     1      -2.881   0.210  -0.979  0.00  0.00    +0.092 A 
ATOM      7  N   UNL     1      -2.475   1.089  -0.027  0.00  0.00    -0.316 N 
BRANCH   7   8
ATOM      8  C   UNL     1      -1.228   1.726   0.020  0.00  0.00    +0.047 A 
ATOM      9  C   UNL     1      -0.062   0.972   0.011  0.00  0.00    +0.028 A 
ATOM     10  C   UNL     1       1.167   1.603   0.052  0.00  0.00    +0.035 A 
ATOM     11  C   UNL     1       1.235   2.983   0.107  0.00  0.00    +0.126 A 
ATOM     12  C   UNL     1       0.075   3.736   0.122  0.00  0.00    +0.035 A 
ATOM     13  C   UNL     1      -1.156   3.111   0.082  0.00  0.00    +0.028 A 
BRANCH  11  14
ATOM     14  N   UNL     1       2.553   3.656   0.150  0.00  0.00    +0.056 N 
ATOM     15  O   UNL     1       3.575   2.994   0.137  0.00  0.00    -0.126 OA
ATOM     16  O   UNL     1       2.615   4.871   0.199  0.00  0.00    -0.126 OA
ENDBRANCH  11  14
ENDBRANCH   7   8
ENDBRANCH   2   3
BRANCH   1  18
ATOM     17  N   UNL     1      -5.587   2.937   4.932  0.00  0.00    -0.280 N 
ATOM     18  C   UNL     1      -4.575   2.989   4.043  0.00  0.00    +0.259 C 
ATOM     19  O   UNL     1      -3.716   3.844   4.148  0.00  0.00    -0.269 OA
ATOM     20  H   UNL     1      -6.308   2.299   4.811  0.00  0.00    +0.155 HD
BRANCH  17  25
ATOM     21  C   UNL     1      -5.107   5.944   6.993  0.00  0.00    +0.002 A 
ATOM     22  C   UNL     1      -5.617   5.516   8.204  0.00  0.00    +0.002 A 
ATOM     23  C   UNL     1      -6.118   4.234   8.333  0.00  0.00    +0.022 A 
ATOM     24  C   UNL     1      -6.109   3.375   7.250  0.00  0.00    +0.062 A 
ATOM     25  C   UNL     1      -5.597   3.803   6.031  0.00  0.00    +0.052 A 
ATOM     26  C   UNL     1      -5.090   5.090   5.907  0.00  0.00    +0.025 A 
ATOM     27 CL   UNL     1      -6.737   1.765   7.412  0.00  0.00    -0.082 Cl
ENDBRANCH  17  25
ENDBRANCH   1  18
BRANCH   1  28
ATOM     28  C   UNL     1      -5.522   1.008   2.824  0.00  0.00    +0.104 C 
ATOM     29  N   UNL     1      -6.324   0.209   2.726  0.00  0.00    -0.191 NA
ENDBRANCH   1  28
TORSDOF 6
