REMARK  Name = ZINC09762630
REMARK  6 active torsions:
REMARK  status: ('A' for Active; 'I' for Inactive)
REMARK    1  A    between atoms: C_1  and  C_2
REMARK    2  A    between atoms: C_2  and  C_3
REMARK    3  A    between atoms: C_3  and  N_4
REMARK    4  A    between atoms: N_11  and  C_14
REMARK    5  A    between atoms: C_14  and  C_15
REMARK    6  A    between atoms: C_28  and  C_30
REMARK                            x       y       z     vdW  Elec       q    Type
REMARK                         _______ _______ _______ _____ _____    ______ ____
ROOT
ATOM      1  C   UNL     1      -1.982   2.442   1.139  0.00  0.00    +0.240 C 
ATOM      2  O   UNL     1      -2.561   2.456   0.073  0.00  0.00    -0.273 OA
ATOM      3  N   UNL     1      -0.712   1.996   1.211  0.00  0.00    -0.265 N 
ATOM      4  C   UNL     1      -0.031   1.975   2.437  0.00  0.00    +0.058 A 
ATOM      5  C   UNL     1      -0.346   1.034   3.403  0.00  0.00    +0.025 A 
ATOM      6  C   UNL     1       0.373   0.993   4.584  0.00  0.00    +0.002 A 
ATOM      7  C   UNL     1       1.404   1.888   4.803  0.00  0.00    +0.002 A 
ATOM      8  C   UNL     1       1.718   2.837   3.848  0.00  0.00    +0.025 A 
ATOM      9  C   UNL     1       0.996   2.891   2.667  0.00  0.00    +0.055 A 
ATOM     10  N   UNL     1       1.278   3.858   1.696  0.00  0.00    -0.284 N 
ATOM     11  C   UNL     1       1.438   3.505   0.402  0.00  0.00    +0.219 C 
ATOM     12  O   UNL     1       1.600   4.361  -0.441  0.00  0.00    -0.275 OA
ATOM     13  C   UNL     1       1.417   2.054  -0.000  0.00  0.00    +0.118 C 
ATOM     14  C   UNL     1      -0.019   1.526   0.010  0.00  0.00    +0.087 C 
ATOM     15  C   UNL     1       0.002  -0.004   0.002  0.00  0.00    +0.029 C 
ATOM     16  H   UNL     1       1.360   4.790   1.954  0.00  0.00    +0.155 HD
ENDROOT
BRANCH   1  17
ATOM     17  C   UNL     1      -2.683   2.924   2.384  0.00  0.00    +0.223 C 
BRANCH  17  25
ATOM     18  N   UNL     1      -6.213   3.297   1.683  0.00  0.00    -0.292 N 
ATOM     19  C   UNL     1      -5.796   4.603   1.433  0.00  0.00    +0.070 A 
ATOM     20  C   UNL     1      -6.460   5.754   1.035  0.00  0.00    +0.028 A 
ATOM     21  C   UNL     1      -5.755   6.930   0.868  0.00  0.00    +0.002 A 
ATOM     22  C   UNL     1      -4.390   6.965   1.094  0.00  0.00    +0.002 A 
ATOM     23  C   UNL     1      -3.721   5.824   1.491  0.00  0.00    +0.028 A 
ATOM     24  C   UNL     1      -4.420   4.639   1.668  0.00  0.00    +0.070 A 
ATOM     25  N   UNL     1      -4.042   3.353   2.043  0.00  0.00    -0.283 N 
ATOM     26  C   UNL     1      -5.138   2.572   2.046  0.00  0.00    +0.331 A 
ATOM     27  O   UNL     1      -5.156   1.389   2.334  0.00  0.00    -0.246 OA
BRANCH  18  28
ATOM     28  C   UNL     1      -7.585   2.799   1.568  0.00  0.00    +0.127 C 
BRANCH  28  30
ATOM     29  C   UNL     1      -9.736   2.444   2.789  0.00  0.00    +0.005 C 
ATOM     30  C   UNL     1      -8.302   2.965   2.909  0.00  0.00    +0.018 C 
ENDBRANCH  28  30
ENDBRANCH  18  28
ENDBRANCH  17  25
ENDBRANCH   1  17
TORSDOF 4
