REMARK  Name = ZINC39658334
REMARK  7 active torsions:
REMARK  status: ('A' for Active; 'I' for Inactive)
REMARK    1  A    between atoms: C_4  and  C_7
REMARK    2  A    between atoms: C_7  and  S_8
REMARK    3  A    between atoms: S_8  and  C_9
REMARK    4  A    between atoms: C_9  and  C_10
REMARK    5  A    between atoms: C_10  and  N_11
REMARK    6  A    between atoms: C_12  and  C_14
REMARK    7  A    between atoms: C_25  and  C_27
REMARK                            x       y       z     vdW  Elec       q    Type
REMARK                         _______ _______ _______ _____ _____    ______ ____
ROOT
ATOM      1  C   UNL     1       9.681  -4.043   3.622  0.00  0.00    +0.100 C 
ATOM      2  C   UNL     1       9.442  -5.448   3.025  0.00  0.00    +0.121 C 
ATOM      3  N   UNL     1      10.420  -6.321   3.717  0.00  0.00    -0.296 N 
ATOM      4  C   UNL     1      10.420  -5.836   5.118  0.00  0.00    +0.115 C 
ATOM      5  C   UNL     1      10.323  -4.302   4.996  0.00  0.00    -0.004 C 
ATOM      6  C   UNL     1      11.714  -3.679   5.055  0.00  0.00    -0.010 C 
ATOM      7  C   UNL     1      12.309  -3.900   6.449  0.00  0.00    -0.082 C 
ATOM      8  N   UNL     1      11.434  -3.290   7.458  0.00  0.00    +0.379 N 
ATOM      9  C   UNL     1      10.127  -3.958   7.457  0.00  0.00    -0.082 C 
ATOM     10  C   UNL     1       9.440  -3.740   6.106  0.00  0.00    -0.010 C 
ATOM     11  C   UNL     1      11.145  -7.328   3.192  0.00  0.00    +0.249 C 
ATOM     12  O   UNL     1      11.912  -7.957   3.895  0.00  0.00    -0.270 OA
ATOM     13  H   UNL     1      11.858  -3.384   8.369  0.00  0.00    -0.086 HD
ATOM     14  H   UNL     1      11.310  -2.312   7.247  0.00  0.00    -0.086 HD
ENDROOT
BRANCH  11  15
ATOM     15  C   UNL     1      11.008  -7.668   1.761  0.00  0.00    +0.073 A 
ATOM     16  C   UNL     1      11.832  -7.056   0.812  0.00  0.00    +0.054 A 
ATOM     17  C   UNL     1      11.699  -7.379  -0.524  0.00  0.00    +0.021 A 
ATOM     18  C   UNL     1      10.753  -8.305  -0.924  0.00  0.00    +0.003 A 
ATOM     19  C   UNL     1       9.933  -8.915   0.009  0.00  0.00    +0.021 A 
ATOM     20  C   UNL     1      10.059  -8.607   1.349  0.00  0.00    +0.054 A 
ATOM     21 CL   UNL     1       9.035  -9.379   2.519  0.00  0.00    -0.083 Cl
ATOM     22 CL   UNL     1      13.020  -5.892   1.312  0.00  0.00    -0.083 Cl
ENDBRANCH  11  15
BRANCH   1  24
ATOM     23  N   UNL     1       8.343  -1.966   3.724  0.00  0.00    -0.314 N 
ATOM     24  C   UNL     1       8.374  -3.312   3.783  0.00  0.00    +0.218 C 
ATOM     25  O   UNL     1       7.349  -3.934   3.967  0.00  0.00    -0.275 OA
ATOM     26  H   UNL     1       9.162  -1.468   3.577  0.00  0.00    +0.149 HD
BRANCH  23  27
ATOM     27  C   UNL     1       7.072  -1.254   3.880  0.00  0.00    +0.115 C 
BRANCH  27  28
ATOM     28  C   UNL     1       7.314   0.252   3.772  0.00  0.00    +0.088 C 
BRANCH  28  29
ATOM     29  S   UNL     1       5.739   1.133   3.966  0.00  0.00    -0.155 S 
BRANCH  29  30
ATOM     30  C   UNL     1       6.194   2.883   3.814  0.00  0.00    +0.104 C 
BRANCH  30  34
ATOM     31  C   UNL     1       2.699   5.304   4.223  0.00  0.00    +0.000 A 
ATOM     32  C   UNL     1       3.441   4.968   5.339  0.00  0.00    +0.000 A 
ATOM     33  C   UNL     1       4.572   4.184   5.207  0.00  0.00    +0.004 A 
ATOM     34  C   UNL     1       4.960   3.736   3.958  0.00  0.00    -0.038 A 
ATOM     35  C   UNL     1       4.218   4.072   2.842  0.00  0.00    +0.004 A 
ATOM     36  C   UNL     1       3.087   4.857   2.974  0.00  0.00    +0.000 A 
ENDBRANCH  30  34
ENDBRANCH  29  30
ENDBRANCH  28  29
ENDBRANCH  27  28
ENDBRANCH  23  27
ENDBRANCH   1  24
TORSDOF 7
