REMARK  Name = ZINC08229710
REMARK  10 active torsions:
REMARK  status: ('A' for Active; 'I' for Inactive)
REMARK    1  A    between atoms: C_1  and  C_2
REMARK    2  A    between atoms: C_2  and  C_3
REMARK    3  A    between atoms: C_3  and  C_4
REMARK    4  A    between atoms: C_4  and  C_5
REMARK    5  A    between atoms: C_8  and  N_11
REMARK    6  A    between atoms: C_12  and  S_16
REMARK    7  A    between atoms: S_16  and  C_17
REMARK    8  A    between atoms: C_17  and  C_19
REMARK    9  A    between atoms: C_17  and  C_20
REMARK   10  A    between atoms: N_25  and  C_26
REMARK                            x       y       z     vdW  Elec       q    Type
REMARK                         _______ _______ _______ _____ _____    ______ ____
ROOT
ATOM      1  N   UNL     1      -3.159  -5.535  -1.183  0.00  0.00    -0.187 N 
ATOM      2  C   UNL     1      -2.333  -4.548  -0.737  0.00  0.00    +0.215 A 
ATOM      3  N   UNL     1      -1.222  -5.130  -0.337  0.00  0.00    -0.101 NA
ATOM      4  N   UNL     1      -1.299  -6.402  -0.492  0.00  0.00    -0.022 NA
ATOM      5  N   UNL     1      -2.437  -6.728  -1.001  0.00  0.00    -0.038 NA
ENDROOT
BRANCH   1   9
ATOM      6  C   UNL     1      -7.000  -5.110  -2.747  0.00  0.00    -0.047 A 
ATOM      7  C   UNL     1      -6.158  -6.088  -3.242  0.00  0.00    +0.006 A 
ATOM      8  C   UNL     1      -4.885  -6.232  -2.726  0.00  0.00    +0.028 A 
ATOM      9  C   UNL     1      -4.451  -5.392  -1.709  0.00  0.00    +0.070 A 
ATOM     10  C   UNL     1      -5.301  -4.413  -1.211  0.00  0.00    +0.028 A 
ATOM     11  C   UNL     1      -6.571  -4.272  -1.734  0.00  0.00    +0.006 A 
BRANCH   6  12
ATOM     12  C   UNL     1      -8.389  -4.956  -3.313  0.00  0.00    +0.035 C 
BRANCH  12  13
ATOM     13  C   UNL     1      -9.361  -5.834  -2.522  0.00  0.00    +0.004 C 
BRANCH  13  15
ATOM     14  C   UNL     1     -11.743  -6.555  -2.305  0.00  0.00    +0.004 C 
ATOM     15  C   UNL     1     -10.771  -5.678  -3.096  0.00  0.00    -0.003 C 
ENDBRANCH  13  15
ENDBRANCH  12  13
ENDBRANCH   6  12
ENDBRANCH   1   9
BRANCH   2  16
ATOM     16  S   UNL     1      -2.680  -2.821  -0.709  0.00  0.00    -0.072 S 
BRANCH  16  17
ATOM     17  C   UNL     1      -1.135  -2.201   0.001  0.00  0.00    +0.137 C 
ATOM     18  C   UNL     1      -0.989  -2.717   1.434  0.00  0.00    +0.029 C 
BRANCH  17  19
ATOM     19  C   UNL     1      -1.156  -0.694   0.009  0.00  0.00    +0.234 C 
ATOM     20  O   UNL     1      -2.214  -0.102   0.023  0.00  0.00    -0.274 OA
ATOM     21  N   UNL     1       0.002  -0.004   0.002  0.00  0.00    -0.239 N 
ATOM     22  C   UNL     1      -0.016   1.344   0.009  0.00  0.00    +0.306 C 
ATOM     23  O   UNL     1      -1.077   1.937   0.018  0.00  0.00    -0.252 OA
ATOM     24  N   UNL     1       1.142   2.033   0.002  0.00  0.00    -0.302 N 
ATOM     25  C   UNL     1       1.122   3.498   0.010  0.00  0.00    +0.129 C 
ATOM     26  H   UNL     1       0.849  -0.478  -0.009  0.00  0.00    +0.159 HD
ATOM     27  H   UNL     1       1.988   1.560  -0.009  0.00  0.00    +0.150 HD
ENDBRANCH  17  19
ENDBRANCH  16  17
ENDBRANCH   2  16
TORSDOF 7
