REMARK  Name = ZINC39722353
REMARK  8 active torsions:
REMARK  status: ('A' for Active; 'I' for Inactive)
REMARK    1  A    between atoms: C_1  and  O_2
REMARK    2  A    between atoms: O_2  and  C_3
REMARK    3  A    between atoms: C_3  and  C_4
REMARK    4  A    between atoms: C_4  and  N_5
REMARK    5  A    between atoms: C_6  and  S_21
REMARK    6  A    between atoms: S_21  and  C_22
REMARK    7  A    between atoms: C_22  and  C_23
REMARK    8  A    between atoms: C_31  and  C_35
REMARK                            x       y       z     vdW  Elec       q    Type
REMARK                         _______ _______ _______ _____ _____    ______ ____
ROOT
ATOM      1  N   UNL     1       1.401  -2.532  -0.162  0.00  0.00    -0.265 N 
ATOM      2  C   UNL     1       0.696  -2.639  -1.426  0.00  0.00    +0.255 C 
ATOM      3  N   UNL     1       1.271  -3.617  -2.355  0.00  0.00    -0.243 NA
ATOM      4  C   UNL     1       2.514  -3.922  -2.258  0.00  0.00    +0.107 C 
ATOM      5  C   UNL     1       3.406  -3.429  -1.160  0.00  0.00    +0.069 C 
ATOM      6  C   UNL     1       2.717  -2.789   0.010  0.00  0.00    +0.251 C 
ATOM      7  O   UNL     1       3.301  -2.524   1.043  0.00  0.00    -0.270 OA
ATOM      8  C   UNL     1       4.716  -3.591  -1.300  0.00  0.00    -0.042 C 
ATOM      9  C   UNL     1       5.177  -4.253  -2.602  0.00  0.00    +0.079 C 
ATOM     10  S   UNL     1       3.588  -4.923  -3.247  0.00  0.00    -0.098 S 
ATOM     11  C   UNL     1       6.107  -5.408  -2.220  0.00  0.00    +0.019 C 
ATOM     12  C   UNL     1       7.233  -4.869  -1.334  0.00  0.00    +0.002 C 
ATOM     13  C   UNL     1       6.671  -4.356  -0.010  0.00  0.00    +0.004 C 
ATOM     14  C   UNL     1       5.747  -3.173  -0.256  0.00  0.00    +0.033 C 
ENDROOT
BRANCH   1  15
ATOM     15  C   UNL     1       0.633  -2.108   1.011  0.00  0.00    +0.139 C 
BRANCH  15  16
ATOM     16  C   UNL     1       0.673  -0.582   1.123  0.00  0.00    +0.178 C 
BRANCH  16  18
ATOM     17  C   UNL     1      -0.017   1.425   0.010  0.00  0.00    +0.194 C 
ATOM     18  O   UNL     1       0.002  -0.004   0.002  0.00  0.00    -0.381 OA
ENDBRANCH  16  18
ENDBRANCH  15  16
ENDBRANCH   1  15
BRANCH   2  19
ATOM     19  S   UNL     1       0.702  -1.013  -2.230  0.00  0.00    -0.107 S 
BRANCH  19  20
ATOM     20  C   UNL     1       2.464  -0.637  -2.447  0.00  0.00    +0.147 C 
BRANCH  20  21
ATOM     21  C   UNL     1       2.612   0.706  -3.113  0.00  0.00    +0.120 A 
ATOM     22  N   UNL     1       3.866   1.164  -3.367  0.00  0.00    -0.310 N 
ATOM     23  H   UNL     1       4.633   0.626  -3.119  0.00  0.00    +0.170 HD
ATOM     24  C   UNL     1       4.053   2.364  -3.965  0.00  0.00    +0.259 A 
ATOM     25  O   UNL     1       5.170   2.786  -4.199  0.00  0.00    -0.267 OA
ATOM     26  C   UNL     1       2.852   3.139  -4.320  0.00  0.00    +0.065 A 
ATOM     27  C   UNL     1       2.939   4.385  -4.939  0.00  0.00    +0.016 A 
ATOM     28  C   UNL     1       1.800   5.070  -5.252  0.00  0.00    +0.016 A 
ATOM     29  C   UNL     1       0.540   4.531  -4.957  0.00  0.00    +0.065 A 
ATOM     30  C   UNL     1       0.432   3.290  -4.340  0.00  0.00    +0.043 A 
ATOM     31  C   UNL     1       1.591   2.581  -4.016  0.00  0.00    +0.079 A 
ATOM     32  N   UNL     1       1.536   1.364  -3.419  0.00  0.00    -0.233 NA
BRANCH  29  33
ATOM     33  C   UNL     1      -0.681   5.288  -5.304  0.00  0.00    +0.387 C 
ATOM     34  O   UNL     1      -0.591   6.380  -5.846  0.00  0.00    -0.241 OA
ATOM     35  O   UNL     1      -1.782   4.821  -5.048  0.00  0.00    -0.241 OA
ENDBRANCH  29  33
ENDBRANCH  20  21
ENDBRANCH  19  20
ENDBRANCH   2  19
TORSDOF 7
