REMARK  Name = ZINC20215694
REMARK  7 active torsions:
REMARK  status: ('A' for Active; 'I' for Inactive)
REMARK    1  A    between atoms: C_1  and  N_2
REMARK    2  A    between atoms: N_2  and  C_3
REMARK    3  A    between atoms: N_2  and  C_4
REMARK    4  A    between atoms: C_7  and  C_10
REMARK    5  A    between atoms: C_14  and  C_17
REMARK    6  A    between atoms: C_17  and  S_18
REMARK    7  A    between atoms: S_18  and  C_19
REMARK                            x       y       z     vdW  Elec       q    Type
REMARK                         _______ _______ _______ _____ _____    ______ ____
ROOT
ATOM      1  C   UNL     1      -0.476  11.768   1.415  0.00  0.00    +0.094 C 
ATOM      2  N   UNL     1       0.852  12.053   0.826  0.00  0.00    +0.401 N 
ATOM      3  C   UNL     1       1.144  10.918  -0.080  0.00  0.00    -0.046 C 
ATOM      4  C   UNL     1      -0.076   9.981   0.058  0.00  0.00    +0.110 C 
ATOM      5  O   UNL     1      -0.633  10.334   1.346  0.00  0.00    -0.388 OA
ATOM      6  H   UNL     1       0.812  13.003   0.274  0.00  0.00    -0.081 HD
ATOM      7  H   UNL     1       1.601  12.126   1.628  0.00  0.00    -0.081 HD
ENDROOT
BRANCH   1  11
ATOM      8  C   UNL     1      -0.599  13.079   5.481  0.00  0.00    +0.029 A 
ATOM      9  C   UNL     1      -1.759  13.074   4.715  0.00  0.00    +0.023 A 
ATOM     10  C   UNL     1      -1.715  12.649   3.402  0.00  0.00    +0.006 A 
ATOM     11  C   UNL     1      -0.519  12.230   2.848  0.00  0.00    -0.036 A 
ATOM     12  C   UNL     1       0.635  12.229   3.609  0.00  0.00    +0.006 A 
ATOM     13  C   UNL     1       0.600  12.657   4.921  0.00  0.00    +0.023 A 
BRANCH   8  15
ATOM     14  C   UNL     1      -1.875  14.070   7.360  0.00  0.00    +0.129 C 
ATOM     15  N   UNL     1      -0.640  13.508   6.809  0.00  0.00    -0.336 N 
ATOM     16  C   UNL     1       0.554  13.396   7.652  0.00  0.00    +0.129 C 
ENDBRANCH   8  15
ENDBRANCH   1  11
BRANCH   4  17
ATOM     17  C   UNL     1       0.366   8.517   0.046  0.00  0.00    +0.107 C 
BRANCH  17  18
ATOM     18  S   UNL     1      -1.094   7.446   0.061  0.00  0.00    -0.082 S 
BRANCH  18  19
ATOM     19  C   UNL     1      -0.314   5.866   0.044  0.00  0.00    +0.211 A 
ATOM     20  N   UNL     1      -1.063   4.771   0.049  0.00  0.00    -0.201 NA
ATOM     21  C   UNL     1      -0.474   3.579   0.037  0.00  0.00    +0.162 A 
ATOM     22  C   UNL     1       0.936   3.531   0.018  0.00  0.00    +0.137 A 
ATOM     23  C   UNL     1       1.300   2.103   0.007  0.00  0.00    +0.029 A 
ATOM     24  C   UNL     1       2.516   1.423  -0.013  0.00  0.00    +0.012 A 
ATOM     25  C   UNL     1       2.529   0.045  -0.018  0.00  0.00    +0.001 A 
ATOM     26  C   UNL     1       1.339  -0.664  -0.005  0.00  0.00    +0.002 A 
ATOM     27  C   UNL     1       0.129  -0.004   0.015  0.00  0.00    +0.026 A 
ATOM     28  C   UNL     1       0.094   1.387   0.021  0.00  0.00    +0.050 A 
ATOM     29  N   UNL     1      -0.954   2.293   0.033  0.00  0.00    -0.338 N 
ATOM     30  H   UNL     1      -2.038   2.111   0.040  0.00  0.00    +0.167 HD
ATOM     31  N   UNL     1       1.627   4.661   0.013  0.00  0.00    -0.143 NA
ATOM     32  N   UNL     1       1.013   5.794   0.026  0.00  0.00    -0.122 NA
ENDBRANCH  18  19
ENDBRANCH  17  18
ENDBRANCH   4  17
TORSDOF 5
