REMARK  Name = ZINC10099116
REMARK  12 active torsions:
REMARK  status: ('A' for Active; 'I' for Inactive)
REMARK    1  A    between atoms: C_1  and  C_2
REMARK    2  A    between atoms: C_2  and  O_3
REMARK    3  A    between atoms: O_3  and  C_4
REMARK    4  A    between atoms: N_13  and  C_14
REMARK    5  A    between atoms: C_14  and  C_15
REMARK    6  A    between atoms: C_21  and  C_23
REMARK    7  A    between atoms: C_26  and  S_29
REMARK    8  A    between atoms: S_29  and  N_32
REMARK    9  A    between atoms: N_32  and  C_33
REMARK   10  A    between atoms: N_32  and  C_34
REMARK   11  A    between atoms: C_34  and  C_35
REMARK   12  A    between atoms: C_34  and  C_36
REMARK                            x       y       z     vdW  Elec       q    Type
REMARK                         _______ _______ _______ _____ _____    ______ ____
ROOT
ATOM      1  C   UNL     1       1.630  -4.884  -4.226  0.00  0.00    +0.122 A 
ATOM      2  C   UNL     1       1.946  -5.240  -2.918  0.00  0.00    +0.048 A 
ATOM      3  C   UNL     1       2.413  -4.317  -2.019  0.00  0.00    +0.032 A 
ATOM      4  C   UNL     1       2.591  -2.966  -2.395  0.00  0.00    +0.081 A 
ATOM      5  C   UNL     1       2.261  -2.639  -3.730  0.00  0.00    +0.044 A 
ATOM      6  C   UNL     1       1.793  -3.566  -4.627  0.00  0.00    +0.063 A 
ATOM      7  S   UNL     1       2.609  -0.897  -3.790  0.00  0.00    -0.052 S 
ATOM      8  C   UNL     1       3.162  -0.720  -2.099  0.00  0.00    +0.169 A 
ATOM      9  N   UNL     1       3.038  -1.941  -1.635  0.00  0.00    -0.224 NA
ATOM     10  N   UNL     1       3.602   0.418  -1.444  0.00  0.00    -0.242 N 
ATOM     11  C   UNL     1       3.657   1.594  -2.100  0.00  0.00    +0.253 C 
ATOM     12  O   UNL     1       3.216   1.682  -3.229  0.00  0.00    -0.270 OA
ENDROOT
BRANCH  11  13
ATOM     13  C   UNL     1       4.254   2.777  -1.446  0.00  0.00    +0.037 A 
ATOM     14  C   UNL     1       3.910   3.101  -0.132  0.00  0.00    +0.015 A 
ATOM     15  C   UNL     1       4.475   4.203   0.474  0.00  0.00    +0.029 A 
ATOM     16  C   UNL     1       5.373   4.994  -0.220  0.00  0.00    +0.106 A 
ATOM     17  C   UNL     1       5.715   4.683  -1.524  0.00  0.00    +0.029 A 
ATOM     18  C   UNL     1       5.161   3.579  -2.141  0.00  0.00    +0.015 A 
BRANCH  16  19
ATOM     19  S   UNL     1       6.085   6.405   0.560  0.00  0.00    +0.061 S 
ATOM     20  O   UNL     1       6.022   6.170   1.960  0.00  0.00    -0.153 OA
ATOM     21  O   UNL     1       7.309   6.667  -0.114  0.00  0.00    -0.153 OA
BRANCH  19  22
ATOM     22  N   UNL     1       5.090   7.691   0.250  0.00  0.00    -0.177 NA
ATOM     23  C   UNL     1       5.304   8.513  -0.944  0.00  0.00    +0.132 C 
BRANCH  22  24
ATOM     24  C   UNL     1       3.994   8.007   1.169  0.00  0.00    +0.073 C 
ATOM     25  C   UNL     1       4.184   9.420   1.724  0.00  0.00    +0.025 C 
ATOM     26  C   UNL     1       2.661   7.927   0.421  0.00  0.00    +0.025 C 
ENDBRANCH  22  24
ENDBRANCH  19  22
ENDBRANCH  16  19
ENDBRANCH  11  13
BRANCH   1  27
ATOM     27  O   UNL     1       1.167  -5.817  -5.100  0.00  0.00    -0.492 OA
BRANCH  27  29
ATOM     28  C   UNL     1       0.498  -8.052  -5.729  0.00  0.00    +0.048 C 
ATOM     29  C   UNL     1       1.027  -7.152  -4.611  0.00  0.00    +0.225 C 
ENDBRANCH  27  29
ENDBRANCH   1  27
BRANCH  10  30
ATOM     30  C   UNL     1       4.007   0.343  -0.038  0.00  0.00    +0.152 C 
BRANCH  30  31
ATOM     31  C   UNL     1       2.990  -0.457   0.736  0.00  0.00    -0.012 A 
ATOM     32  C   UNL     1       3.201  -1.804   0.988  0.00  0.00    +0.008 A 
ATOM     33  C   UNL     1       2.237  -2.501   1.700  0.00  0.00    +0.020 A 
ATOM     34  C   UNL     1       1.110  -1.832   2.140  0.00  0.00    +0.111 A 
ATOM     35  N   UNL     1       0.943  -0.549   1.882  0.00  0.00    -0.263 NA
ATOM     36  C   UNL     1       1.837   0.144   1.203  0.00  0.00    +0.116 A 
ENDBRANCH  30  31
ENDBRANCH  10  30
TORSDOF 8
