REMARK  Name = ZINC49543246
REMARK  9 active torsions:
REMARK  status: ('A' for Active; 'I' for Inactive)
REMARK    1  A    between atoms: C_1  and  O_2
REMARK    2  A    between atoms: O_2  and  C_3
REMARK    3  A    between atoms: C_7  and  N_9
REMARK    4  A    between atoms: C_11  and  C_30
REMARK    5  A    between atoms: C_14  and  C_20
REMARK    6  A    between atoms: C_23  and  O_28
REMARK    7  A    between atoms: C_25  and  O_26
REMARK    8  A    between atoms: O_26  and  C_27
REMARK    9  A    between atoms: O_28  and  C_29
REMARK                            x       y       z     vdW  Elec       q    Type
REMARK                         _______ _______ _______ _____ _____    ______ ____
ROOT
ATOM      1  N   UNL     1      -2.543  -4.066   0.017  0.00  0.00    -0.317 N 
ATOM      2  C   UNL     1      -1.865  -4.866  -0.835  0.00  0.00    +0.108 A 
ATOM      3  C   UNL     1      -2.173  -6.183  -0.535  0.00  0.00    +0.102 A 
ATOM      4  C   UNL     1      -3.107  -6.127   0.583  0.00  0.00    +0.070 A 
ATOM      5  C   UNL     1      -3.287  -4.813   0.878  0.00  0.00    +0.054 A 
ATOM      6  C   UNL     1      -4.190  -4.367   2.001  0.00  0.00    +0.080 C 
ATOM      7  C   UNL     1      -4.206  -5.459   3.074  0.00  0.00    +0.110 C 
ATOM      8  C   UNL     1      -4.337  -6.827   2.468  0.00  0.00    +0.218 C 
ATOM      9  O   UNL     1      -4.996  -7.666   3.046  0.00  0.00    -0.275 OA
ATOM     10  N   UNL     1      -3.749  -7.150   1.292  0.00  0.00    -0.283 N 
ATOM     11  H   UNL     1      -3.762  -8.060   0.957  0.00  0.00    +0.155 HD
ENDROOT
BRANCH   1  16
ATOM     12  C   UNL     1      -1.200  -0.637   0.010  0.00  0.00    +0.122 A 
ATOM     13  C   UNL     1      -2.375   0.102   0.020  0.00  0.00    +0.046 A 
ATOM     14  C   UNL     1      -3.598  -0.541   0.028  0.00  0.00    +0.006 A 
ATOM     15  C   UNL     1      -3.656  -1.921   0.027  0.00  0.00    +0.026 A 
ATOM     16  C   UNL     1      -2.484  -2.666   0.017  0.00  0.00    +0.050 A 
ATOM     17  C   UNL     1      -1.254  -2.022   0.003  0.00  0.00    +0.071 A 
BRANCH  12  19
ATOM     18  C   UNL     1      -0.017   1.425   0.010  0.00  0.00    +0.277 C 
ATOM     19  O   UNL     1       0.002  -0.004   0.002  0.00  0.00    -0.495 OA
ENDBRANCH  12  19
ENDBRANCH   1  16
BRANCH   6  20
ATOM     20  C   UNL     1      -5.585  -4.151   1.472  0.00  0.00    +0.004 A 
ATOM     21  C   UNL     1      -6.275  -5.199   0.894  0.00  0.00    +0.011 A 
ATOM     22  C   UNL     1      -7.554  -5.004   0.409  0.00  0.00    +0.046 A 
ATOM     23  C   UNL     1      -8.149  -3.753   0.501  0.00  0.00    +0.124 A 
ATOM     24  C   UNL     1      -7.459  -2.700   1.081  0.00  0.00    +0.091 A 
ATOM     25  C   UNL     1      -6.178  -2.900   1.572  0.00  0.00    +0.127 A 
BRANCH  25  26
ATOM     26  O   UNL     1      -5.501  -1.871   2.146  0.00  0.00    -0.495 OA
ATOM     27  C   UNL     1      -6.172  -0.611   2.215  0.00  0.00    +0.277 C 
ENDBRANCH  25  26
BRANCH  23  28
ATOM     28  O   UNL     1      -9.406  -3.562   0.023  0.00  0.00    -0.495 OA
ATOM     29  C   UNL     1     -10.057  -4.691  -0.561  0.00  0.00    +0.277 C 
ENDBRANCH  23  28
ENDBRANCH   6  20
BRANCH   3  30
ATOM     30  C   UNL     1      -1.665  -7.385  -1.205  0.00  0.00    +0.390 C 
ATOM     31  O   UNL     1      -0.880  -7.280  -2.138  0.00  0.00    -0.240 OA
ATOM     32  O   UNL     1      -2.027  -8.493  -0.831  0.00  0.00    -0.240 OA
ENDBRANCH   3  30
TORSDOF 6
