REMARK  Name = ZINC23936101
REMARK  6 active torsions:
REMARK  status: ('A' for Active; 'I' for Inactive)
REMARK    1  A    between atoms: C_4  and  C_7
REMARK    2  A    between atoms: C_7  and  C_28
REMARK    3  A    between atoms: N_10  and  C_14
REMARK    4  A    between atoms: C_14  and  N_15
REMARK    5  A    between atoms: N_18  and  C_21
REMARK    6  A    between atoms: C_26  and  O_27
REMARK                            x       y       z     vdW  Elec       q    Type
REMARK                         _______ _______ _______ _____ _____    ______ ____
ROOT
ATOM      1  C   UNL     1      -1.533   2.548   3.285  0.00  0.00    +0.164 C 
ATOM      2  C   UNL     1      -2.064   1.584   2.242  0.00  0.00    +0.257 C 
ATOM      3  O   UNL     1      -3.205   1.192   2.121  0.00  0.00    -0.272 OA
ATOM      4  N   UNL     1      -1.004   1.253   1.478  0.00  0.00    -0.210 N 
ATOM      5  C   UNL     1       0.110   1.873   1.885  0.00  0.00    +0.311 C 
ATOM      6  O   UNL     1       1.192   1.737   1.350  0.00  0.00    -0.252 OA
ATOM      7  N   UNL     1      -0.103   2.664   2.952  0.00  0.00    -0.278 N 
ATOM      8  H   UNL     1       0.550   3.315   3.552  0.00  0.00    +0.152 HD
ENDROOT
BRANCH   1  12
ATOM      9  C   UNL     1      -2.035   0.953   7.216  0.00  0.00    +0.000 A 
ATOM     10  C   UNL     1      -3.049   0.828   6.285  0.00  0.00    +0.000 A 
ATOM     11  C   UNL     1      -2.887   1.344   5.012  0.00  0.00    +0.006 A 
ATOM     12  C   UNL     1      -1.710   1.985   4.672  0.00  0.00    -0.011 A 
ATOM     13  C   UNL     1      -0.695   2.106   5.601  0.00  0.00    +0.006 A 
ATOM     14  C   UNL     1      -0.859   1.594   6.875  0.00  0.00    +0.000 A 
ENDBRANCH   1  12
BRANCH   1  15
ATOM     15  C   UNL     1      -2.216   3.886   3.166  0.00  0.00    -0.011 A 
ATOM     16  C   UNL     1      -3.596   3.960   3.174  0.00  0.00    +0.006 A 
ATOM     17  C   UNL     1      -4.223   5.188   3.069  0.00  0.00    +0.000 A 
ATOM     18  C   UNL     1      -3.469   6.340   2.947  0.00  0.00    +0.000 A 
ATOM     19  C   UNL     1      -2.089   6.266   2.934  0.00  0.00    +0.000 A 
ATOM     20  C   UNL     1      -1.462   5.038   3.043  0.00  0.00    +0.006 A 
ENDBRANCH   1  15
BRANCH   4  21
ATOM     21  C   UNL     1      -1.065   0.333   0.340  0.00  0.00    +0.205 C 
BRANCH  21  22
ATOM     22  N   UNL     1      -0.803  -1.036   0.802  0.00  0.00    -0.283 NA
ATOM     23  C   UNL     1       0.640  -1.276   0.947  0.00  0.00    +0.105 C 
ATOM     24  C   UNL     1       0.867  -2.683   1.505  0.00  0.00    +0.120 C 
ATOM     25  N   UNL     1       0.261  -3.669   0.600  0.00  0.00    -0.325 N 
ATOM     26  C   UNL     1      -1.182  -3.430   0.455  0.00  0.00    +0.120 C 
ATOM     27  C   UNL     1      -1.409  -2.023  -0.102  0.00  0.00    +0.105 C 
BRANCH  25  28
ATOM     28  C   UNL     1       0.511  -4.974   1.041  0.00  0.00    +0.072 A 
ATOM     29  C   UNL     1       1.060  -5.191   2.296  0.00  0.00    +0.027 A 
ATOM     30  C   UNL     1       1.301  -6.481   2.731  0.00  0.00    +0.002 A 
ATOM     31  C   UNL     1       1.006  -7.556   1.913  0.00  0.00    +0.004 A 
ATOM     32  C   UNL     1       0.464  -7.347   0.658  0.00  0.00    +0.047 A 
ATOM     33  C   UNL     1       0.214  -6.058   0.217  0.00  0.00    +0.138 A 
BRANCH  33  34
ATOM     34  O   UNL     1      -0.319  -5.851  -1.017  0.00  0.00    -0.505 OA
ATOM     35  H   UNL     1      -0.552  -6.708  -1.666  0.00  0.00    +0.292 HD
ENDBRANCH  33  34
ENDBRANCH  25  28
ENDBRANCH  21  22
ENDBRANCH   4  21
TORSDOF 6
