REMARK  Name = ZINC44660775
REMARK  5 active torsions:
REMARK  status: ('A' for Active; 'I' for Inactive)
REMARK    1  A    between atoms: C_4  and  C_7
REMARK    2  A    between atoms: C_10  and  N_12
REMARK    3  A    between atoms: C_13  and  C_15
REMARK    4  A    between atoms: C_18  and  N_22
REMARK    5  A    between atoms: C_20  and  N_21
REMARK                            x       y       z     vdW  Elec       q    Type
REMARK                         _______ _______ _______ _____ _____    ______ ____
ROOT
ATOM      1  N   UNL     1       5.398  -1.705   1.594  0.00  0.00    -0.308 N 
ATOM      2  C   UNL     1       5.669  -2.108   2.851  0.00  0.00    +0.246 C 
ATOM      3  O   UNL     1       4.760  -2.380   3.612  0.00  0.00    -0.270 OA
ATOM      4  H   UNL     1       6.123  -1.488   0.987  0.00  0.00    +0.149 HD
ENDROOT
BRANCH   2   5
ATOM      5  C   UNL     1       7.065  -2.219   3.303  0.00  0.00    +0.057 A 
ATOM      6  C   UNL     1       8.114  -2.028   2.397  0.00  0.00    +0.016 A 
ATOM      7  C   UNL     1       9.408  -2.131   2.816  0.00  0.00    +0.023 A 
ATOM      8  C   UNL     1       9.697  -2.427   4.148  0.00  0.00    +0.026 A 
ATOM      9  C   UNL     1       8.669  -2.620   5.061  0.00  0.00    +0.046 A 
ATOM     10  C   UNL     1       7.350  -2.512   4.648  0.00  0.00    +0.039 A 
BRANCH  10  11
ATOM     11  N   UNL     1       6.316  -2.698   5.557  0.00  0.00    -0.357 N 
ATOM     12  H   UNL     1       5.396  -2.705   5.250  0.00  0.00    +0.142 HD
ATOM     13  H   UNL     1       6.514  -2.821   6.498  0.00  0.00    +0.142 HD
ENDBRANCH  10  11
BRANCH   8  14
ATOM     14  N   UNL     1      11.020  -2.531   4.563  0.00  0.00    -0.358 N 
ATOM     15  H   UNL     1      11.740  -2.397   3.927  0.00  0.00    +0.142 HD
ATOM     16  H   UNL     1      11.223  -2.736   5.489  0.00  0.00    +0.142 HD
ENDBRANCH   8  14
ENDBRANCH   2   5
BRANCH   1  19
ATOM     17  C   UNL     1       3.712  -0.624  -0.002  0.00  0.00    +0.041 C 
ATOM     18  C   UNL     1       3.671  -2.133  -0.248  0.00  0.00    +0.033 C 
ATOM     19  C   UNL     1       4.008  -1.594   1.144  0.00  0.00    +0.081 C 
BRANCH  17  23
ATOM     20  C   UNL     1      -0.015   1.461   0.090  0.00  0.00    +0.000 A 
ATOM     21  C   UNL     1       1.173   2.168   0.098  0.00  0.00    +0.000 A 
ATOM     22  C   UNL     1       2.379   1.494   0.069  0.00  0.00    +0.004 A 
ATOM     23  C   UNL     1       2.397   0.112   0.032  0.00  0.00    -0.042 A 
ATOM     24  C   UNL     1       1.209  -0.595   0.025  0.00  0.00    +0.004 A 
ATOM     25  C   UNL     1       0.003   0.080   0.053  0.00  0.00    +0.000 A 
ENDBRANCH  17  23
ENDBRANCH   1  19
TORSDOF 5
