REMARK  Name = ZINC05903260
REMARK  4 active torsions:
REMARK  status: ('A' for Active; 'I' for Inactive)
REMARK    1  A    between atoms: C_4  and  N_7
REMARK    2  A    between atoms: C_8  and  S_12
REMARK    3  A    between atoms: S_12  and  C_13
REMARK    4  A    between atoms: N_23  and  O_24
REMARK                            x       y       z     vdW  Elec       q    Type
REMARK                         _______ _______ _______ _____ _____    ______ ____
ROOT
ATOM      1  N   UNL     1       3.624  -0.652  -0.037  0.00  0.00    -0.187 N 
ATOM      2  C   UNL     1       3.918  -1.831   0.567  0.00  0.00    +0.215 A 
ATOM      3  N   UNL     1       5.176  -2.102   0.291  0.00  0.00    -0.101 NA
ATOM      4  N   UNL     1       5.685  -1.178  -0.441  0.00  0.00    -0.022 NA
ATOM      5  N   UNL     1       4.809  -0.266  -0.689  0.00  0.00    -0.038 NA
ENDROOT
BRANCH   1   9
ATOM      6  C   UNL     1      -0.017   1.379   0.010  0.00  0.00    +0.000 A 
ATOM      7  C   UNL     1       1.170   2.089   0.002  0.00  0.00    +0.002 A 
ATOM      8  C   UNL     1       2.377   1.419  -0.013  0.00  0.00    +0.028 A 
ATOM      9  C   UNL     1       2.399   0.031  -0.021  0.00  0.00    +0.070 A 
ATOM     10  C   UNL     1       1.207  -0.680  -0.013  0.00  0.00    +0.028 A 
ATOM     11  C   UNL     1       0.002  -0.004   0.002  0.00  0.00    +0.002 A 
ENDBRANCH   1   9
BRANCH   2  12
ATOM     12  S   UNL     1       2.824  -2.812   1.538  0.00  0.00    -0.075 S 
BRANCH  12  13
ATOM     13  C   UNL     1       3.835  -4.234   2.038  0.00  0.00    +0.105 C 
ATOM     14  C   UNL     1       2.974  -5.255   2.843  0.00  0.00    +0.009 C 
ATOM     15  C   UNL     1       2.215  -4.381   3.887  0.00  0.00    +0.005 C 
ATOM     16  C   UNL     1       3.315  -3.899   4.861  0.00  0.00    +0.010 C 
ATOM     17  C   UNL     1       4.629  -4.536   4.315  0.00  0.00    +0.038 C 
ATOM     18  C   UNL     1       4.086  -5.911   3.737  0.00  0.00    +0.014 C 
ATOM     19  C   UNL     1       4.927  -3.793   3.002  0.00  0.00    +0.074 C 
ATOM     20  N   UNL     1       5.873  -2.962   2.775  0.00  0.00    -0.095 NA
BRANCH  20  21
ATOM     21  O   UNL     1       6.812  -2.664   3.792  0.00  0.00    -0.409 OA
ATOM     22  H   UNL     1       7.489  -2.027   3.528  0.00  0.00    +0.328 HD
ENDBRANCH  20  21
ENDBRANCH  12  13
ENDBRANCH   2  12
TORSDOF 4
