REMARK  Name = ZINC06613247
REMARK  3 active torsions:
REMARK  status: ('A' for Active; 'I' for Inactive)
REMARK    1  A    between atoms: C_1  and  C_2
REMARK    2  A    between atoms: C_4  and  C_24
REMARK    3  A    between atoms: C_14  and  C_17
REMARK                            x       y       z     vdW  Elec       q    Type
REMARK                         _______ _______ _______ _____ _____    ______ ____
ROOT
ATOM      1  C   UNL     1      -4.174   5.954   0.980  0.00  0.00    +0.044 C 
ATOM      2  C   UNL     1      -3.797   5.822   2.433  0.00  0.00    -0.037 A 
ATOM      3  C   UNL     1      -4.737   5.567   3.414  0.00  0.00    +0.033 A 
ATOM      4  C   UNL     1      -4.392   5.447   4.749  0.00  0.00    +0.108 A 
ATOM      5  N   UNL     1      -3.139   5.567   5.170  0.00  0.00    -0.239 NA
ATOM      6  C   UNL     1      -2.210   5.808   4.272  0.00  0.00    +0.111 A 
ATOM      7  C   UNL     1      -2.456   5.953   2.878  0.00  0.00    +0.032 A 
ATOM      8  C   UNL     1      -1.296   6.227   2.054  0.00  0.00    +0.058 A 
ATOM      9  C   UNL     1      -0.073   6.281   2.718  0.00  0.00    +0.097 A 
ATOM     10  S   UNL     1      -0.461   6.026   4.422  0.00  0.00    -0.062 S 
ATOM     11  C   UNL     1       1.157   6.517   2.078  0.00  0.00    +0.254 C 
ATOM     12  O   UNL     1       2.183   6.733   2.696  0.00  0.00    -0.270 OA
ATOM     13  N   UNL     1       1.118   6.486   0.718  0.00  0.00    -0.289 N 
ATOM     14  C   UNL     1      -0.079   6.003   0.035  0.00  0.00    +0.190 C 
ATOM     15  N   UNL     1      -1.319   6.454   0.668  0.00  0.00    -0.321 N 
ATOM     16  H   UNL     1       1.884   6.785   0.203  0.00  0.00    +0.151 HD
ATOM     17  H   UNL     1      -1.497   7.426   0.464  0.00  0.00    +0.148 HD
ENDROOT
BRANCH  14  18
ATOM     18  C   UNL     1      -0.059   4.497   0.026  0.00  0.00    -0.009 A 
ATOM     19  C   UNL     1       1.148   3.822   0.012  0.00  0.00    +0.008 A 
ATOM     20  C   UNL     1       1.167   2.440   0.004  0.00  0.00    +0.020 A 
ATOM     21  C   UNL     1      -0.021   1.732   0.012  0.00  0.00    +0.041 A 
ATOM     22  C   UNL     1      -1.229   2.407   0.021  0.00  0.00    +0.020 A 
ATOM     23  C   UNL     1      -1.247   3.789   0.034  0.00  0.00    +0.008 A 
ATOM     24 CL   UNL     1       0.002  -0.004   0.002  0.00  0.00    -0.084 Cl
ENDBRANCH  14  18
BRANCH   4  25
ATOM     25  C   UNL     1      -5.476   5.170   5.759  0.00  0.00    +0.390 C 
ATOM     26  F   UNL     1      -5.123   5.735   6.989  0.00  0.00    -0.202 F 
ATOM     27  F   UNL     1      -6.679   5.730   5.317  0.00  0.00    -0.202 F 
ENDBRANCH   4  25
TORSDOF 2
