REMARK  Name = ZINC14548470
REMARK  3 active torsions:
REMARK  status: ('A' for Active; 'I' for Inactive)
REMARK    1  A    between atoms: C_3  and  C_6
REMARK    2  A    between atoms: C_17  and  S_22
REMARK    3  A    between atoms: S_22  and  N_25
REMARK                            x       y       z     vdW  Elec       q    Type
REMARK                         _______ _______ _______ _____ _____    ______ ____
ROOT
ATOM      1  C   UNL     1       1.402   3.539   0.007  0.00  0.00    +0.111 C 
ATOM      2  C   UNL     1       1.733   4.010  -1.412  0.00  0.00    +0.029 C 
ATOM      3  C   UNL     1       0.692   3.360  -2.370  0.00  0.00    +0.033 C 
ATOM      4  C   UNL     1       1.251   1.970  -2.606  0.00  0.00    -0.030 C 
ATOM      5  C   UNL     1       2.537   1.944  -2.354  0.00  0.00    -0.023 C 
ATOM      6  C   UNL     1       3.011   3.308  -1.913  0.00  0.00    +0.049 C 
ATOM      7  C   UNL     1       4.070   3.206  -0.862  0.00  0.00    -0.018 A 
ATOM      8  C   UNL     1       5.352   2.832  -1.242  0.00  0.00    +0.034 A 
ATOM      9  C   UNL     1       6.360   2.731  -0.305  0.00  0.00    +0.105 A 
ATOM     10  C   UNL     1       6.104   3.003   1.027  0.00  0.00    +0.030 A 
ATOM     11  C   UNL     1       4.833   3.374   1.418  0.00  0.00    +0.025 A 
ATOM     12  C   UNL     1       3.817   3.474   0.475  0.00  0.00    +0.031 A 
ATOM     13  N   UNL     1       2.534   3.849   0.887  0.00  0.00    -0.336 N 
ATOM     14  H   UNL     1       2.396   4.303   1.733  0.00  0.00    +0.147 HD
ENDROOT
BRANCH   1  17
ATOM     15  C   UNL     1       0.002  -0.004   0.002  0.00  0.00    +0.008 A 
ATOM     16  C   UNL     1      -0.017   1.378   0.010  0.00  0.00    +0.013 A 
ATOM     17  C   UNL     1       1.160   2.051   0.002  0.00  0.00    +0.010 A 
ATOM     18  S   UNL     1       2.348   0.719  -0.017  0.00  0.00    -0.100 S 
ATOM     19  C   UNL     1       1.196  -0.645  -0.013  0.00  0.00    +0.045 A 
ENDBRANCH   1  17
BRANCH   9  20
ATOM     20  S   UNL     1       7.980   2.255  -0.807  0.00  0.00    +0.056 S 
ATOM     21  O   UNL     1       8.092   2.585  -2.184  0.00  0.00    -0.153 OA
ATOM     22  O   UNL     1       8.875   2.762   0.173  0.00  0.00    -0.153 OA
BRANCH  20  23
ATOM     23  N   UNL     1       8.057   0.603  -0.709  0.00  0.00    -0.204 NA
ATOM     24  H   UNL     1       7.283   0.098  -0.414  0.00  0.00    +0.144 HD
ATOM     25  H   UNL     1       8.876   0.141  -0.946  0.00  0.00    +0.144 HD
ENDBRANCH  20  23
ENDBRANCH   9  20
TORSDOF 3
