REMARK  Name = ZINC39692232
REMARK  8 active torsions:
REMARK  status: ('A' for Active; 'I' for Inactive)
REMARK    1  A    between atoms: C_1  and  C_2
REMARK    2  A    between atoms: C_2  and  C_3
REMARK    3  A    between atoms: C_6  and  C_9
REMARK    4  A    between atoms: C_11  and  S_15
REMARK    5  A    between atoms: S_15  and  C_16
REMARK    6  A    between atoms: C_16  and  C_17
REMARK    7  A    between atoms: C_22  and  C_31
REMARK    8  A    between atoms: C_23  and  C_28
REMARK                            x       y       z     vdW  Elec       q    Type
REMARK                         _______ _______ _______ _____ _____    ______ ____
ROOT
ATOM      1  S   UNL     1       5.885  -2.961  -6.662  0.00  0.00    -0.079 S 
ENDROOT
BRANCH   1   4
ATOM      2  C   UNL     1       2.698  -1.862  -4.736  0.00  0.00    +0.182 A 
ATOM      3  N   UNL     1       4.012  -2.108  -4.840  0.00  0.00    -0.201 NA
ATOM      4  C   UNL     1       4.290  -2.519  -6.058  0.00  0.00    +0.185 A 
ATOM      5  H   UNL     1       3.032  -2.803  -7.693  0.00  0.00    +0.191 HD
ATOM      6  N   UNL     1       3.138  -2.542  -6.765  0.00  0.00    -0.253 N 
ATOM      7  N   UNL     1       2.124  -2.119  -5.890  0.00  0.00    -0.152 NA
BRANCH   2  11
ATOM      8  C   UNL     1       0.707  -0.490  -1.238  0.00  0.00    -0.048 A 
ATOM      9  C   UNL     1      -0.013  -0.718  -2.396  0.00  0.00    +0.004 A 
ATOM     10  C   UNL     1       0.627  -1.163  -3.535  0.00  0.00    +0.012 A 
ATOM     11  C   UNL     1       2.003  -1.383  -3.516  0.00  0.00    +0.021 A 
ATOM     12  C   UNL     1       2.724  -1.152  -2.346  0.00  0.00    +0.012 A 
ATOM     13  C   UNL     1       2.074  -0.701  -1.215  0.00  0.00    +0.004 A 
BRANCH   8  15
ATOM     14  C   UNL     1      -0.019   1.526   0.010  0.00  0.00    +0.009 C 
ATOM     15  C   UNL     1       0.002  -0.004   0.002  0.00  0.00    +0.032 C 
ENDBRANCH   8  15
ENDBRANCH   2  11
ENDBRANCH   1   4
BRANCH   1  16
ATOM     16  C   UNL     1       6.979  -2.713  -5.237  0.00  0.00    +0.151 C 
BRANCH  16  17
ATOM     17  C   UNL     1       8.393  -3.061  -5.623  0.00  0.00    +0.134 C 
ATOM     18  N   UNL     1       8.622  -3.460  -6.851  0.00  0.00    -0.160 NA
ATOM     19  C   UNL     1       9.841  -3.790  -7.289  0.00  0.00    +0.271 C 
ATOM     20  O   UNL     1      10.018  -4.157  -8.438  0.00  0.00    -0.268 OA
ATOM     21  C   UNL     1      10.982  -3.694  -6.324  0.00  0.00    +0.071 C 
ATOM     22  C   UNL     1      12.277  -3.970  -6.537  0.00  0.00    -0.034 C 
ATOM     23  C   UNL     1      13.235  -3.787  -5.381  0.00  0.00    +0.192 C 
ATOM     24  S   UNL     1      12.106  -3.209  -4.050  0.00  0.00    -0.086 S 
ATOM     25  C   UNL     1      10.591  -3.233  -4.974  0.00  0.00    +0.112 C 
ATOM     26  N   UNL     1       9.341  -2.941  -4.706  0.00  0.00    -0.227 NA
ATOM     27  C   UNL     1      12.761  -4.446  -7.882  0.00  0.00    +0.041 C 
BRANCH  23  28
ATOM     28  C   UNL     1      13.886  -5.094  -5.008  0.00  0.00    +0.373 C 
ATOM     29  O   UNL     1      15.086  -5.139  -4.798  0.00  0.00    -0.245 OA
ATOM     30  O   UNL     1      13.213  -6.106  -4.917  0.00  0.00    -0.245 OA
ENDBRANCH  23  28
ENDBRANCH  16  17
ENDBRANCH   1  16
TORSDOF 6
