REMARK  Name = ZINC40066108
REMARK  8 active torsions:
REMARK  status: ('A' for Active; 'I' for Inactive)
REMARK    1  A    between atoms: C_1  and  C_2
REMARK    2  A    between atoms: C_12  and  C_13
REMARK    3  A    between atoms: N_16  and  C_30
REMARK    4  A    between atoms: C_17  and  C_19
REMARK    5  A    between atoms: C_22  and  O_25
REMARK    6  A    between atoms: O_25  and  C_26
REMARK    7  A    between atoms: C_26  and  C_27
REMARK    8  A    between atoms: C_30  and  C_31
REMARK                            x       y       z     vdW  Elec       q    Type
REMARK                         _______ _______ _______ _____ _____    ______ ____
ROOT
ATOM      1  C   UNL     1      -0.018   1.503   0.010  0.00  0.00    +0.044 C 
ATOM      2  C   UNL     1       0.002  -0.004   0.002  0.00  0.00    -0.044 A 
ATOM      3  C   UNL     1       0.005  -0.683  -1.209  0.00  0.00    +0.004 A 
ATOM      4  C   UNL     1       0.021  -2.050  -1.232  0.00  0.00    +0.015 A 
ATOM      5  C   UNL     1       0.033  -2.761  -0.032  0.00  0.00    +0.065 A 
ATOM      6  C   UNL     1       0.036  -4.246  -0.038  0.00  0.00    +0.199 A 
ATOM      7  O   UNL     1       0.200  -4.908  -1.047  0.00  0.00    -0.287 OA
ATOM      8  C   UNL     1      -0.176  -4.839   1.286  0.00  0.00    +0.072 A 
ATOM      9  C   UNL     1      -0.158  -4.068   2.414  0.00  0.00    +0.199 A 
ATOM     10  O   UNL     1       0.060  -2.739   2.383  0.00  0.00    -0.449 OA
ATOM     11  C   UNL     1       0.036  -2.085   1.199  0.00  0.00    +0.143 A 
ATOM     12  C   UNL     1       0.023  -0.690   1.195  0.00  0.00    -0.005 A 
ATOM     13  C   UNL     1       0.025   0.066   2.499  0.00  0.00    +0.048 C 
ATOM     14  C   UNL     1      -0.408  -4.941   3.575  0.00  0.00    +0.283 C 
ATOM     15  O   UNL     1      -0.459  -4.566   4.729  0.00  0.00    -0.267 OA
ATOM     16  N   UNL     1      -0.571  -6.217   3.168  0.00  0.00    -0.281 N 
ATOM     17  C   UNL     1      -0.436  -6.249   1.703  0.00  0.00    +0.145 C 
ENDROOT
BRANCH  17  18
ATOM     18  C   UNL     1       0.721  -7.130   1.306  0.00  0.00    -0.022 A 
ATOM     19  C   UNL     1       1.874  -7.139   2.068  0.00  0.00    +0.009 A 
ATOM     20  C   UNL     1       2.936  -7.945   1.706  0.00  0.00    +0.046 A 
ATOM     21  C   UNL     1       2.844  -8.746   0.578  0.00  0.00    +0.121 A 
ATOM     22  C   UNL     1       1.685  -8.736  -0.185  0.00  0.00    +0.046 A 
ATOM     23  C   UNL     1       0.624  -7.932   0.184  0.00  0.00    +0.009 A 
BRANCH  21  24
ATOM     24  O   UNL     1       3.888  -9.540   0.220  0.00  0.00    -0.483 OA
BRANCH  24  25
ATOM     25  C   UNL     1       3.723 -10.338  -0.954  0.00  0.00    +0.324 C 
BRANCH  25  26
ATOM     26  C   UNL     1       4.973 -11.145  -1.192  0.00  0.00    +0.248 C 
ATOM     27  O   UNL     1       5.912 -11.047  -0.432  0.00  0.00    -0.272 OA
ATOM     28  N   UNL     1       5.046 -11.977  -2.250  0.00  0.00    -0.327 N 
ATOM     29  H   UNL     1       4.295 -12.056  -2.858  0.00  0.00    +0.145 HD
ATOM     30  H   UNL     1       5.851 -12.496  -2.404  0.00  0.00    +0.145 HD
ENDBRANCH  25  26
ENDBRANCH  24  25
ENDBRANCH  21  24
ENDBRANCH  17  18
BRANCH  16  31
ATOM     31  C   UNL     1      -0.834  -7.369   4.034  0.00  0.00    +0.140 C 
BRANCH  31  32
ATOM     32  C   UNL     1      -2.345  -7.546   4.201  0.00  0.00    +0.136 C 
ATOM     33  C   UNL     1      -2.631  -8.682   5.207  0.00  0.00    +0.035 C 
ATOM     34  C   UNL     1      -3.853  -9.392   4.564  0.00  0.00    +0.031 C 
ATOM     35  C   UNL     1      -3.535  -9.218   3.058  0.00  0.00    +0.160 C 
ATOM     36  O   UNL     1      -2.932  -7.918   2.948  0.00  0.00    -0.375 OA
ENDBRANCH  31  32
ENDBRANCH  16  31
TORSDOF 6
