REMARK  Name = ZINC14141284
REMARK  5 active torsions:
REMARK  status: ('A' for Active; 'I' for Inactive)
REMARK    1  A    between atoms: C_1  and  C_2
REMARK    2  A    between atoms: C_5  and  O_8
REMARK    3  A    between atoms: O_8  and  C_9
REMARK    4  A    between atoms: C_14  and  N_15
REMARK    5  A    between atoms: C_16  and  C_18
REMARK                            x       y       z     vdW  Elec       q    Type
REMARK                         _______ _______ _______ _____ _____    ______ ____
ROOT
ATOM      1  N   UNL     1       4.832   1.505  -0.028  0.00  0.00    -0.279 N 
ATOM      2  C   UNL     1       3.746   2.039   0.565  0.00  0.00    +0.248 C 
ATOM      3  O   UNL     1       3.816   3.134   1.089  0.00  0.00    -0.270 OA
ATOM      4  H   UNL     1       4.800   0.599  -0.373  0.00  0.00    +0.155 HD
ENDROOT
BRANCH   2   5
ATOM      5  C   UNL     1       2.471   1.296   0.577  0.00  0.00    +0.039 A 
ATOM      6  C   UNL     1       2.389   0.038  -0.026  0.00  0.00    +0.017 A 
ATOM      7  C   UNL     1       1.199  -0.657  -0.015  0.00  0.00    +0.048 A 
ATOM      8  C   UNL     1       0.080  -0.110   0.595  0.00  0.00    +0.142 A 
ATOM      9  C   UNL     1       0.155   1.147   1.199  0.00  0.00    +0.076 A 
ATOM     10  C   UNL     1       1.344   1.849   1.192  0.00  0.00    +0.040 A 
ATOM     11  N   UNL     1      -0.990   1.686   1.804  0.00  0.00    -0.280 N 
ATOM     12  C   UNL     1      -2.030   0.867   2.080  0.00  0.00    +0.255 C 
ATOM     13  O   UNL     1      -3.040   1.314   2.581  0.00  0.00    -0.272 OA
ATOM     14  C   UNL     1      -1.930  -0.603   1.759  0.00  0.00    +0.325 C 
ATOM     15  O   UNL     1      -1.097  -0.789   0.612  0.00  0.00    -0.481 OA
ATOM     16  H   UNL     1      -1.031   2.629   2.027  0.00  0.00    +0.155 HD
ENDBRANCH   2   5
BRANCH   1  22
ATOM     17  C   UNL     1       7.238   1.617  -0.267  0.00  0.00    +0.150 A 
ATOM     18  C   UNL     1       8.398   2.367  -0.383  0.00  0.00    +0.048 A 
ATOM     19  C   UNL     1       8.331   3.748  -0.379  0.00  0.00    +0.004 A 
ATOM     20  C   UNL     1       7.109   4.385  -0.260  0.00  0.00    +0.002 A 
ATOM     21  C   UNL     1       5.948   3.644  -0.148  0.00  0.00    +0.027 A 
ATOM     22  C   UNL     1       6.007   2.258  -0.146  0.00  0.00    +0.076 A 
BRANCH  17  23
ATOM     23  O   UNL     1       7.302   0.259  -0.271  0.00  0.00    -0.454 OA
BRANCH  23  28
ATOM     24  C   UNL     1      12.393  -2.150  -0.312  0.00  0.00    +0.044 C 
ATOM     25  C   UNL     1      11.031  -1.505  -0.301  0.00  0.00    -0.050 A 
ATOM     26  C   UNL     1      10.627  -0.765   0.795  0.00  0.00    +0.007 A 
ATOM     27  C   UNL     1       9.379  -0.173   0.807  0.00  0.00    +0.046 A 
ATOM     28  C   UNL     1       8.530  -0.322  -0.281  0.00  0.00    +0.129 A 
ATOM     29  C   UNL     1       8.937  -1.070  -1.377  0.00  0.00    +0.046 A 
ATOM     30  C   UNL     1      10.188  -1.656  -1.386  0.00  0.00    +0.007 A 
ENDBRANCH  23  28
ENDBRANCH  17  23
ENDBRANCH   1  22
TORSDOF 4
