REMARK  Name = ZINC23737963
REMARK  10 active torsions:
REMARK  status: ('A' for Active; 'I' for Inactive)
REMARK    1  A    between atoms: C_1  and  C_2
REMARK    2  A    between atoms: C_2  and  C_27
REMARK    3  A    between atoms: N_5  and  C_9
REMARK    4  A    between atoms: C_9  and  C_10
REMARK    5  A    between atoms: N_12  and  C_13
REMARK    6  A    between atoms: C_13  and  C_14
REMARK    7  A    between atoms: C_14  and  C_16
REMARK    8  A    between atoms: C_14  and  N_22
REMARK    9  A    between atoms: C_30  and  O_33
REMARK   10  A    between atoms: O_33  and  C_34
REMARK                            x       y       z     vdW  Elec       q    Type
REMARK                         _______ _______ _______ _____ _____    ______ ____
ROOT
ATOM      1  C   UNL     1       1.638   7.832  -2.435  0.00  0.00    +0.213 C 
ENDROOT
BRANCH   1   6
ATOM      2  C   UNL     1       1.081  10.595  -6.194  0.00  0.00    +0.047 C 
ATOM      3  C   UNL     1       1.530   9.162  -5.901  0.00  0.00    +0.135 C 
ATOM      4  C   UNL     1       0.851   8.636  -4.652  0.00  0.00    +0.251 C 
ATOM      5  O   UNL     1      -0.339   8.488  -4.472  0.00  0.00    -0.272 OA
ATOM      6  N   UNL     1       1.846   8.366  -3.784  0.00  0.00    -0.215 N 
ATOM      7  C   UNL     1       3.045   8.649  -4.303  0.00  0.00    +0.310 C 
ATOM      8  O   UNL     1       4.093   8.493  -3.708  0.00  0.00    -0.252 OA
ATOM      9  N   UNL     1       2.962   9.123  -5.559  0.00  0.00    -0.281 N 
ATOM     10  H   UNL     1       3.712   9.452  -6.294  0.00  0.00    +0.152 HD
BRANCH   3  11
ATOM     11  C   UNL     1       1.241   8.267  -7.078  0.00  0.00    -0.015 A 
ATOM     12  C   UNL     1       0.054   7.561  -7.134  0.00  0.00    +0.010 A 
ATOM     13  C   UNL     1      -0.216   6.744  -8.215  0.00  0.00    +0.046 A 
ATOM     14  C   UNL     1       0.711   6.623  -9.240  0.00  0.00    +0.120 A 
ATOM     15  C   UNL     1       1.905   7.329  -9.179  0.00  0.00    +0.046 A 
ATOM     16  C   UNL     1       2.167   8.149  -8.099  0.00  0.00    +0.010 A 
BRANCH  14  17
ATOM     17  O   UNL     1       0.451   5.816 -10.302  0.00  0.00    -0.495 OA
ATOM     18  C   UNL     1      -0.797   5.121 -10.297  0.00  0.00    +0.277 C 
ENDBRANCH  14  17
ENDBRANCH   3  11
ENDBRANCH   1   6
BRANCH   1  19
ATOM     19  C   UNL     1       1.653   6.326  -2.482  0.00  0.00    +0.231 C 
ATOM     20  O   UNL     1       1.820   5.754  -3.539  0.00  0.00    -0.274 OA
ATOM     21  N   UNL     1       1.480   5.615  -1.351  0.00  0.00    -0.315 N 
ATOM     22  H   UNL     1       1.328   6.133  -0.393  0.00  0.00    +0.149 HD
BRANCH  21  23
ATOM     23  C   UNL     1       1.494   4.150  -1.397  0.00  0.00    +0.093 C 
BRANCH  23  24
ATOM     24  C   UNL     1       1.147   3.593  -0.015  0.00  0.00    -0.020 C 
BRANCH  24  25
ATOM     25  C   UNL     1      -0.272   3.961   0.334  0.00  0.00    -0.059 A 
ATOM     26  C   UNL     1      -0.522   5.030   1.174  0.00  0.00    +0.002 A 
ATOM     27  C   UNL     1      -1.824   5.368   1.493  0.00  0.00    +0.000 A 
ATOM     28  C   UNL     1      -2.876   4.637   0.972  0.00  0.00    +0.000 A 
ATOM     29  C   UNL     1      -2.625   3.568   0.132  0.00  0.00    +0.000 A 
ATOM     30  C   UNL     1      -1.323   3.230  -0.187  0.00  0.00    +0.002 A 
ENDBRANCH  24  25
BRANCH  24  31
ATOM     31  N   UNL     1       1.285   2.131  -0.028  0.00  0.00    +0.385 N 
ATOM     32  C   UNL     1       2.668   1.730  -0.394  0.00  0.00    -0.078 C 
ATOM     33  C   UNL     1       2.770   0.280   0.144  0.00  0.00    -0.020 C 
ATOM     34  C   UNL     1       1.972   0.345   1.467  0.00  0.00    -0.020 C 
ATOM     35  C   UNL     1       1.043   1.564   1.316  0.00  0.00    -0.078 C 
ATOM     36  H   UNL     1       0.547   1.767  -0.758  0.00  0.00    -0.081 HD
ENDBRANCH  24  31
ENDBRANCH  23  24
ENDBRANCH  21  23
ENDBRANCH   1  19
TORSDOF 8
