REMARK  Name = ZINC32624547
REMARK  6 active torsions:
REMARK  status: ('A' for Active; 'I' for Inactive)
REMARK    1  A    between atoms: C_1  and  O_2
REMARK    2  A    between atoms: O_2  and  C_3
REMARK    3  A    between atoms: C_6  and  C_9
REMARK    4  A    between atoms: C_9  and  C_11
REMARK    5  A    between atoms: C_9  and  N_27
REMARK    6  A    between atoms: C_11  and  N_12
REMARK                            x       y       z     vdW  Elec       q    Type
REMARK                         _______ _______ _______ _____ _____    ______ ____
ROOT
ATOM      1  C   UNL     1      -1.804   2.545   1.396  0.00  0.00    +0.115 C 
ENDROOT
BRANCH   1   2
ATOM      2  N   UNL     1      -3.092   3.231   1.268  0.00  0.00    -0.300 N 
ATOM      3  C   UNL     1      -3.142   4.587   1.186  0.00  0.00    +0.202 A 
ATOM      4  N   UNL     1      -4.247   5.250   1.065  0.00  0.00    -0.235 NA
ATOM      5  C   UNL     1      -5.469   4.621   1.022  0.00  0.00    +0.107 A 
ATOM      6  C   UNL     1      -6.739   5.222   0.897  0.00  0.00    +0.081 A 
ATOM      7  C   UNL     1      -7.827   4.380   0.881  0.00  0.00    +0.070 A 
ATOM      8  S   UNL     1      -7.155   2.755   1.028  0.00  0.00    -0.073 S 
ATOM      9  C   UNL     1      -5.442   3.216   1.112  0.00  0.00    +0.105 A 
ATOM     10  C   UNL     1      -4.245   2.520   1.235  0.00  0.00    +0.268 A 
ATOM     11  O   UNL     1      -4.233   1.302   1.312  0.00  0.00    -0.266 OA
ATOM     12  S   UNL     1      -9.494   4.904   0.743  0.00  0.00    -0.107 S 
ATOM     13  C   UNL     1      -9.392   6.600   1.404  0.00  0.00    +0.171 C 
ATOM     14  C   UNL     1      -8.112   7.233   0.938  0.00  0.00    +0.227 C 
ATOM     15  O   UNL     1      -8.153   8.417   0.675  0.00  0.00    -0.275 OA
ATOM     16  N   UNL     1      -6.938   6.627   0.785  0.00  0.00    -0.282 N 
ATOM     17  H   UNL     1      -6.087   7.286   0.557  0.00  0.00    +0.155 HD
ENDBRANCH   1   2
BRANCH   1  18
ATOM     18  C   UNL     1      -1.342   2.066   0.019  0.00  0.00    -0.017 C 
BRANCH  18  22
ATOM     19  C   UNL     1       2.586   0.410   0.318  0.00  0.00    +0.120 A 
ATOM     20  C   UNL     1       1.490  -0.425   0.154  0.00  0.00    +0.046 A 
ATOM     21  C   UNL     1       0.221   0.112   0.060  0.00  0.00    +0.005 A 
ATOM     22  C   UNL     1       0.043   1.482   0.128  0.00  0.00    -0.059 A 
ATOM     23  C   UNL     1       1.133   2.316   0.291  0.00  0.00    +0.005 A 
ATOM     24  C   UNL     1       2.404   1.784   0.386  0.00  0.00    +0.046 A 
BRANCH  19  26
ATOM     25  C   UNL     1       4.916   0.804   0.577  0.00  0.00    +0.277 C 
ATOM     26  O   UNL     1       3.836  -0.116   0.410  0.00  0.00    -0.495 OA
ENDBRANCH  19  26
ENDBRANCH  18  22
BRANCH  18  27
ATOM     27  N   UNL     1      -1.323   3.201  -0.913  0.00  0.00    +0.385 N 
ATOM     28  C   UNL     1      -0.487   2.898  -2.104  0.00  0.00    -0.078 C 
ATOM     29  C   UNL     1      -0.992   3.914  -3.159  0.00  0.00    -0.020 C 
ATOM     30  C   UNL     1      -2.513   3.971  -2.885  0.00  0.00    -0.020 C 
ATOM     31  C   UNL     1      -2.678   3.484  -1.433  0.00  0.00    -0.078 C 
ATOM     32  H   UNL     1      -0.925   4.052  -0.340  0.00  0.00    -0.081 HD
ENDBRANCH  18  27
ENDBRANCH   1  18
TORSDOF 5
