REMARK  Name = ZINC01423703
REMARK  7 active torsions:
REMARK  status: ('A' for Active; 'I' for Inactive)
REMARK    1  A    between atoms: C_1  and  C_2
REMARK    2  A    between atoms: C_2  and  C_4
REMARK    3  A    between atoms: C_2  and  N_15
REMARK    4  A    between atoms: N_6  and  C_7
REMARK    5  A    between atoms: C_12  and  S_13
REMARK    6  A    between atoms: S_13  and  C_14
REMARK    7  A    between atoms: C_17  and  N_20
REMARK                            x       y       z     vdW  Elec       q    Type
REMARK                         _______ _______ _______ _____ _____    ______ ____
ROOT
ATOM      1  C   UNL     1      -5.393   2.023  -1.377  0.00  0.00    +0.242 C 
ATOM      2  O   UNL     1      -4.606   2.040  -2.300  0.00  0.00    -0.273 OA
ATOM      3  N   UNL     1      -6.709   1.861  -1.618  0.00  0.00    -0.283 N 
ATOM      4  H   UNL     1      -7.331   1.782  -0.878  0.00  0.00    +0.155 HD
ENDROOT
BRANCH   3   5
ATOM      5  C   UNL     1      -7.179   1.806  -2.937  0.00  0.00    +0.047 A 
ATOM      6  C   UNL     1      -6.407   1.217  -3.926  0.00  0.00    +0.024 A 
ATOM      7  C   UNL     1      -6.875   1.160  -5.226  0.00  0.00    +0.002 A 
ATOM      8  C   UNL     1      -8.107   1.699  -5.547  0.00  0.00    +0.001 A 
ATOM      9  C   UNL     1      -8.882   2.293  -4.568  0.00  0.00    +0.016 A 
ATOM     10  C   UNL     1      -8.423   2.350  -3.260  0.00  0.00    +0.029 A 
BRANCH  10  11
ATOM     11  S   UNL     1      -9.407   3.107  -2.010  0.00  0.00    -0.127 S 
ATOM     12  C   UNL     1     -10.896   3.650  -2.893  0.00  0.00    +0.090 C 
ENDBRANCH  10  11
ENDBRANCH   3   5
BRANCH   1  14
ATOM     13  C   UNL     1      -5.274   0.942   0.851  0.00  0.00    +0.042 C 
ATOM     14  C   UNL     1      -4.900   2.182   0.037  0.00  0.00    +0.190 C 
BRANCH  14  15
ATOM     15  N   UNL     1      -3.443   2.341   0.032  0.00  0.00    -0.258 N 
ATOM     16  C   UNL     1      -2.536   1.343   0.014  0.00  0.00    +0.142 A 
ATOM     17  C   UNL     1      -1.304   1.905   0.014  0.00  0.00    +0.163 A 
ATOM     18  C   UNL     1      -1.465   3.294   0.039  0.00  0.00    +0.167 A 
ATOM     19  N   UNL     1      -2.747   3.557   0.043  0.00  0.00    -0.177 NA
BRANCH  17  20
ATOM     20  N   UNL     1      -0.015   1.178  -0.002  0.00  0.00    +0.059 N 
ATOM     21  O   UNL     1      -0.003  -0.040  -0.018  0.00  0.00    -0.126 OA
ATOM     22  O   UNL     1       1.033   1.797  -0.005  0.00  0.00    -0.126 OA
ENDBRANCH  17  20
ENDBRANCH  14  15
ENDBRANCH   1  14
TORSDOF 5
