REMARK  Name = ZINC02452225
REMARK  3 active torsions:
REMARK  status: ('A' for Active; 'I' for Inactive)
REMARK    1  A    between atoms: C_1  and  C_2
REMARK    2  A    between atoms: N_20  and  C_23
REMARK    3  A    between atoms: C_26  and  C_30
REMARK                            x       y       z     vdW  Elec       q    Type
REMARK                         _______ _______ _______ _____ _____    ______ ____
ROOT
ATOM      1  C   UNL     1      -6.461   4.201   0.382  0.00  0.00    +0.044 C 
ATOM      2  C   UNL     1      -5.580   3.119   0.952  0.00  0.00    -0.050 A 
ATOM      3  C   UNL     1      -6.145   2.003   1.540  0.00  0.00    +0.005 A 
ATOM      4  C   UNL     1      -5.343   1.010   2.064  0.00  0.00    +0.024 A 
ATOM      5  C   UNL     1      -3.956   1.124   2.003  0.00  0.00    +0.036 A 
ATOM      6  C   UNL     1      -3.399   2.252   1.408  0.00  0.00    -0.027 A 
ATOM      7  C   UNL     1      -4.203   3.241   0.887  0.00  0.00    +0.008 A 
ATOM      8  C   UNL     1      -1.909   2.072   1.500  0.00  0.00    +0.053 C 
ATOM      9  C   UNL     1      -1.258   2.068   0.107  0.00  0.00    +0.089 C 
ATOM     10  C   UNL     1      -0.702   3.509  -0.063  0.00  0.00    +0.074 C 
ATOM     11  C   UNL     1      -1.071   4.246   1.237  0.00  0.00    -0.054 C 
ATOM     12  C   UNL     1       0.090   2.775   2.665  0.00  0.00    -0.076 C 
ATOM     13  C   UNL     1       0.900   4.087   2.687  0.00  0.00    -0.020 C 
ATOM     14  C   UNL     1       0.149   5.040   1.738  0.00  0.00    -0.016 C 
ATOM     15  C   UNL     1       0.795   3.301  -0.116  0.00  0.00    +0.228 C 
ATOM     16  O   UNL     1       1.620   4.179  -0.245  0.00  0.00    -0.275 OA
ATOM     17  N   UNL     1       1.067   1.996   0.003  0.00  0.00    -0.209 N 
ATOM     18  C   UNL     1      -0.011   1.214   0.136  0.00  0.00    +0.229 C 
ATOM     19  O   UNL     1       0.010   0.008   0.257  0.00  0.00    -0.275 OA
ATOM     20  C   UNL     1      -1.719   0.751   2.196  0.00  0.00    +0.212 C 
ATOM     21  O   UNL     1      -0.662   0.224   2.472  0.00  0.00    -0.277 OA
ATOM     22  N   UNL     1      -2.950   0.268   2.453  0.00  0.00    -0.286 N 
ATOM     23  H   UNL     1      -3.117  -0.577   2.899  0.00  0.00    +0.155 HD
ATOM     24  N   UNL     1      -1.251   3.181   2.197  0.00  0.00    +0.395 N 
ATOM     25  H   UNL     1      -1.825   3.495   2.989  0.00  0.00    -0.079 HD
ENDROOT
BRANCH  17  26
ATOM     26  C   UNL     1       2.374   1.489  -0.012  0.00  0.00    +0.058 A 
ATOM     27  C   UNL     1       3.072   1.330   1.177  0.00  0.00    +0.025 A 
ATOM     28  C   UNL     1       4.360   0.830   1.160  0.00  0.00    +0.005 A 
ATOM     29  C   UNL     1       4.955   0.489  -0.041  0.00  0.00    -0.049 A 
ATOM     30  C   UNL     1       4.263   0.647  -1.228  0.00  0.00    +0.020 A 
ATOM     31  C   UNL     1       2.972   1.141  -1.216  0.00  0.00    +0.040 A 
ATOM     32 BR   UNL     1       2.024   1.349  -2.839  0.00  0.00    -0.048 Br
ATOM     33  C   UNL     1       6.359  -0.056  -0.056  0.00  0.00    +0.044 C 
ENDBRANCH  17  26
TORSDOF 1
