REMARK  Name = ZINC67371168
REMARK  4 active torsions:
REMARK  status: ('A' for Active; 'I' for Inactive)
REMARK    1  A    between atoms: C_1  and  C_2
REMARK    2  A    between atoms: C_2  and  C_9
REMARK    3  A    between atoms: C_12  and  C_15
REMARK    4  A    between atoms: C_15  and  N_16
REMARK                            x       y       z     vdW  Elec       q    Type
REMARK                         _______ _______ _______ _____ _____    ______ ____
ROOT
ATOM      1  C   UNL     1       0.657  -0.517  -1.255  0.00  0.00    -0.016 A 
ATOM      2  C   UNL     1       1.778  -1.322  -1.171  0.00  0.00    +0.006 A 
ATOM      3  C   UNL     1       2.378  -1.792  -2.324  0.00  0.00    +0.005 A 
ATOM      4  C   UNL     1       1.858  -1.458  -3.560  0.00  0.00    -0.030 A 
ATOM      5  C   UNL     1       0.737  -0.654  -3.644  0.00  0.00    +0.005 A 
ATOM      6  C   UNL     1       0.134  -0.187  -2.491  0.00  0.00    +0.006 A 
ENDROOT
BRANCH   1   8
ATOM      7  C   UNL     1      -0.019   1.526   0.010  0.00  0.00    +0.047 C 
ATOM      8  C   UNL     1       0.002  -0.004   0.002  0.00  0.00    +0.135 C 
ATOM      9  C   UNL     1      -1.403  -0.557   0.139  0.00  0.00    +0.248 C 
ATOM     10  O   UNL     1      -2.332  -0.392  -0.621  0.00  0.00    -0.273 OA
ATOM     11  N   UNL     1      -1.403  -1.272   1.282  0.00  0.00    -0.238 N 
ATOM     12  C   UNL     1      -0.206  -1.247   1.879  0.00  0.00    +0.307 C 
ATOM     13  O   UNL     1       0.040  -1.819   2.924  0.00  0.00    -0.252 OA
ATOM     14  N   UNL     1       0.695  -0.520   1.195  0.00  0.00    -0.282 N 
ATOM     15  H   UNL     1      -2.175  -1.745   1.629  0.00  0.00    +0.159 HD
ATOM     16  H   UNL     1       1.621  -0.365   1.440  0.00  0.00    +0.152 HD
ENDBRANCH   1   8
BRANCH   4  17
ATOM     17  C   UNL     1       2.514  -1.970  -4.817  0.00  0.00    +0.139 C 
BRANCH  17  18
ATOM     18  N   UNL     1       1.920  -3.257  -5.187  0.00  0.00    -0.309 N 
ATOM     19  C   UNL     1       2.365  -3.925  -6.316  0.00  0.00    +0.215 A 
ATOM     20  N   UNL     1       3.331  -3.389  -7.046  0.00  0.00    -0.222 NA
ATOM     21  C   UNL     1       3.779  -4.000  -8.130  0.00  0.00    +0.131 A 
ATOM     22  C   UNL     1       3.224  -5.217  -8.498  0.00  0.00    +0.054 A 
ATOM     23  C   UNL     1       2.214  -5.750  -7.711  0.00  0.00    +0.131 A 
ATOM     24  N   UNL     1       1.817  -5.088  -6.636  0.00  0.00    -0.222 NA
ATOM     25 BR   UNL     1       3.831  -6.129 -10.039  0.00  0.00    -0.047 Br
ATOM     26  H   UNL     1       1.216  -3.642  -4.642  0.00  0.00    +0.149 HD
ENDBRANCH  17  18
ENDBRANCH   4  17
TORSDOF 3
