REMARK  Name = ZINC35644100
REMARK  5 active torsions:
REMARK  status: ('A' for Active; 'I' for Inactive)
REMARK    1  A    between atoms: C_4  and  O_22
REMARK    2  A    between atoms: C_7  and  C_12
REMARK    3  A    between atoms: C_7  and  C_18
REMARK    4  A    between atoms: C_13  and  C_14
REMARK    5  A    between atoms: C_14  and  O_17
REMARK                            x       y       z     vdW  Elec       q    Type
REMARK                         _______ _______ _______ _____ _____    ______ ____
ROOT
ATOM      1  C   UNL     1      -0.017   1.375   0.010  0.00  0.00    +0.031 A 
ATOM      2  C   UNL     1       1.173   2.083   0.002  0.00  0.00    +0.045 A 
ATOM      3  C   UNL     1       2.383   1.412  -0.011  0.00  0.00    +0.067 A 
ATOM      4  C   UNL     1       2.408   0.025  -0.025  0.00  0.00    +0.140 A 
ATOM      5  C   UNL     1       1.213  -0.684  -0.028  0.00  0.00    +0.086 A 
ATOM      6  C   UNL     1       0.002  -0.004   0.002  0.00  0.00    +0.043 A 
ATOM      7  C   UNL     1      -1.282  -0.794   0.045  0.00  0.00    +0.296 C 
ATOM      8  O   UNL     1      -1.073  -2.061  -0.584  0.00  0.00    -0.417 OA
ATOM      9  C   UNL     1       0.044  -2.739  -0.260  0.00  0.00    +0.407 C 
ATOM     10  O   UNL     1       0.006  -3.949  -0.157  0.00  0.00    -0.226 OA
ATOM     11  N   UNL     1       1.204  -2.086  -0.050  0.00  0.00    -0.247 N 
ATOM     12 CL   UNL     1       1.148   3.819   0.009  0.00  0.00    -0.083 Cl
ATOM     13  H   UNL     1       2.027  -2.582   0.086  0.00  0.00    +0.158 HD
ENDROOT
BRANCH   7  14
ATOM     14  C   UNL     1      -1.703  -1.008   1.500  0.00  0.00    +0.446 C 
ATOM     15  F   UNL     1      -1.898   0.233   2.116  0.00  0.00    -0.165 F 
ATOM     16  F   UNL     1      -2.894  -1.740   1.538  0.00  0.00    -0.165 F 
ATOM     17  F   UNL     1      -0.700  -1.712   2.177  0.00  0.00    -0.165 F 
ENDBRANCH   7  14
BRANCH   7  18
ATOM     18  C   UNL     1      -2.337  -0.057  -0.671  0.00  0.00    -0.038 C 
ATOM     19  C   UNL     1      -3.178   0.530  -1.242  0.00  0.00    -0.063 C 
BRANCH  19  20
ATOM     20  C   UNL     1      -4.233   1.266  -1.957  0.00  0.00    +0.127 C 
ATOM     21  C   UNL     1      -4.738   0.675  -3.275  0.00  0.00    +0.052 C 
ATOM     22  C   UNL     1      -5.620   0.625  -2.026  0.00  0.00    +0.052 C 
BRANCH  20  23
ATOM     23  O   UNL     1      -4.168   2.690  -1.854  0.00  0.00    -0.377 OA
ATOM     24  H   UNL     1      -3.268   3.042  -1.816  0.00  0.00    +0.211 HD
ENDBRANCH  20  23
ENDBRANCH  19  20
ENDBRANCH   7  18
BRANCH   4  25
ATOM     25  O   UNL     1       3.595  -0.637  -0.035  0.00  0.00    -0.505 OA
ATOM     26  H   UNL     1       3.942  -0.837   0.845  0.00  0.00    +0.292 HD
ENDBRANCH   4  25
TORSDOF 5
