REMARK  Name = ZINC53114973
REMARK  6 active torsions:
REMARK  status: ('A' for Active; 'I' for Inactive)
REMARK    1  A    between atoms: C_1  and  C_2
REMARK    2  A    between atoms: C_7  and  C_9
REMARK    3  A    between atoms: C_7  and  N_11
REMARK    4  A    between atoms: C_9  and  O_10
REMARK    5  A    between atoms: N_11  and  C_12
REMARK    6  A    between atoms: C_17  and  N_18
REMARK                            x       y       z     vdW  Elec       q    Type
REMARK                         _______ _______ _______ _____ _____    ______ ____
ROOT
ATOM      1  C   UNL     1      -1.521  -1.939   2.289  0.00  0.00    +0.050 A 
ATOM      2  C   UNL     1      -1.064  -0.947   3.139  0.00  0.00    +0.048 A 
ATOM      3  C   UNL     1      -1.903  -0.426   4.122  0.00  0.00    +0.039 A 
ATOM      4  C   UNL     1      -3.198  -0.916   4.234  0.00  0.00    -0.016 A 
ATOM      5  C   UNL     1      -3.659  -1.903   3.390  0.00  0.00    +0.030 A 
ATOM      6  C   UNL     1      -2.825  -2.418   2.407  0.00  0.00    +0.046 A 
ATOM      7  C   UNL     1      -3.841  -0.161   5.375  0.00  0.00    +0.133 C 
ATOM      8  C   UNL     1      -2.755   0.778   5.855  0.00  0.00    +0.222 C 
ATOM      9  O   UNL     1      -2.842   1.575   6.765  0.00  0.00    -0.275 OA
ATOM     10  N   UNL     1      -1.676   0.562   5.084  0.00  0.00    -0.285 N 
ATOM     11  H   UNL     1      -0.836   1.038   5.183  0.00  0.00    +0.155 HD
ENDROOT
BRANCH   6  12
ATOM     12  N   UNL     1      -3.290  -3.419   1.542  0.00  0.00    -0.357 N 
ATOM     13  H   UNL     1      -2.704  -3.780   0.858  0.00  0.00    +0.142 HD
ATOM     14  H   UNL     1      -4.198  -3.750   1.627  0.00  0.00    +0.142 HD
ENDBRANCH   6  12
BRANCH   1  15
ATOM     15  N   UNL     1      -0.673  -2.459   1.303  0.00  0.00    -0.335 N 
ATOM     16  H   UNL     1      -1.018  -3.086   0.648  0.00  0.00    +0.147 HD
BRANCH  15  22
ATOM     17  C   UNL     1       0.272   1.202  -0.740  0.00  0.00    +0.007 C 
ATOM     18  C   UNL     1       0.178  -0.291  -0.419  0.00  0.00    -0.012 C 
ATOM     19  C   UNL     1       0.906  -1.092  -1.501  0.00  0.00    +0.003 C 
ATOM     20  C   UNL     1       0.813  -2.585  -1.180  0.00  0.00    +0.002 C 
ATOM     21  C   UNL     1       1.462  -2.856   0.179  0.00  0.00    +0.028 C 
ATOM     22  C   UNL     1       0.735  -2.055   1.261  0.00  0.00    +0.055 C 
ATOM     23  C   UNL     1       0.828  -0.562   0.939  0.00  0.00    +0.031 C 
BRANCH  22  24
ATOM     24  C   UNL     1       1.384  -2.326   2.619  0.00  0.00    +0.181 C 
BRANCH  24  25
ATOM     25  O   UNL     1       1.290  -3.720   2.923  0.00  0.00    -0.393 OA
ATOM     26  H   UNL     1       1.682  -3.964   3.772  0.00  0.00    +0.209 HD
ENDBRANCH  24  25
ENDBRANCH  22  24
ENDBRANCH  15  22
ENDBRANCH   1  15
TORSDOF 5
