REMARK  Name = ZINC15322510
REMARK  8 active torsions:
REMARK  status: ('A' for Active; 'I' for Inactive)
REMARK    1  A    between atoms: C_1  and  C_2
REMARK    2  A    between atoms: C_4  and  O_22
REMARK    3  A    between atoms: C_5  and  O_20
REMARK    4  A    between atoms: C_7  and  N_8
REMARK    5  A    between atoms: N_8  and  C_9
REMARK    6  A    between atoms: C_9  and  C_10
REMARK    7  A    between atoms: O_20  and  C_21
REMARK    8  A    between atoms: O_22  and  C_23
REMARK                            x       y       z     vdW  Elec       q    Type
REMARK                         _______ _______ _______ _____ _____    ______ ____
ROOT
ATOM      1  N   UNL     1       0.025  -0.010   2.416  0.00  0.00    -0.338 N 
ATOM      2  H   UNL     1       0.012   0.960   2.421  0.00  0.00    +0.146 HD
ENDROOT
BRANCH   1   9
ATOM      3  C   UNL     1      -0.018   1.503   0.010  0.00  0.00    +0.046 C 
ATOM      4  C   UNL     1       0.002  -0.004   0.002  0.00  0.00    -0.026 A 
ATOM      5  C   UNL     1       0.006  -0.688  -1.200  0.00  0.00    +0.054 A 
ATOM      6  C   UNL     1       0.025  -2.073  -1.210  0.00  0.00    +0.162 A 
ATOM      7  C   UNL     1       0.040  -2.777  -0.009  0.00  0.00    +0.163 A 
ATOM      8  C   UNL     1       0.036  -2.092   1.194  0.00  0.00    +0.072 A 
ATOM      9  C   UNL     1       0.023  -0.704   1.201  0.00  0.00    +0.034 A 
BRANCH   7  10
ATOM     10  O   UNL     1       0.057  -4.137  -0.019  0.00  0.00    -0.491 OA
ATOM     11  C   UNL     1       0.072  -4.794   1.250  0.00  0.00    +0.277 C 
ENDBRANCH   7  10
BRANCH   6  12
ATOM     12  O   UNL     1       0.028  -2.744  -2.393  0.00  0.00    -0.491 OA
ATOM     13  C   UNL     1       0.011  -1.958  -3.586  0.00  0.00    +0.277 C 
ENDBRANCH   6  12
ENDBRANCH   1   9
BRANCH   1  14
ATOM     14  C   UNL     1       0.047  -0.749   3.681  0.00  0.00    +0.155 C 
BRANCH  14  15
ATOM     15  C   UNL     1       0.045   0.225   4.831  0.00  0.00    +0.040 A 
ATOM     16  C   UNL     1      -1.021   0.277   5.704  0.00  0.00    +0.093 A 
ATOM     17  C   UNL     1      -1.005   1.185   6.763  0.00  0.00    +0.259 A 
ATOM     18  O   UNL     1      -1.946   1.235   7.540  0.00  0.00    -0.267 OA
ATOM     19  N   UNL     1       0.065   2.018   6.931  0.00  0.00    -0.263 N 
ATOM     20  C   UNL     1       0.227   2.959   7.919  0.00  0.00    +0.104 A 
ATOM     21  C   UNL     1       1.323   3.715   7.976  0.00  0.00    +0.067 A 
ATOM     22  S   UNL     1       2.251   3.121   6.570  0.00  0.00    -0.059 S 
ATOM     23  C   UNL     1       1.079   1.899   6.019  0.00  0.00    +0.158 A 
ATOM     24  N   UNL     1       1.073   1.046   5.025  0.00  0.00    -0.337 N 
ATOM     25  H   UNL     1       1.830   1.015   4.419  0.00  0.00    +0.168 HD
ENDBRANCH  14  15
ENDBRANCH   1  14
TORSDOF 5
