REMARK  Name = ZINC35554912
REMARK  10 active torsions:
REMARK  status: ('A' for Active; 'I' for Inactive)
REMARK    1  A    between atoms: C_1  and  C_2
REMARK    2  A    between atoms: C_5  and  S_8
REMARK    3  A    between atoms: S_8  and  N_11
REMARK    4  A    between atoms: N_11  and  C_12
REMARK    5  A    between atoms: C_12  and  C_14
REMARK    6  A    between atoms: C_12  and  C_15
REMARK    7  A    between atoms: N_17  and  C_18
REMARK    8  A    between atoms: C_20  and  C_24
REMARK    9  A    between atoms: C_22  and  C_23
REMARK   10  A    between atoms: C_26  and  C_29
REMARK                            x       y       z     vdW  Elec       q    Type
REMARK                         _______ _______ _______ _____ _____    ______ ____
ROOT
ATOM      1  C   UNL     1       3.910  -4.413   0.630  0.00  0.00    +0.236 C 
ATOM      2  O   UNL     1       4.160  -4.447  -0.556  0.00  0.00    -0.274 OA
ATOM      3  N   UNL     1       4.878  -4.099   1.514  0.00  0.00    -0.283 N 
ATOM      4  H   UNL     1       4.660  -3.992   2.453  0.00  0.00    +0.155 HD
ENDROOT
BRANCH   3   5
ATOM      5  C   UNL     1       6.203  -3.928   1.074  0.00  0.00    +0.044 A 
ATOM      6  C   UNL     1       6.642  -4.537  -0.084  0.00  0.00    +0.043 A 
ATOM      7  C   UNL     1       7.940  -4.345  -0.477  0.00  0.00    +0.062 A 
ATOM      8  S   UNL     1       8.565  -3.279   0.811  0.00  0.00    -0.088 S 
ATOM      9  C   UNL     1       7.072  -3.152   1.782  0.00  0.00    +0.009 A 
ATOM     10  C   UNL     1       6.835  -2.386   3.058  0.00  0.00    +0.053 C 
BRANCH   7  11
ATOM     11  C   UNL     1       8.641  -4.881  -1.662  0.00  0.00    +0.209 A 
ATOM     12  N   UNL     1       9.928  -4.652  -1.984  0.00  0.00    -0.191 NA
ATOM     13  C   UNL     1      10.229  -5.273  -3.089  0.00  0.00    +0.231 A 
ATOM     14  O   UNL     1       9.142  -5.927  -3.519  0.00  0.00    -0.337 OA
ATOM     15  N   UNL     1       8.115  -5.666  -2.574  0.00  0.00    -0.056 NA
BRANCH  13  16
ATOM     16  C   UNL     1      11.573  -5.258  -3.768  0.00  0.00    +0.078 C 
ATOM     17  C   UNL     1      11.668  -5.885  -5.161  0.00  0.00    +0.014 C 
ATOM     18  C   UNL     1      12.285  -6.599  -3.957  0.00  0.00    +0.014 C 
ENDBRANCH  13  16
ENDBRANCH   7  11
ENDBRANCH   3   5
BRANCH   1  19
ATOM     19  C   UNL     1       2.517  -4.720   1.116  0.00  0.00    +0.159 C 
ATOM     20  C   UNL     1       2.560  -5.924   2.059  0.00  0.00    +0.035 C 
BRANCH  19  21
ATOM     21  N   UNL     1       1.657  -5.028  -0.030  0.00  0.00    -0.178 NA
ATOM     22  H   UNL     1       2.020  -5.498  -0.797  0.00  0.00    +0.149 HD
BRANCH  21  23
ATOM     23  S   UNL     1       0.065  -4.574  -0.016  0.00  0.00    +0.059 S 
ATOM     24  O   UNL     1      -0.468  -4.999   1.231  0.00  0.00    -0.153 OA
ATOM     25  O   UNL     1      -0.486  -4.984  -1.260  0.00  0.00    -0.153 OA
BRANCH  23  30
ATOM     26  C   UNL     1      -0.072   1.459   0.021  0.00  0.00    +0.044 C 
ATOM     27  C   UNL     1      -0.037  -0.048   0.012  0.00  0.00    -0.050 A 
ATOM     28  C   UNL     1      -0.029  -0.732  -1.190  0.00  0.00    +0.005 A 
ATOM     29  C   UNL     1       0.002  -2.114  -1.198  0.00  0.00    +0.029 A 
ATOM     30  C   UNL     1       0.026  -2.812  -0.005  0.00  0.00    +0.105 A 
ATOM     31  C   UNL     1       0.019  -2.128   1.196  0.00  0.00    +0.029 A 
ATOM     32  C   UNL     1      -0.009  -0.746   1.204  0.00  0.00    +0.005 A 
ENDBRANCH  23  30
ENDBRANCH  21  23
ENDBRANCH  19  21
ENDBRANCH   1  19
TORSDOF 7
