REMARK  Name = ZINC35744007
REMARK  6 active torsions:
REMARK  status: ('A' for Active; 'I' for Inactive)
REMARK    1  A    between atoms: C_4  and  N_7
REMARK    2  A    between atoms: N_9  and  C_29
REMARK    3  A    between atoms: C_18  and  C_20
REMARK    4  A    between atoms: C_20  and  O_21
REMARK    5  A    between atoms: O_21  and  C_22
REMARK    6  A    between atoms: C_29  and  C_30
REMARK                            x       y       z     vdW  Elec       q    Type
REMARK                         _______ _______ _______ _____ _____    ______ ____
ROOT
ATOM      1  N   UNL     1       3.620  -0.649  -0.036  0.00  0.00    -0.300 N 
ATOM      2  C   UNL     1       4.960  -0.060  -0.142  0.00  0.00    +0.217 C 
ATOM      3  N   UNL     1       5.937  -1.148  -0.118  0.00  0.00    -0.275 N 
ATOM      4  C   UNL     1       5.312  -2.332  -0.008  0.00  0.00    +0.241 C 
ATOM      5  O   UNL     1       5.858  -3.414   0.038  0.00  0.00    -0.273 OA
ATOM      6  C   UNL     1       3.825  -2.100   0.056  0.00  0.00    +0.115 C 
ATOM      7  C   UNL     1       3.137  -2.799  -1.117  0.00  0.00    +0.054 C 
ATOM      8  C   UNL     1       1.634  -2.507  -1.071  0.00  0.00    +0.110 C 
ATOM      9  N   UNL     1       1.119  -2.886   0.252  0.00  0.00    -0.299 N 
ATOM     10  C   UNL     1       1.764  -2.328   1.448  0.00  0.00    +0.110 C 
ATOM     11  C   UNL     1       3.267  -2.621   1.380  0.00  0.00    +0.054 C 
ATOM     12  C   UNL     1       0.074  -3.730   0.367  0.00  0.00    +0.253 C 
ATOM     13  O   UNL     1      -0.450  -4.184  -0.628  0.00  0.00    -0.272 OA
ENDROOT
BRANCH   1  17
ATOM     14  C   UNL     1      -0.017   1.379   0.010  0.00  0.00    +0.000 A 
ATOM     15  C   UNL     1       1.169   2.089  -0.022  0.00  0.00    +0.002 A 
ATOM     16  C   UNL     1       2.377   1.420  -0.037  0.00  0.00    +0.023 A 
ATOM     17  C   UNL     1       2.400   0.031  -0.021  0.00  0.00    +0.032 A 
ATOM     18  C   UNL     1       1.207  -0.680   0.011  0.00  0.00    +0.023 A 
ATOM     19  C   UNL     1       0.002  -0.004   0.026  0.00  0.00    +0.002 A 
ENDBRANCH   1  17
BRANCH  12  20
ATOM     20  C   UNL     1      -0.442  -4.109   1.730  0.00  0.00    +0.324 C 
BRANCH  20  21
ATOM     21  O   UNL     1      -1.545  -5.007   1.589  0.00  0.00    -0.483 OA
BRANCH  21  22
ATOM     22  C   UNL     1      -2.131  -5.449   2.733  0.00  0.00    +0.121 A 
ATOM     23  C   UNL     1      -1.658  -5.023   3.966  0.00  0.00    +0.047 A 
ATOM     24  C   UNL     1      -2.255  -5.473   5.127  0.00  0.00    +0.023 A 
ATOM     25  C   UNL     1      -3.324  -6.350   5.062  0.00  0.00    +0.041 A 
ATOM     26  C   UNL     1      -3.796  -6.777   3.834  0.00  0.00    +0.023 A 
ATOM     27  C   UNL     1      -3.207  -6.323   2.670  0.00  0.00    +0.047 A 
ATOM     28 CL   UNL     1      -4.072  -6.915   6.523  0.00  0.00    -0.084 Cl
ENDBRANCH  21  22
ENDBRANCH  20  21
ENDBRANCH  12  20
BRANCH   3  29
ATOM     29  C   UNL     1       7.389  -0.972  -0.202  0.00  0.00    +0.205 C 
BRANCH  29  30
ATOM     30  C   UNL     1       7.958  -0.817   1.185  0.00  0.00    +0.233 C 
ATOM     31  O   UNL     1       7.223  -0.850   2.149  0.00  0.00    -0.274 OA
ATOM     32  N   UNL     1       9.283  -0.641   1.353  0.00  0.00    -0.300 N 
ATOM     33  C   UNL     1      10.186  -0.593   0.195  0.00  0.00    +0.108 C 
ATOM     34  C   UNL     1      11.014   0.693   0.269  0.00  0.00    +0.019 C 
ATOM     35  C   UNL     1      11.725   0.761   1.622  0.00  0.00    +0.003 C 
ATOM     36  C   UNL     1      10.686   0.791   2.745  0.00  0.00    +0.019 C 
ATOM     37  C   UNL     1       9.852  -0.488   2.699  0.00  0.00    +0.108 C 
ENDBRANCH  29  30
ENDBRANCH   3  29
TORSDOF 6
