REMARK  Name = ZINC39710712
REMARK  12 active torsions:
REMARK  status: ('A' for Active; 'I' for Inactive)
REMARK    1  A    between atoms: C_1  and  C_2
REMARK    2  A    between atoms: C_7  and  C_14
REMARK    3  A    between atoms: C_14  and  C_16
REMARK    4  A    between atoms: C_14  and  N_26
REMARK    5  A    between atoms: N_21  and  C_22
REMARK    6  A    between atoms: C_22  and  C_23
REMARK    7  A    between atoms: C_22  and  C_24
REMARK    8  A    between atoms: C_22  and  C_25
REMARK    9  A    between atoms: N_26  and  C_27
REMARK   10  A    between atoms: N_26  and  C_35
REMARK   11  A    between atoms: C_27  and  C_28
REMARK   12  A    between atoms: C_35  and  C_36
REMARK                            x       y       z     vdW  Elec       q    Type
REMARK                         _______ _______ _______ _____ _____    ______ ____
ROOT
ATOM      1  C   UNL     1       1.858  -4.647   1.802  0.00  0.00    -0.008 C 
ENDROOT
BRANCH   1   8
ATOM      2  C   UNL     1       1.077   2.809   1.793  0.00  0.00    +0.044 C 
ATOM      3  C   UNL     1       0.952   1.326   1.557  0.00  0.00    -0.049 A 
ATOM      4  C   UNL     1       0.751   0.870   0.255  0.00  0.00    +0.004 A 
ATOM      5  C   UNL     1       0.631  -0.455  -0.020  0.00  0.00    +0.010 A 
ATOM      6  C   UNL     1       0.716  -1.415   1.081  0.00  0.00    -0.007 A 
ATOM      7  C   UNL     1       0.602  -2.754   0.853  0.00  0.00    -0.006 C 
ATOM      8  C   UNL     1       0.704  -3.675   2.053  0.00  0.00    +0.088 C 
ATOM      9  C   UNL     1       0.923  -3.034   3.404  0.00  0.00    +0.223 C 
ATOM     10  O   UNL     1       1.013  -3.725   4.401  0.00  0.00    -0.275 OA
ATOM     11  N   UNL     1       1.018  -1.718   3.499  0.00  0.00    -0.285 N 
ATOM     12  C   UNL     1       0.930  -0.904   2.447  0.00  0.00    +0.041 A 
ATOM     13  C   UNL     1       1.046   0.487   2.622  0.00  0.00    +0.027 A 
ATOM     14  H   UNL     1       1.159  -1.326   4.375  0.00  0.00    +0.155 HD
ENDBRANCH   1   8
BRANCH   1  15
ATOM     15  C   UNL     1       3.178  -3.874   1.774  0.00  0.00    +0.205 C 
ATOM     16  N   UNL     1       3.364  -3.131   3.027  0.00  0.00    -0.152 NA
ATOM     17  N   UNL     1       3.425  -1.926   2.771  0.00  0.00    -0.070 NA
ATOM     18  N   UNL     1       3.301  -1.654   1.409  0.00  0.00    -0.179 N 
ATOM     19  N   UNL     1       3.145  -2.834   0.724  0.00  0.00    -0.183 NA
ATOM     20  H   UNL     1       3.323  -0.771   1.008  0.00  0.00    +0.191 HD
BRANCH  19  21
ATOM     21  C   UNL     1       4.231  -3.030  -0.246  0.00  0.00    +0.035 C 
ATOM     22  C   UNL     1       4.081  -4.401  -0.909  0.00  0.00    +0.029 C 
ATOM     23  C   UNL     1       4.163  -1.937  -1.314  0.00  0.00    +0.029 C 
ATOM     24  C   UNL     1       5.578  -2.957   0.475  0.00  0.00    +0.029 C 
ENDBRANCH  19  21
ENDBRANCH   1  15
BRANCH   1  25
ATOM     25  N   UNL     1       1.899  -5.647   2.877  0.00  0.00    +0.392 N 
ATOM     26  H   UNL     1       2.070  -5.186   3.759  0.00  0.00    -0.080 HD
BRANCH  25  27
ATOM     27  C   UNL     1       2.976  -6.609   2.611  0.00  0.00    -0.042 C 
BRANCH  27  28
ATOM     28  C   UNL     1       3.185  -7.478   3.824  0.00  0.00    -0.064 A 
ATOM     29  C   UNL     1       3.299  -6.902   5.075  0.00  0.00    +0.004 A 
ATOM     30  C   UNL     1       3.490  -7.698   6.189  0.00  0.00    +0.038 A 
ATOM     31  C   UNL     1       3.567  -9.073   6.051  0.00  0.00    +0.123 A 
ATOM     32  C   UNL     1       3.452  -9.650   4.797  0.00  0.00    +0.038 A 
ATOM     33  C   UNL     1       3.256  -8.852   3.686  0.00  0.00    +0.004 A 
ATOM     34  F   UNL     1       3.754  -9.853   7.138  0.00  0.00    -0.205 F 
ENDBRANCH  27  28
ENDBRANCH  25  27
BRANCH  25  35
ATOM     35  C   UNL     1       0.613  -6.355   2.936  0.00  0.00    -0.002 C 
BRANCH  35  36
ATOM     36  C   UNL     1       0.585  -7.244   4.153  0.00  0.00    +0.089 A 
ATOM     37  C   UNL     1       0.312  -6.850   5.409  0.00  0.00    +0.042 A 
ATOM     38  C   UNL     1       0.395  -8.000   6.227  0.00  0.00    +0.041 A 
ATOM     39  C   UNL     1       0.714  -9.029   5.421  0.00  0.00    +0.195 A 
ATOM     40  O   UNL     1       0.821  -8.566   4.165  0.00  0.00    -0.470 OA
ENDBRANCH  35  36
ENDBRANCH  25  35
ENDBRANCH   1  25
TORSDOF 8
