REMARK  Name = ZINC40287771
REMARK  4 active torsions:
REMARK  status: ('A' for Active; 'I' for Inactive)
REMARK    1  A    between atoms: C_3  and  O_24
REMARK    2  A    between atoms: C_6  and  N_7
REMARK    3  A    between atoms: C_8  and  C_10
REMARK    4  A    between atoms: C_14  and  N_15
REMARK                            x       y       z     vdW  Elec       q    Type
REMARK                         _______ _______ _______ _____ _____    ______ ____
ROOT
ATOM      1  C   UNL     1      -2.448  -2.807  -0.201  0.00  0.00    +0.073 A 
ATOM      2  C   UNL     1      -3.054  -3.093  -1.488  0.00  0.00    -0.023 A 
ATOM      3  C   UNL     1      -4.213  -3.785  -1.412  0.00  0.00    -0.004 A 
ATOM      4  S   UNL     1      -4.470  -4.037   0.320  0.00  0.00    -0.073 S 
ATOM      5  C   UNL     1      -3.106  -3.268   0.926  0.00  0.00    +0.119 A 
ATOM      6  C   UNL     1      -5.073  -4.228  -2.555  0.00  0.00    +0.043 C 
ATOM      7  C   UNL     1      -4.641  -3.456  -3.810  0.00  0.00    +0.005 C 
ATOM      8  C   UNL     1      -3.116  -3.518  -3.930  0.00  0.00    +0.005 C 
ATOM      9  C   UNL     1      -2.471  -2.672  -2.829  0.00  0.00    +0.037 C 
ENDROOT
BRANCH   5  10
ATOM     10  N   UNL     1      -2.725  -3.126   2.258  0.00  0.00    -0.193 N 
ATOM     11  C   UNL     1      -3.373  -3.585   3.352  0.00  0.00    +0.251 A 
ATOM     12  N   UNL     1      -2.671  -3.232   4.396  0.00  0.00    -0.116 NA
ATOM     13  N   UNL     1      -1.623  -2.581   4.038  0.00  0.00    -0.023 NA
ATOM     14  N   UNL     1      -1.579  -2.478   2.754  0.00  0.00    -0.039 NA
ENDBRANCH   5  10
BRANCH   1  16
ATOM     15  N   UNL     1      -1.201  -0.721   0.010  0.00  0.00    -0.281 N 
ATOM     16  C   UNL     1      -1.186  -2.064  -0.099  0.00  0.00    +0.251 C 
ATOM     17  O   UNL     1      -0.125  -2.662  -0.113  0.00  0.00    -0.270 OA
ATOM     18  H   UNL     1      -2.045  -0.251   0.098  0.00  0.00    +0.155 HD
BRANCH  15  24
ATOM     19  C   UNL     1       1.071  -0.454  -0.767  0.00  0.00    +0.027 A 
ATOM     20  C   UNL     1       2.256   0.254  -0.780  0.00  0.00    +0.047 A 
ATOM     21  C   UNL     1       2.379   1.415  -0.032  0.00  0.00    +0.117 A 
ATOM     22  C   UNL     1       1.312   1.866   0.731  0.00  0.00    +0.047 A 
ATOM     23  C   UNL     1       0.126   1.159   0.746  0.00  0.00    +0.027 A 
ATOM     24  C   UNL     1       0.002  -0.004  -0.004  0.00  0.00    +0.034 A 
BRANCH  21  25
ATOM     25  O   UNL     1       3.547   2.112  -0.046  0.00  0.00    -0.507 OA
ATOM     26  H   UNL     1       3.594   2.787  -0.736  0.00  0.00    +0.292 HD
ENDBRANCH  21  25
ENDBRANCH  15  24
ENDBRANCH   1  16
TORSDOF 4
