REMARK  Name = ZINC09281090
REMARK  3 active torsions:
REMARK  status: ('A' for Active; 'I' for Inactive)
REMARK    1  A    between atoms: C_15  and  C_17
REMARK    2  A    between atoms: N_19  and  C_20
REMARK    3  A    between atoms: C_24  and  N_26
REMARK                            x       y       z     vdW  Elec       q    Type
REMARK                         _______ _______ _______ _____ _____    ______ ____
ROOT
ATOM      1  C   UNL     1       2.092   5.396   0.407  0.00  0.00    +0.001 A 
ATOM      2  C   UNL     1       0.905   6.035   0.095  0.00  0.00    +0.000 A 
ATOM      3  C   UNL     1      -0.215   5.296  -0.248  0.00  0.00    +0.006 A 
ATOM      4  C   UNL     1      -0.150   3.922  -0.279  0.00  0.00    -0.021 A 
ATOM      5  C   UNL     1       1.048   3.267   0.030  0.00  0.00    -0.019 A 
ATOM      6  C   UNL     1       2.172   4.020   0.377  0.00  0.00    +0.008 A 
ATOM      7  C   UNL     1       1.125   1.793  -0.010  0.00  0.00    +0.022 C 
ATOM      8  C   UNL     1      -0.012   1.071  -0.003  0.00  0.00    +0.054 C 
ATOM      9  C   UNL     1      -1.358   3.095  -0.637  0.00  0.00    +0.100 C 
ATOM     10  C   UNL     1      -2.643   3.734  -0.108  0.00  0.00    +0.113 C 
ATOM     11  C   UNL     1      -3.129   2.791   1.031  0.00  0.00    +0.117 C 
ATOM     12  C   UNL     1      -2.444   1.447   0.708  0.00  0.00    +0.156 C 
ATOM     13  C   UNL     1      -4.611   2.669   0.732  0.00  0.00    +0.225 C 
ATOM     14  O   UNL     1      -5.459   2.279   1.505  0.00  0.00    -0.275 OA
ATOM     15  N   UNL     1      -4.826   3.066  -0.532  0.00  0.00    -0.256 N 
ATOM     16  C   UNL     1      -3.750   3.593  -1.134  0.00  0.00    +0.225 C 
ATOM     17  O   UNL     1      -3.675   3.904  -2.303  0.00  0.00    -0.275 OA
ATOM     18  H   UNL     1      -5.686   2.978  -0.972  0.00  0.00    +0.157 HD
ATOM     19  N   UNL     1      -1.366   1.699  -0.287  0.00  0.00    -0.383 NA
ATOM     20  H   UNL     1      -1.681   1.222  -1.140  0.00  0.00    +0.127 HD
ENDROOT
BRANCH  12  21
ATOM     21  C   UNL     1      -3.325   0.617  -0.189  0.00  0.00    +0.237 C 
ATOM     22  O   UNL     1      -3.110   0.577  -1.382  0.00  0.00    -0.273 OA
ATOM     23  N   UNL     1      -4.353  -0.080   0.334  0.00  0.00    -0.284 N 
ATOM     24  H   UNL     1      -4.485  -0.102   1.295  0.00  0.00    +0.155 HD
BRANCH  23  25
ATOM     25  C   UNL     1      -5.230  -0.773  -0.509  0.00  0.00    +0.036 A 
ATOM     26  C   UNL     1      -4.753  -1.371  -1.669  0.00  0.00    +0.025 A 
ATOM     27  C   UNL     1      -5.620  -2.054  -2.498  0.00  0.00    +0.024 A 
ATOM     28  C   UNL     1      -6.963  -2.143  -2.175  0.00  0.00    +0.071 A 
ATOM     29  C   UNL     1      -7.441  -1.548  -1.021  0.00  0.00    +0.146 A 
ATOM     30  C   UNL     1      -6.577  -0.868  -0.185  0.00  0.00    +0.057 A 
ATOM     31 CL   UNL     1      -8.051  -3.002  -3.221  0.00  0.00    -0.081 Cl
BRANCH  29  32
ATOM     32  N   UNL     1      -8.877  -1.646  -0.679  0.00  0.00    +0.058 N 
ATOM     33  O   UNL     1      -9.298  -1.122   0.337  0.00  0.00    -0.126 OA
ATOM     34  O   UNL     1      -9.639  -2.249  -1.413  0.00  0.00    -0.126 OA
ENDBRANCH  29  32
ENDBRANCH  23  25
ENDBRANCH  12  21
TORSDOF 3
