REMARK  Name = ZINC63736272
REMARK  7 active torsions:
REMARK  status: ('A' for Active; 'I' for Inactive)
REMARK    1  A    between atoms: C_1  and  C_2
REMARK    2  A    between atoms: C_4  and  C_25
REMARK    3  A    between atoms: C_5  and  C_9
REMARK    4  A    between atoms: C_6  and  C_8
REMARK    5  A    between atoms: C_9  and  N_10
REMARK    6  A    between atoms: N_15  and  C_16
REMARK    7  A    between atoms: N_23  and  C_24
REMARK                            x       y       z     vdW  Elec       q    Type
REMARK                         _______ _______ _______ _____ _____    ______ ____
ROOT
ATOM      1  N   UNL     1       1.447  -4.746  -0.032  0.00  0.00    -0.311 N 
ATOM      2  C   UNL     1       1.716  -6.095  -0.041  0.00  0.00    +0.198 A 
ATOM      3  N   UNL     1       0.810  -7.052  -0.046  0.00  0.00    -0.196 NA
ATOM      4  C   UNL     1       1.407  -8.245  -0.054  0.00  0.00    +0.170 A 
ATOM      5  C   UNL     1       2.781  -8.026  -0.053  0.00  0.00    +0.152 A 
ATOM      6  N   UNL     1       2.957  -6.649  -0.051  0.00  0.00    -0.309 N 
ATOM      7  C   UNL     1       4.234  -5.931  -0.054  0.00  0.00    +0.152 C 
ATOM      8  C   UNL     1       3.652  -9.130  -0.061  0.00  0.00    +0.280 A 
ATOM      9  O   UNL     1       4.859  -8.962  -0.060  0.00  0.00    -0.265 OA
ATOM     10  N   UNL     1       3.137 -10.377  -0.069  0.00  0.00    -0.273 N 
ATOM     11  H   UNL     1       3.735 -11.140  -0.073  0.00  0.00    +0.173 HD
ATOM     12  C   UNL     1       1.808 -10.577  -0.070  0.00  0.00    +0.331 A 
ATOM     13  O   UNL     1       1.380 -11.715  -0.076  0.00  0.00    -0.246 OA
ATOM     14  N   UNL     1       0.939  -9.549  -0.063  0.00  0.00    -0.280 N 
ATOM     15  C   UNL     1      -0.503  -9.809  -0.064  0.00  0.00    +0.155 C 
ATOM     16  H   UNL     1       2.176  -4.106  -0.032  0.00  0.00    +0.149 HD
ENDROOT
BRANCH   1  17
ATOM     17  C   UNL     1       0.059  -4.275  -0.021  0.00  0.00    +0.140 C 
BRANCH  17  22
ATOM     18  C   UNL     1      -0.018   1.503   0.010  0.00  0.00    +0.044 C 
ATOM     19  C   UNL     1       0.002  -0.004   0.002  0.00  0.00    -0.050 A 
ATOM     20  C   UNL     1       0.006  -0.689  -1.199  0.00  0.00    +0.007 A 
ATOM     21  C   UNL     1       0.025  -2.071  -1.206  0.00  0.00    -0.045 A 
ATOM     22  C   UNL     1       0.040  -2.768  -0.013  0.00  0.00    -0.024 A 
ATOM     23  C   UNL     1       0.037  -2.084   1.188  0.00  0.00    -0.045 A 
ATOM     24  C   UNL     1       0.023  -0.702   1.195  0.00  0.00    +0.007 A 
ATOM     25  C   UNL     1       0.054  -2.844   2.489  0.00  0.00    +0.044 C 
ATOM     26  C   UNL     1       0.027  -2.817  -2.516  0.00  0.00    +0.044 C 
ENDBRANCH  17  22
ENDBRANCH   1  17
TORSDOF 2
