REMARK  Name = ZINC64773133
REMARK  9 active torsions:
REMARK  status: ('A' for Active; 'I' for Inactive)
REMARK    1  A    between atoms: C_1  and  C_2
REMARK    2  A    between atoms: C_2  and  O_3
REMARK    3  A    between atoms: O_3  and  C_4
REMARK    4  A    between atoms: C_6  and  C_11
REMARK    5  A    between atoms: C_9  and  O_10
REMARK    6  A    between atoms: C_19  and  S_25
REMARK    7  A    between atoms: S_25  and  C_26
REMARK    8  A    between atoms: C_26  and  C_27
REMARK    9  A    between atoms: C_31  and  C_33
REMARK                            x       y       z     vdW  Elec       q    Type
REMARK                         _______ _______ _______ _____ _____    ______ ____
ROOT
ATOM      1  C   UNL     1       0.654  -4.954  -0.018  0.00  0.00    +0.047 C 
ATOM      2  C   UNL     1       0.560  -5.929  -1.195  0.00  0.00    +0.105 C 
ATOM      3  C   UNL     1      -0.495  -6.967  -0.950  0.00  0.00    +0.219 C 
ATOM      4  O   UNL     1      -0.938  -7.569  -1.904  0.00  0.00    -0.275 OA
ATOM      5  N   UNL     1      -0.975  -7.265   0.265  0.00  0.00    -0.273 N 
ATOM      6  C   UNL     1      -0.573  -6.567   1.369  0.00  0.00    +0.117 C 
ATOM      7  N   UNL     1      -1.278  -6.589   2.463  0.00  0.00    -0.212 NA
ATOM      8  C   UNL     1      -0.975  -5.828   3.523  0.00  0.00    +0.182 C 
ATOM      9  N   UNL     1       0.036  -4.972   3.510  0.00  0.00    -0.154 NA
ATOM     10  C   UNL     1       0.854  -4.875   2.472  0.00  0.00    +0.249 C 
ATOM     11  O   UNL     1       1.745  -4.048   2.488  0.00  0.00    -0.273 OA
ATOM     12  C   UNL     1       0.702  -5.767   1.279  0.00  0.00    +0.148 C 
ATOM     13  H   UNL     1      -1.617  -7.985   0.362  0.00  0.00    +0.156 HD
ENDROOT
BRANCH   1  16
ATOM     14  C   UNL     1      -1.501  -1.854   0.123  0.00  0.00    +0.162 A 
ATOM     15  C   UNL     1      -0.392  -2.685   0.113  0.00  0.00    +0.053 A 
ATOM     16  C   UNL     1      -0.553  -4.052  -0.008  0.00  0.00    -0.039 A 
ATOM     17  C   UNL     1      -1.820  -4.595  -0.121  0.00  0.00    +0.008 A 
ATOM     18  C   UNL     1      -2.931  -3.772  -0.113  0.00  0.00    +0.049 A 
ATOM     19  C   UNL     1      -2.776  -2.401   0.015  0.00  0.00    +0.158 A 
BRANCH  19  20
ATOM     20  O   UNL     1      -3.869  -1.590   0.029  0.00  0.00    -0.503 OA
ATOM     21  H   UNL     1      -4.141  -1.282  -0.846  0.00  0.00    +0.292 HD
ENDBRANCH  19  20
BRANCH  14  22
ATOM     22  O   UNL     1      -1.344  -0.509   0.242  0.00  0.00    -0.489 OA
BRANCH  22  24
ATOM     23  C   UNL     1      -0.030   1.506   0.474  0.00  0.00    +0.048 C 
ATOM     24  C   UNL     1      -0.006  -0.019   0.348  0.00  0.00    +0.226 C 
ENDBRANCH  22  24
ENDBRANCH  14  22
ENDBRANCH   1  16
BRANCH   8  25
ATOM     25  S   UNL     1      -1.954  -5.969   4.981  0.00  0.00    -0.084 S 
BRANCH  25  26
ATOM     26  C   UNL     1      -1.203  -4.784   6.131  0.00  0.00    +0.112 C 
BRANCH  26  27
ATOM     27  C   UNL     1      -1.955  -4.805   7.436  0.00  0.00    -0.037 A 
ATOM     28  C   UNL     1      -3.034  -3.961   7.626  0.00  0.00    +0.004 A 
ATOM     29  C   UNL     1      -3.724  -3.980   8.824  0.00  0.00    +0.001 A 
ATOM     30  C   UNL     1      -3.335  -4.843   9.832  0.00  0.00    +0.003 A 
ATOM     31  C   UNL     1      -2.258  -5.687   9.641  0.00  0.00    -0.050 A 
ATOM     32  C   UNL     1      -1.570  -5.671   8.442  0.00  0.00    +0.007 A 
ATOM     33  C   UNL     1      -1.834  -6.628  10.740  0.00  0.00    +0.044 C 
ENDBRANCH  26  27
ENDBRANCH  25  26
ENDBRANCH   8  25
TORSDOF 7
