REMARK  Name = ZINC67028260
REMARK  7 active torsions:
REMARK  status: ('A' for Active; 'I' for Inactive)
REMARK    1  A    between atoms: C_1  and  C_2
REMARK    2  A    between atoms: C_3  and  C_16
REMARK    3  A    between atoms: C_4  and  C_11
REMARK    4  A    between atoms: N_9  and  C_10
REMARK    5  A    between atoms: N_18  and  C_19
REMARK    6  A    between atoms: C_23  and  O_25
REMARK    7  A    between atoms: O_25  and  C_26
REMARK                            x       y       z     vdW  Elec       q    Type
REMARK                         _______ _______ _______ _____ _____    ______ ____
ROOT
ATOM      1  C   UNL     1      -0.030   1.411   0.423  0.00  0.00    +0.061 C 
ATOM      2  C   UNL     1       0.021  -0.084   0.243  0.00  0.00    +0.019 C 
ATOM      3  C   UNL     1      -1.110  -0.808   0.382  0.00  0.00    +0.058 C 
ATOM      4  C   UNL     1      -1.015  -2.309   0.191  0.00  0.00    +0.160 C 
ATOM      5  N   UNL     1       0.313  -2.857  -0.132  0.00  0.00    -0.314 N 
ATOM      6  C   UNL     1       1.351  -2.004  -0.238  0.00  0.00    +0.137 C 
ATOM      7  S   UNL     1       2.901  -2.628  -0.614  0.00  0.00    -0.018 S 
ATOM      8  N   UNL     1       1.209  -0.684  -0.064  0.00  0.00    -0.289 N 
ATOM      9  C   UNL     1       2.395   0.164  -0.206  0.00  0.00    +0.137 C 
ATOM     10  H   UNL     1       0.438  -3.810  -0.265  0.00  0.00    +0.149 HD
ENDROOT
BRANCH   4  11
ATOM     11  C   UNL     1      -1.493  -2.969   1.458  0.00  0.00    +0.097 A 
ATOM     12  C   UNL     1      -2.486  -3.896   1.468  0.00  0.00    +0.094 A 
ATOM     13  S   UNL     1      -2.595  -4.273   3.101  0.00  0.00    +0.028 S 
ATOM     14  N   UNL     1      -1.442  -3.296   3.677  0.00  0.00    -0.110 NA
ATOM     15  N   UNL     1      -0.977  -2.694   2.638  0.00  0.00    -0.144 NA
ENDBRANCH   4  11
BRANCH   3  16
ATOM     16  C   UNL     1      -2.343  -0.187   0.695  0.00  0.00    +0.248 C 
ATOM     17  O   UNL     1      -2.396   1.020   0.844  0.00  0.00    -0.270 OA
ATOM     18  N   UNL     1      -3.458  -0.932   0.828  0.00  0.00    -0.282 N 
ATOM     19  H   UNL     1      -3.408  -1.898   0.755  0.00  0.00    +0.155 HD
BRANCH  18  20
ATOM     20  C   UNL     1      -4.688  -0.313   1.073  0.00  0.00    +0.037 A 
ATOM     21  C   UNL     1      -5.851  -0.832   0.518  0.00  0.00    +0.023 A 
ATOM     22  C   UNL     1      -7.066  -0.220   0.759  0.00  0.00    +0.005 A 
ATOM     23  C   UNL     1      -7.127   0.910   1.553  0.00  0.00    +0.046 A 
ATOM     24  C   UNL     1      -5.969   1.433   2.111  0.00  0.00    +0.122 A 
ATOM     25  C   UNL     1      -4.749   0.818   1.875  0.00  0.00    +0.069 A 
BRANCH  24  26
ATOM     26  O   UNL     1      -6.031   2.543   2.891  0.00  0.00    -0.495 OA
ATOM     27  C   UNL     1      -7.322   3.121   3.096  0.00  0.00    +0.277 C 
ENDBRANCH  24  26
ENDBRANCH  18  20
ENDBRANCH   3  16
TORSDOF 4
