REMARK  Name = ZINC39359617
REMARK  11 active torsions:
REMARK  status: ('A' for Active; 'I' for Inactive)
REMARK    1  A    between atoms: C_1  and  C_2
REMARK    2  A    between atoms: C_2  and  C_3
REMARK    3  A    between atoms: C_2  and  O_4
REMARK    4  A    between atoms: O_4  and  C_5
REMARK    5  A    between atoms: C_5  and  C_7
REMARK    6  A    between atoms: C_12  and  C_13
REMARK    7  A    between atoms: C_13  and  C_15
REMARK    8  A    between atoms: C_20  and  N_25
REMARK    9  A    between atoms: C_26  and  C_28
REMARK   10  A    between atoms: C_28  and  O_30
REMARK   11  A    between atoms: O_30  and  C_31
REMARK                            x       y       z     vdW  Elec       q    Type
REMARK                         _______ _______ _______ _____ _____    ______ ____
ROOT
ATOM      1  C   UNL     1      -2.321  -1.409   6.137  0.00  0.00    +0.024 A 
ATOM      2  C   UNL     1      -1.525  -1.606   7.346  0.00  0.00    +0.014 A 
ATOM      3  C   UNL     1      -2.093  -1.728   8.559  0.00  0.00    +0.028 A 
ATOM      4  C   UNL     1      -3.554  -1.664   8.695  0.00  0.00    +0.061 A 
ATOM      5  N   UNL     1      -4.342  -1.751   9.731  0.00  0.00    -0.348 N 
ATOM      6  C   UNL     1      -5.721  -1.613   9.248  0.00  0.00    +0.270 C 
ATOM      7  N   UNL     1      -5.635  -1.434   7.794  0.00  0.00    -0.348 N 
ATOM      8  C   UNL     1      -4.373  -1.464   7.470  0.00  0.00    +0.062 A 
ATOM      9  C   UNL     1      -3.681  -1.334   6.180  0.00  0.00    +0.039 A 
ATOM     10  H   UNL     1      -6.381  -1.316   7.185  0.00  0.00    +0.163 HD
ATOM     11  H   UNL     1      -4.066  -1.883  10.651  0.00  0.00    +0.163 HD
ENDROOT
BRANCH   6  12
ATOM     12  N   UNL     1      -6.355  -0.444   9.863  0.00  0.00    -0.269 N 
ATOM     13  C   UNL     1      -6.780  -0.503  11.140  0.00  0.00    +0.324 C 
ATOM     14  O   UNL     1      -6.639  -1.523  11.781  0.00  0.00    -0.263 OA
ATOM     15  H   UNL     1      -6.468   0.371   9.351  0.00  0.00    +0.153 HD
BRANCH  13  16
ATOM     16  C   UNL     1      -7.427   0.690  11.768  0.00  0.00    +0.394 C 
ATOM     17  O   UNL     1      -7.569   1.710  11.127  0.00  0.00    -0.240 OA
BRANCH  16  18
ATOM     18  O   UNL     1      -7.852   0.632  13.043  0.00  0.00    -0.461 OA
ATOM     19  C   UNL     1      -8.460   1.809  13.578  0.00  0.00    +0.280 C 
ENDBRANCH  16  18
ENDBRANCH  13  16
ENDBRANCH   6  12
BRANCH   1  20
ATOM     20  C   UNL     1      -1.634  -1.283   4.835  0.00  0.00    +0.194 C 
ATOM     21  O   UNL     1      -2.274  -1.044   3.830  0.00  0.00    -0.287 OA
BRANCH  20  27
ATOM     22  C   UNL     1       0.688  -0.412   5.176  0.00  0.00    +0.070 A 
ATOM     23  C   UNL     1       2.067  -0.585   5.100  0.00  0.00    +0.016 A 
ATOM     24  C   UNL     1       2.590  -1.765   4.606  0.00  0.00    +0.001 A 
ATOM     25  C   UNL     1       1.750  -2.782   4.186  0.00  0.00    +0.001 A 
ATOM     26  C   UNL     1       0.379  -2.630   4.254  0.00  0.00    +0.012 A 
ATOM     27  C   UNL     1      -0.167  -1.449   4.754  0.00  0.00    +0.036 A 
BRANCH  22  28
ATOM     28  C   UNL     1       0.123   0.848   5.703  0.00  0.00    +0.340 C 
ATOM     29  O   UNL     1      -1.076   1.036   5.673  0.00  0.00    -0.245 OA
BRANCH  28  30
ATOM     30  O   UNL     1       0.940   1.789   6.217  0.00  0.00    -0.458 OA
BRANCH  30  32
ATOM     31  C   UNL     1      -0.019   2.806   8.188  0.00  0.00    +0.052 C 
ATOM     32  C   UNL     1       0.327   2.982   6.708  0.00  0.00    +0.171 C 
ATOM     33  C   UNL     1       1.294   4.156   6.547  0.00  0.00    +0.052 C 
ENDBRANCH  30  32
ENDBRANCH  28  30
ENDBRANCH  22  28
ENDBRANCH  20  27
ENDBRANCH   1  20
TORSDOF 8
