REMARK  Name = ZINC57527295
REMARK  9 active torsions:
REMARK  status: ('A' for Active; 'I' for Inactive)
REMARK    1  A    between atoms: C_1  and  C_2
REMARK    2  A    between atoms: C_2  and  C_3
REMARK    3  A    between atoms: C_2  and  C_4
REMARK    4  A    between atoms: C_2  and  N_5
REMARK    5  A    between atoms: C_9  and  C_11
REMARK    6  A    between atoms: C_11  and  O_12
REMARK    7  A    between atoms: O_12  and  C_13
REMARK    8  A    between atoms: C_13  and  C_15
REMARK    9  A    between atoms: C_26  and  C_28
REMARK                            x       y       z     vdW  Elec       q    Type
REMARK                         _______ _______ _______ _____ _____    ______ ____
ROOT
ATOM      1  C   UNL     1       6.751   0.233  -6.264  0.00  0.00    +0.190 C 
ATOM      2  C   UNL     1       7.337   1.644  -6.280  0.00  0.00    +0.069 C 
ATOM      3  C   UNL     1       7.365   2.196  -7.681  0.00  0.00    -0.040 A 
ATOM      4  C   UNL     1       7.456   3.575  -7.829  0.00  0.00    +0.004 A 
ATOM      5  C   UNL     1       7.496   4.146  -9.084  0.00  0.00    +0.000 A 
ATOM      6  C   UNL     1       7.446   3.341 -10.207  0.00  0.00    +0.000 A 
ATOM      7  C   UNL     1       7.352   1.972 -10.063  0.00  0.00    +0.005 A 
ATOM      8  C   UNL     1       7.306   1.397  -8.801  0.00  0.00    -0.027 A 
ATOM      9  C   UNL     1       7.176  -0.103  -8.715  0.00  0.00    +0.144 C 
ATOM     10  N   UNL     1       7.402  -0.541  -7.334  0.00  0.00    -0.279 N 
ATOM     11  C   UNL     1       8.175  -1.609  -7.055  0.00  0.00    +0.249 C 
ATOM     12  O   UNL     1       8.266  -2.012  -5.911  0.00  0.00    -0.270 OA
ENDROOT
BRANCH  11  13
ATOM     13  C   UNL     1       8.912  -2.291  -8.139  0.00  0.00    +0.055 A 
ATOM     14  C   UNL     1      10.281  -2.069  -8.303  0.00  0.00    +0.014 A 
ATOM     15  C   UNL     1      10.963  -2.709  -9.316  0.00  0.00    +0.001 A 
ATOM     16  C   UNL     1      10.295  -3.569 -10.170  0.00  0.00    +0.001 A 
ATOM     17  C   UNL     1       8.940  -3.794 -10.015  0.00  0.00    +0.021 A 
ATOM     18  C   UNL     1       8.245  -3.165  -9.000  0.00  0.00    +0.053 A 
ATOM     19 CL   UNL     1       6.545  -3.454  -8.801  0.00  0.00    -0.083 Cl
ENDBRANCH  11  13
BRANCH   1  20
ATOM     20  C   UNL     1       7.019  -0.415  -4.930  0.00  0.00    +0.329 C 
ATOM     21  O   UNL     1       6.135  -1.006  -4.357  0.00  0.00    -0.249 OA
BRANCH  20  22
ATOM     22  O   UNL     1       8.240  -0.335  -4.379  0.00  0.00    -0.454 OA
BRANCH  22  23
ATOM     23  C   UNL     1       8.423  -0.972  -3.113  0.00  0.00    +0.328 C 
BRANCH  23  28
ATOM     24  N   UNL     1      11.928  -1.643   0.108  0.00  0.00    -0.294 N 
ATOM     25  C   UNL     1      11.523  -1.124  -1.068  0.00  0.00    +0.306 C 
ATOM     26  O   UNL     1      12.305  -0.501  -1.759  0.00  0.00    -0.252 OA
ATOM     27  N   UNL     1      10.251  -1.297  -1.478  0.00  0.00    -0.237 N 
ATOM     28  C   UNL     1       9.846  -0.779  -2.654  0.00  0.00    +0.258 C 
ATOM     29  O   UNL     1      10.626  -0.157  -3.343  0.00  0.00    -0.272 OA
ATOM     30  H   UNL     1      11.304  -2.140   0.660  0.00  0.00    +0.151 HD
ATOM     31  H   UNL     1       9.627  -1.795  -0.927  0.00  0.00    +0.159 HD
BRANCH  24  33
ATOM     32  C   UNL     1      13.605   0.041   0.689  0.00  0.00    +0.031 C 
ATOM     33  C   UNL     1      13.311  -1.455   0.554  0.00  0.00    +0.028 C 
ATOM     34  C   UNL     1      14.266  -2.072  -0.470  0.00  0.00    +0.031 C 
ATOM     35  C   UNL     1      13.507  -2.137   1.910  0.00  0.00    +0.031 C 
ENDBRANCH  24  33
ENDBRANCH  23  28
ENDBRANCH  22  23
ENDBRANCH  20  22
ENDBRANCH   1  20
TORSDOF 6
