REMARK  Name = ZINC18408035
REMARK  3 active torsions:
REMARK  status: ('A' for Active; 'I' for Inactive)
REMARK    1  A    between atoms: N_7  and  C_12
REMARK    2  A    between atoms: C_12  and  C_13
REMARK    3  A    between atoms: N_15  and  C_16
REMARK                            x       y       z     vdW  Elec       q    Type
REMARK                         _______ _______ _______ _____ _____    ______ ____
ROOT
ATOM      1  C   UNL     1      -2.895   4.250  -1.287  0.00  0.00    +0.231 C 
ATOM      2  O   UNL     1      -1.858   4.761  -0.920  0.00  0.00    -0.274 OA
ATOM      3  N   UNL     1      -3.842   5.002  -1.883  0.00  0.00    -0.308 N 
ATOM      4  H   UNL     1      -4.671   4.593  -2.176  0.00  0.00    +0.149 HD
ENDROOT
BRANCH   3   5
ATOM      5  C   UNL     1      -3.619   6.435  -2.087  0.00  0.00    +0.035 C 
ATOM      6  C   UNL     1      -3.404   7.116  -0.734  0.00  0.00    +0.029 C 
ATOM      7  C   UNL     1      -3.170   8.613  -0.947  0.00  0.00    -0.008 C 
ATOM      8  C   UNL     1      -4.390   9.225  -1.639  0.00  0.00    +0.007 C 
ATOM      9  C   UNL     1      -4.605   8.545  -2.992  0.00  0.00    -0.008 C 
ATOM     10  C   UNL     1      -4.838   7.048  -2.779  0.00  0.00    +0.029 C 
ATOM     11  C   UNL     1      -3.366   8.748  -3.867  0.00  0.00    +0.007 C 
ATOM     12  C   UNL     1      -2.147   8.135  -3.176  0.00  0.00    -0.008 C 
ATOM     13  C   UNL     1      -1.932   8.816  -1.823  0.00  0.00    +0.007 C 
ATOM     14  C   UNL     1      -2.380   6.638  -2.962  0.00  0.00    +0.029 C 
ENDBRANCH   3   5
BRANCH   1  15
ATOM     15  C   UNL     1      -3.125   2.776  -1.076  0.00  0.00    +0.213 C 
BRANCH  15  21
ATOM     16  C   UNL     1       1.804   1.621   1.494  0.00  0.00    +0.021 C 
ATOM     17  C   UNL     1       1.402   1.698  -0.002  0.00  0.00    +0.033 C 
ATOM     18  C   UNL     1      -0.013   1.086   0.008  0.00  0.00    +0.164 C 
ATOM     19  C   UNL     1      -0.887   1.659  -1.078  0.00  0.00    +0.244 C 
ATOM     20  O   UNL     1      -0.672   1.661  -2.271  0.00  0.00    -0.273 OA
ATOM     21  N   UNL     1      -1.957   2.189  -0.414  0.00  0.00    -0.215 N 
ATOM     22  C   UNL     1      -1.809   2.098   0.917  0.00  0.00    +0.312 C 
ATOM     23  O   UNL     1      -2.675   2.388   1.719  0.00  0.00    -0.252 OA
ATOM     24  N   UNL     1      -0.597   1.651   1.254  0.00  0.00    -0.274 N 
ATOM     25  C   UNL     1       0.465   1.536   2.260  0.00  0.00    +0.110 C 
ENDBRANCH  15  21
ENDBRANCH   1  15
TORSDOF 3
