REMARK  Name = ZINC06195865
REMARK  10 active torsions:
REMARK  status: ('A' for Active; 'I' for Inactive)
REMARK    1  A    between atoms: C_1  and  C_2
REMARK    2  A    between atoms: C_5  and  C_41
REMARK    3  A    between atoms: C_6  and  N_8
REMARK    4  A    between atoms: C_13  and  C_15
REMARK    5  A    between atoms: C_13  and  C_29
REMARK    6  A    between atoms: C_13  and  N_74
REMARK    7  A    between atoms: C_19  and  O_27
REMARK    8  A    between atoms: O_27  and  C_28
REMARK    9  A    between atoms: N_33  and  C_34
REMARK   10  A    between atoms: C_34  and  C_35
REMARK                            x       y       z     vdW  Elec       q    Type
REMARK                         _______ _______ _______ _____ _____    ______ ____
ROOT
ATOM      1  C   UNL     1      -5.297  -2.056   0.058  0.00  0.00    +0.039 C 
ENDROOT
BRANCH   1   2
ATOM      2  C   UNL     1      -5.520  -2.660   1.420  0.00  0.00    +0.011 A 
ATOM      3  C   UNL     1      -6.671  -2.406   2.092  0.00  0.00    +0.017 A 
ATOM      4  C   UNL     1      -6.857  -3.008   3.413  0.00  0.00    +0.002 A 
ATOM      5  C   UNL     1      -8.024  -2.782   4.152  0.00  0.00    +0.055 A 
ATOM      6  C   UNL     1      -8.167  -3.365   5.394  0.00  0.00    +0.121 A 
ATOM      7  C   UNL     1      -7.159  -4.174   5.912  0.00  0.00    +0.047 A 
ATOM      8  C   UNL     1      -6.006  -4.404   5.195  0.00  0.00    +0.030 A 
ATOM      9  C   UNL     1      -5.841  -3.827   3.940  0.00  0.00    +0.049 A 
ATOM     10  N   UNL     1      -4.693  -4.046   3.205  0.00  0.00    -0.322 N 
ATOM     11  H   UNL     1      -3.993  -4.610   3.569  0.00  0.00    +0.169 HD
ATOM     12  C   UNL     1      -4.534  -3.493   1.990  0.00  0.00    +0.251 A 
ATOM     13  O   UNL     1      -3.509  -3.713   1.367  0.00  0.00    -0.268 OA
BRANCH   6  14
ATOM     14  O   UNL     1      -9.299  -3.148   6.117  0.00  0.00    -0.495 OA
ATOM     15  C   UNL     1      -9.383  -3.781   7.395  0.00  0.00    +0.277 C 
ENDBRANCH   6  14
ENDBRANCH   1   2
BRANCH   1  21
ATOM     16  N   UNL     1      -2.426   1.042   0.020  0.00  0.00    -0.333 N 
ATOM     17  C   UNL     1      -2.564   0.247   1.247  0.00  0.00    +0.086 C 
ATOM     18  C   UNL     1      -3.925  -0.454   1.247  0.00  0.00    -0.058 C 
ATOM     19  C   UNL     1      -3.896  -0.511  -1.172  0.00  0.00    -0.058 C 
ATOM     20  C   UNL     1      -2.535   0.190  -1.172  0.00  0.00    +0.086 C 
ATOM     21  N   UNL     1      -4.012  -1.325   0.056  0.00  0.00    +0.391 N 
ATOM     22  H   UNL     1      -3.242  -2.003   0.081  0.00  0.00    -0.080 HD
BRANCH  16  28
ATOM     23  C   UNL     1       2.488   1.048  -0.016  0.00  0.00    +0.044 C 
ATOM     24  C   UNL     1       1.173   1.783   0.000  0.00  0.00    -0.049 A 
ATOM     25  C   UNL     1       1.155   3.166   0.007  0.00  0.00    +0.004 A 
ATOM     26  C   UNL     1      -0.049   3.845   0.022  0.00  0.00    +0.005 A 
ATOM     27  C   UNL     1      -1.239   3.144   0.030  0.00  0.00    -0.029 A 
ATOM     28  C   UNL     1      -1.225   1.755   0.017  0.00  0.00    +0.033 A 
ATOM     29  C   UNL     1      -0.013   1.076   0.008  0.00  0.00    +0.026 A 
ATOM     30  C   UNL     1      -2.551   3.884   0.047  0.00  0.00    +0.045 C 
ENDBRANCH  16  28
ENDBRANCH   1  21
BRANCH   1  31
ATOM     31  C   UNL     1      -5.233  -3.153  -0.974  0.00  0.00    +0.143 A 
ATOM     32  N   UNL     1      -4.234  -3.976  -1.179  0.00  0.00    -0.115 NA
ATOM     33  N   UNL     1      -4.560  -4.766  -2.144  0.00  0.00    -0.023 NA
ATOM     34  N   UNL     1      -5.742  -4.467  -2.559  0.00  0.00    -0.044 NA
ATOM     35  N   UNL     1      -6.192  -3.481  -1.859  0.00  0.00    -0.228 N 
BRANCH  35  36
ATOM     36  C   UNL     1      -7.500  -2.838  -2.002  0.00  0.00    +0.178 C 
BRANCH  36  37
ATOM     37  C   UNL     1      -7.395  -1.687  -3.004  0.00  0.00    +0.140 C 
ATOM     38  C   UNL     1      -8.739  -0.930  -3.076  0.00  0.00    +0.035 C 
ATOM     39  C   UNL     1      -8.861  -0.619  -4.593  0.00  0.00    +0.031 C 
ATOM     40  C   UNL     1      -8.194  -1.875  -5.206  0.00  0.00    +0.160 C 
ATOM     41  O   UNL     1      -7.119  -2.203  -4.311  0.00  0.00    -0.375 OA
ENDBRANCH  36  37
ENDBRANCH  35  36
ENDBRANCH   1  31
TORSDOF 7
