REMARK  Name = ZINC39336693
REMARK  7 active torsions:
REMARK  status: ('A' for Active; 'I' for Inactive)
REMARK    1  A    between atoms: C_4  and  N_7
REMARK    2  A    between atoms: N_7  and  C_8
REMARK    3  A    between atoms: C_10  and  C_27
REMARK    4  A    between atoms: C_11  and  N_26
REMARK    5  A    between atoms: C_12  and  C_15
REMARK    6  A    between atoms: C_15  and  C_17
REMARK    7  A    between atoms: C_20  and  N_23
REMARK                            x       y       z     vdW  Elec       q    Type
REMARK                         _______ _______ _______ _____ _____    ______ ____
ROOT
ATOM      1  C   UNL     1       4.772  -1.559  -1.576  0.00  0.00    +0.146 C 
ATOM      2  C   UNL     1       5.979  -2.423  -2.022  0.00  0.00    +0.107 C 
ATOM      3  C   UNL     1       6.955  -2.597  -0.903  0.00  0.00    +0.028 C 
ATOM      4  C   UNL     1       6.544  -2.369   0.367  0.00  0.00    +0.074 C 
ATOM      5  S   UNL     1       4.834  -1.872   0.238  0.00  0.00    -0.097 S 
ENDROOT
BRANCH   2   6
ATOM      6  C   UNL     1       5.477  -3.797  -2.468  0.00  0.00    +0.185 C 
ATOM      7  N   UNL     1       6.597  -4.607  -2.963  0.00  0.00    -0.363 N 
ATOM      8  C   UNL     1       6.350  -4.895  -4.209  0.00  0.00    +0.060 A 
ATOM      9  C   UNL     1       7.087  -5.665  -5.221  0.00  0.00    +0.027 A 
ATOM     10  C   UNL     1       6.572  -5.798  -6.460  0.00  0.00    +0.002 A 
ATOM     11  C   UNL     1       5.344  -5.225  -6.836  0.00  0.00    +0.002 A 
ATOM     12  C   UNL     1       4.589  -4.501  -5.986  0.00  0.00    +0.027 A 
ATOM     13  C   UNL     1       5.050  -4.290  -4.607  0.00  0.00    +0.060 A 
ATOM     14  N   UNL     1       4.543  -3.651  -3.592  0.00  0.00    -0.363 N 
ATOM     15  H   UNL     1       7.378  -4.878  -2.456  0.00  0.00    +0.162 HD
ATOM     16  H   UNL     1       3.702  -3.168  -3.580  0.00  0.00    +0.162 HD
ENDBRANCH   2   6
BRANCH   3  18
ATOM     17  H   UNL     1       8.562  -3.044  -2.073  0.00  0.00    +0.142 HD
ATOM     18  N   UNL     1       8.246  -2.982  -1.158  0.00  0.00    -0.360 N 
ATOM     19  H   UNL     1       8.844  -3.191  -0.424  0.00  0.00    +0.142 HD
ENDBRANCH   3  18
BRANCH   1  20
ATOM     20  N   UNL     1       4.985  -0.143  -1.883  0.00  0.00    -0.331 N 
ATOM     21  H   UNL     1       5.836   0.275  -1.678  0.00  0.00    +0.147 HD
BRANCH  20  25
ATOM     22  C   UNL     1       1.937   2.090  -3.632  0.00  0.00    +0.000 A 
ATOM     23  C   UNL     1       1.750   0.743  -3.384  0.00  0.00    +0.002 A 
ATOM     24  C   UNL     1       2.759  -0.001  -2.804  0.00  0.00    +0.023 A 
ATOM     25  C   UNL     1       3.963   0.606  -2.470  0.00  0.00    +0.028 A 
ATOM     26  C   UNL     1       4.147   1.960  -2.721  0.00  0.00    +0.023 A 
ATOM     27  C   UNL     1       3.134   2.697  -3.301  0.00  0.00    +0.002 A 
ENDBRANCH  20  25
ENDBRANCH   1  20
BRANCH   4  28
ATOM     28  C   UNL     1       7.310  -2.498   1.551  0.00  0.00    +0.201 C 
ATOM     29  O   UNL     1       8.423  -2.991   1.505  0.00  0.00    -0.286 OA
BRANCH  28  30
ATOM     30  C   UNL     1       6.758  -2.035   2.843  0.00  0.00    +0.023 A 
ATOM     31  C   UNL     1       5.389  -2.132   3.095  0.00  0.00    +0.014 A 
ATOM     32  C   UNL     1       4.881  -1.698   4.303  0.00  0.00    +0.033 A 
ATOM     33  C   UNL     1       5.726  -1.169   5.262  0.00  0.00    +0.126 A 
ATOM     34  C   UNL     1       7.084  -1.071   5.018  0.00  0.00    +0.033 A 
ATOM     35  C   UNL     1       7.606  -1.505   3.817  0.00  0.00    +0.014 A 
BRANCH  33  36
ATOM     36  N   UNL     1       5.174  -0.706   6.555  0.00  0.00    +0.056 N 
ATOM     37  O   UNL     1       3.987  -0.790   6.771  0.00  0.00    -0.126 OA
ATOM     38  O   UNL     1       5.909  -0.243   7.396  0.00  0.00    -0.126 OA
ENDBRANCH  33  36
ENDBRANCH  28  30
ENDBRANCH   4  28
TORSDOF 7
