REMARK  Name = ZINC16554064
REMARK  9 active torsions:
REMARK  status: ('A' for Active; 'I' for Inactive)
REMARK    1  A    between atoms: C_1  and  C_2
REMARK    2  A    between atoms: C_3  and  C_9
REMARK    3  A    between atoms: C_4  and  N_7
REMARK    4  A    between atoms: N_7  and  C_8
REMARK    5  A    between atoms: C_9  and  O_11
REMARK    6  A    between atoms: O_11  and  C_12
REMARK    7  A    between atoms: C_12  and  C_14
REMARK    8  A    between atoms: C_12  and  C_15
REMARK    9  A    between atoms: N_17  and  C_18
REMARK                            x       y       z     vdW  Elec       q    Type
REMARK                         _______ _______ _______ _____ _____    ______ ____
ROOT
ATOM      1  C   UNL     1       2.234   4.186  -0.705  0.00  0.00    +0.258 C 
ATOM      2  O   UNL     1       3.083   3.455  -1.169  0.00  0.00    -0.271 OA
ATOM      3  N   UNL     1       2.357   5.523  -0.824  0.00  0.00    -0.282 N 
ATOM      4  H   UNL     1       1.647   6.106  -0.513  0.00  0.00    +0.155 HD
ENDROOT
BRANCH   3   5
ATOM      5  C   UNL     1       3.506   6.069  -1.396  0.00  0.00    +0.034 A 
ATOM      6  C   UNL     1       4.006   7.278  -0.926  0.00  0.00    +0.024 A 
ATOM      7  C   UNL     1       5.145   7.825  -1.481  0.00  0.00    +0.014 A 
ATOM      8  C   UNL     1       5.795   7.170  -2.527  0.00  0.00    +0.033 A 
ATOM      9  C   UNL     1       5.288   5.949  -3.010  0.00  0.00    +0.035 A 
ATOM     10  C   UNL     1       4.144   5.404  -2.440  0.00  0.00    +0.035 A 
ATOM     11  C   UNL     1       5.973   5.250  -4.119  0.00  0.00    +0.195 C 
ATOM     12  O   UNL     1       5.536   4.196  -4.536  0.00  0.00    -0.287 OA
ATOM     13  C   UNL     1       7.189   5.837  -4.719  0.00  0.00    +0.033 A 
ATOM     14  C   UNL     1       7.841   5.186  -5.763  0.00  0.00    +0.012 A 
ATOM     15  C   UNL     1       8.979   5.743  -6.319  0.00  0.00    +0.001 A 
ATOM     16  C   UNL     1       9.476   6.943  -5.843  0.00  0.00    +0.001 A 
ATOM     17  C   UNL     1       8.840   7.603  -4.806  0.00  0.00    +0.012 A 
ATOM     18  C   UNL     1       7.694   7.057  -4.235  0.00  0.00    +0.033 A 
ATOM     19  C   UNL     1       7.009   7.755  -3.127  0.00  0.00    +0.195 C 
ATOM     20  O   UNL     1       7.446   8.810  -2.710  0.00  0.00    -0.287 OA
ENDBRANCH   3   5
BRANCH   1  21
ATOM     21  C   UNL     1       1.042   3.600   0.006  0.00  0.00    +0.259 C 
ATOM     22  C   UNL     1       1.009   4.105   1.450  0.00  0.00    +0.062 C 
BRANCH  21  23
ATOM     23  O   UNL     1       1.140   2.151   0.002  0.00  0.00    -0.449 OA
BRANCH  23  24
ATOM     24  C   UNL     1      -0.018   1.459   0.002  0.00  0.00    +0.344 C 
ATOM     25  O   UNL     1      -1.080   2.051   0.000  0.00  0.00    -0.245 OA
BRANCH  24  28
ATOM     26  C   UNL     1       0.003  -0.060  -2.520  0.00  0.00    +0.067 C 
ATOM     27  C   UNL     1       0.015  -0.750  -1.180  0.00  0.00    +0.063 A 
ATOM     28  C   UNL     1       0.005  -0.006  -0.002  0.00  0.00    +0.109 A 
ATOM     29  C   UNL     1       0.023  -0.759   1.179  0.00  0.00    +0.100 A 
ATOM     30  S   UNL     1       0.042  -2.381   0.569  0.00  0.00    +0.027 S 
ATOM     31  N   UNL     1       0.035  -2.050  -1.106  0.00  0.00    -0.213 NA
BRANCH  29  32
ATOM     32  N   UNL     1       0.025  -0.323   2.488  0.00  0.00    -0.340 N 
ATOM     33  C   UNL     1       0.046  -1.295   3.583  0.00  0.00    +0.126 C 
ATOM     34  H   UNL     1       0.011   0.627   2.682  0.00  0.00    +0.146 HD
ENDBRANCH  29  32
ENDBRANCH  24  28
ENDBRANCH  23  24
ENDBRANCH  21  23
ENDBRANCH   1  21
TORSDOF 6
