REMARK  Name = ZINC09577464
REMARK  8 active torsions:
REMARK  status: ('A' for Active; 'I' for Inactive)
REMARK    1  A    between atoms: C_1  and  C_2
REMARK    2  A    between atoms: C_2  and  O_3
REMARK    3  A    between atoms: O_3  and  C_4
REMARK    4  A    between atoms: C_4  and  C_6
REMARK    5  A    between atoms: C_6  and  C_8
REMARK    6  A    between atoms: C_6  and  O_9
REMARK    7  A    between atoms: O_9  and  C_10
REMARK    8  A    between atoms: C_18  and  C_19
REMARK                            x       y       z     vdW  Elec       q    Type
REMARK                         _______ _______ _______ _____ _____    ______ ____
ROOT
ATOM      1  C   UNL     1       2.644   6.316  -1.522  0.00  0.00    +0.125 A 
ATOM      2  C   UNL     1       3.414   5.176  -1.738  0.00  0.00    +0.046 A 
ATOM      3  C   UNL     1       2.827   3.942  -1.748  0.00  0.00    +0.019 A 
ATOM      4  C   UNL     1       1.452   3.825  -1.543  0.00  0.00    +0.068 A 
ATOM      5  C   UNL     1       0.664   4.967  -1.324  0.00  0.00    +0.143 A 
ATOM      6  C   UNL     1       1.278   6.214  -1.316  0.00  0.00    +0.092 A 
ATOM      7  O   UNL     1      -0.625   4.605  -1.152  0.00  0.00    -0.451 OA
ATOM      8  C   UNL     1      -0.788   3.264  -1.244  0.00  0.00    +0.176 C 
ATOM      9  C   UNL     1      -1.960   2.588  -1.124  0.00  0.00    +0.061 C 
ATOM     10  C   UNL     1       0.533   2.673  -1.495  0.00  0.00    +0.231 C 
ATOM     11  O   UNL     1       0.808   1.494  -1.638  0.00  0.00    -0.283 OA
ENDROOT
BRANCH   9  12
ATOM     12  C   UNL     1      -3.224   3.325  -1.008  0.00  0.00    +0.022 A 
ATOM     13  C   UNL     1      -3.217   4.687  -0.681  0.00  0.00    +0.027 A 
ATOM     14  C   UNL     1      -4.409   5.372  -0.580  0.00  0.00    +0.019 A 
ATOM     15  C   UNL     1      -5.613   4.717  -0.788  0.00  0.00    +0.024 A 
ATOM     16  C   UNL     1      -5.634   3.371  -1.105  0.00  0.00    +0.022 A 
ATOM     17  C   UNL     1      -4.448   2.667  -1.219  0.00  0.00    +0.136 A 
ATOM     18  O   UNL     1      -4.454   1.348  -1.537  0.00  0.00    -0.465 OA
ATOM     19  C   UNL     1      -5.695   0.652  -1.386  0.00  0.00    +0.395 C 
ATOM     20  O   UNL     1      -6.733   1.433  -1.990  0.00  0.00    -0.339 OA
ATOM     21  C   UNL     1      -6.956   2.679  -1.322  0.00  0.00    +0.202 C 
ATOM     22 BR   UNL     1      -4.401   7.213  -0.149  0.00  0.00    -0.050 Br
ENDBRANCH   9  12
BRANCH   1  23
ATOM     23  O   UNL     1       3.237   7.537  -1.514  0.00  0.00    -0.478 OA
BRANCH  23  24
ATOM     24  C   UNL     1       4.662   7.566  -1.609  0.00  0.00    +0.278 C 
ATOM     25  C   UNL     1       5.078   7.415  -3.074  0.00  0.00    +0.064 C 
BRANCH  24  26
ATOM     26  C   UNL     1       5.174   8.879  -1.075  0.00  0.00    +0.348 C 
ATOM     27  O   UNL     1       4.398   9.704  -0.654  0.00  0.00    -0.247 OA
BRANCH  26  28
ATOM     28  O   UNL     1       6.493   9.131  -1.065  0.00  0.00    -0.462 OA
BRANCH  28  30
ATOM     29  C   UNL     1       8.439  10.521  -0.606  0.00  0.00    +0.048 C 
ATOM     30  C   UNL     1       6.914  10.415  -0.536  0.00  0.00    +0.229 C 
ENDBRANCH  28  30
ENDBRANCH  26  28
ENDBRANCH  24  26
ENDBRANCH  23  24
ENDBRANCH   1  23
TORSDOF 6
