REMARK  Name = ZINC06381893
REMARK  6 active torsions:
REMARK  status: ('A' for Active; 'I' for Inactive)
REMARK    1  A    between atoms: C_1  and  C_2
REMARK    2  A    between atoms: C_10  and  C_22
REMARK    3  A    between atoms: C_12  and  C_18
REMARK    4  A    between atoms: C_12  and  C_20
REMARK    5  A    between atoms: C_13  and  N_17
REMARK    6  A    between atoms: C_14  and  C_15
REMARK                            x       y       z     vdW  Elec       q    Type
REMARK                         _______ _______ _______ _____ _____    ______ ____
ROOT
ATOM      1  C   UNL     1      -0.255   0.221   0.176  0.00  0.00    +0.008 C 
ATOM      2  C   UNL     1      -0.254  -1.177   0.798  0.00  0.00    -0.010 C 
ATOM      3  C   UNL     1      -1.692  -1.595   1.135  0.00  0.00    +0.030 C 
ATOM      4  C   UNL     1      -2.260  -0.560   2.073  0.00  0.00    -0.022 C 
ATOM      5  C   UNL     1      -1.489   0.062   2.942  0.00  0.00    -0.029 C 
ATOM      6  C   UNL     1      -0.027  -0.225   3.118  0.00  0.00    +0.027 C 
ATOM      7  C   UNL     1       0.560  -1.164   2.090  0.00  0.00    +0.012 C 
ATOM      8  C   UNL     1       0.721   1.108   3.175  0.00  0.00    +0.043 C 
ATOM      9  C   UNL     1       0.250   1.886   4.405  0.00  0.00    +0.185 C 
ATOM     10  C   UNL     1      -1.245   1.964   4.473  0.00  0.00    +0.054 C 
ATOM     11  C   UNL     1      -2.073   1.118   3.810  0.00  0.00    +0.074 C 
ENDROOT
BRANCH   8  12
ATOM     12  C   UNL     1       2.225   0.848   3.275  0.00  0.00    +0.018 C 
ATOM     13  C   UNL     1       2.474  -0.338   4.210  0.00  0.00    +0.008 C 
ATOM     14  C   UNL     1       3.978  -0.419   4.501  0.00  0.00    +0.005 C 
ATOM     15  C   UNL     1       4.376   0.803   5.332  0.00  0.00    +0.027 C 
ATOM     16  C   UNL     1       3.846   2.055   4.696  0.00  0.00    -0.031 C 
ATOM     17  C   UNL     1       2.908   2.074   3.807  0.00  0.00    -0.027 C 
ENDBRANCH   8  12
BRANCH  10  18
ATOM     18  N   UNL     1      -1.806   2.942   5.247  0.00  0.00    -0.358 N 
ATOM     19  H   UNL     1      -1.238   3.561   5.732  0.00  0.00    +0.142 HD
ATOM     20  H   UNL     1      -2.771   3.017   5.310  0.00  0.00    +0.142 HD
ENDBRANCH  10  18
BRANCH  11  21
ATOM     21  C   UNL     1      -3.493   1.241   3.945  0.00  0.00    +0.101 C 
ATOM     22  N   UNL     1      -4.620   1.339   4.051  0.00  0.00    -0.191 NA
ENDBRANCH  11  21
BRANCH   9  23
ATOM     23  C   UNL     1       0.752   1.218   5.617  0.00  0.00    +0.091 C 
ATOM     24  N   UNL     1       1.139   0.702   6.552  0.00  0.00    -0.195 NA
ENDBRANCH   9  23
BRANCH   9  25
ATOM     25  C   UNL     1       0.800   3.250   4.349  0.00  0.00    +0.091 C 
ATOM     26  N   UNL     1       1.224   4.303   4.305  0.00  0.00    -0.195 NA
ENDBRANCH   9  25
TORSDOF 5
