REMARK  Name = ZINC20547319
REMARK  7 active torsions:
REMARK  status: ('A' for Active; 'I' for Inactive)
REMARK    1  A    between atoms: C_1  and  C_2
REMARK    2  A    between atoms: C_4  and  N_22
REMARK    3  A    between atoms: C_5  and  S_9
REMARK    4  A    between atoms: C_7  and  C_8
REMARK    5  A    between atoms: S_9  and  N_12
REMARK    6  A    between atoms: C_14  and  C_21
REMARK    7  A    between atoms: C_17  and  C_20
REMARK                            x       y       z     vdW  Elec       q    Type
REMARK                         _______ _______ _______ _____ _____    ______ ____
ROOT
ATOM      1  C   UNL     1      -7.627  -4.277   1.337  0.00  0.00    +0.044 C 
ATOM      2  C   UNL     1      -6.263  -3.937   0.794  0.00  0.00    -0.046 A 
ATOM      3  C   UNL     1      -5.992  -2.651   0.367  0.00  0.00    +0.028 A 
ATOM      4  C   UNL     1      -4.733  -2.338  -0.129  0.00  0.00    +0.051 A 
ATOM      5  C   UNL     1      -3.754  -3.321  -0.204  0.00  0.00    +0.126 A 
ATOM      6  C   UNL     1      -4.032  -4.604   0.226  0.00  0.00    +0.034 A 
ATOM      7  C   UNL     1      -5.285  -4.911   0.724  0.00  0.00    -0.046 A 
ATOM      8  C   UNL     1      -5.585  -6.312   1.191  0.00  0.00    +0.044 C 
ENDROOT
BRANCH   5   9
ATOM      9  S   UNL     1      -2.158  -2.930  -0.839  0.00  0.00    +0.063 S 
ATOM     10  O   UNL     1      -2.366  -2.221  -2.052  0.00  0.00    -0.153 OA
ATOM     11  O   UNL     1      -1.392  -4.126  -0.777  0.00  0.00    -0.153 OA
BRANCH   9  12
ATOM     12  N   UNL     1      -1.458  -1.865   0.218  0.00  0.00    -0.176 NA
ATOM     13  C   UNL     1      -0.777  -2.348   1.428  0.00  0.00    +0.112 C 
ATOM     14  C   UNL     1       0.641  -1.770   1.460  0.00  0.00    +0.002 C 
ATOM     15  C   UNL     1       0.569  -0.245   1.346  0.00  0.00    +0.009 C 
ATOM     16  C   UNL     1      -0.079   0.138   0.013  0.00  0.00    +0.002 C 
ATOM     17  C   UNL     1      -1.505  -0.418  -0.035  0.00  0.00    +0.112 C 
ATOM     18  C   UNL     1      -0.121   1.662  -0.114  0.00  0.00    +0.009 C 
ATOM     19  C   UNL     1       1.448  -2.332   0.288  0.00  0.00    +0.009 C 
ENDBRANCH   9  12
ENDBRANCH   5   9
BRANCH   4  20
ATOM     20  N   UNL     1      -4.453  -1.038  -0.558  0.00  0.00    -0.356 N 
ATOM     21  H   UNL     1      -3.456  -0.791  -0.951  0.00  0.00    +0.142 HD
ATOM     22  H   UNL     1      -5.231  -0.262  -0.502  0.00  0.00    +0.142 HD
ENDBRANCH   4  20
TORSDOF 3
