REMARK  Name = ZINC64640539
REMARK  8 active torsions:
REMARK  status: ('A' for Active; 'I' for Inactive)
REMARK    1  A    between atoms: C_1  and  C_2
REMARK    2  A    between atoms: C_2  and  C_3
REMARK    3  A    between atoms: C_5  and  C_22
REMARK    4  A    between atoms: C_10  and  C_21
REMARK    5  A    between atoms: N_11  and  C_12
REMARK    6  A    between atoms: C_12  and  C_13
REMARK    7  A    between atoms: N_18  and  C_19
REMARK    8  A    between atoms: C_19  and  C_20
REMARK                            x       y       z     vdW  Elec       q    Type
REMARK                         _______ _______ _______ _____ _____    ______ ____
ROOT
ATOM      1  C   UNL     1       0.998  -0.379  -1.344  0.00  0.00    +0.092 C 
ATOM      2  C   UNL     1       0.800  -1.895  -1.212  0.00  0.00    +0.166 C 
ATOM      3  C   UNL     1       1.932  -2.467  -0.397  0.00  0.00    +0.171 C 
ATOM      4  O   UNL     1       1.756  -3.482   0.249  0.00  0.00    -0.292 OA
ATOM      5  C   UNL     1       3.183  -1.840  -0.379  0.00  0.00    +0.065 C 
ATOM      6  C   UNL     1       3.399  -0.697  -1.073  0.00  0.00    +0.007 C 
ATOM      7  N   UNL     1       2.379  -0.135  -1.788  0.00  0.00    -0.331 N 
ATOM      8  C   UNL     1       4.758  -0.047  -1.055  0.00  0.00    +0.060 C 
ENDROOT
BRANCH   2   9
ATOM      9  C   UNL     1      -0.512  -2.173  -0.523  0.00  0.00    +0.228 C 
ATOM     10  O   UNL     1      -0.546  -2.318   0.680  0.00  0.00    -0.275 OA
ATOM     11  N   UNL     1      -1.646  -2.262  -1.246  0.00  0.00    -0.298 N 
ATOM     12  C   UNL     1      -1.584  -2.172  -2.708  0.00  0.00    +0.112 C 
ATOM     13  C   UNL     1      -2.195  -3.444  -3.326  0.00  0.00    +0.052 C 
ATOM     14  C   UNL     1      -3.482  -3.709  -2.584  0.00  0.00    -0.036 C 
ATOM     15  C   UNL     1      -4.718  -3.921  -3.018  0.00  0.00    -0.001 A 
ATOM     16  C   UNL     1      -5.265  -4.082  -4.375  0.00  0.00    +0.010 A 
ATOM     17  C   UNL     1      -6.609  -4.269  -4.461  0.00  0.00    +0.001 A 
ATOM     18  C   UNL     1      -7.452  -4.311  -3.347  0.00  0.00    +0.002 A 
ATOM     19  C   UNL     1      -7.034  -4.180  -2.063  0.00  0.00    +0.026 A 
ATOM     20  C   UNL     1      -5.639  -3.987  -1.843  0.00  0.00    +0.043 A 
ATOM     21  N   UNL     1      -4.972  -3.858  -0.735  0.00  0.00    -0.376 N 
ATOM     22  C   UNL     1      -3.549  -3.757  -1.062  0.00  0.00    +0.124 C 
ATOM     23  C   UNL     1      -2.933  -2.453  -0.559  0.00  0.00    +0.136 C 
ATOM     24  H   UNL     1      -5.352  -3.832   0.157  0.00  0.00    +0.160 HD
ENDBRANCH   2   9
BRANCH   1  26
ATOM     25  C   UNL     1       0.839   1.812  -0.154  0.00  0.00    +0.006 C 
ATOM     26  C   UNL     1       0.764   0.292   0.011  0.00  0.00    +0.020 C 
ENDBRANCH   1  26
BRANCH   7  27
ATOM     27  C   UNL     1       2.653   0.690  -2.967  0.00  0.00    +0.090 C 
BRANCH  27  28
ATOM     28  C   UNL     1       3.002   2.112  -2.525  0.00  0.00    -0.051 C 
ATOM     29  C   UNL     1       1.755   3.015  -2.629  0.00  0.00    -0.016 C 
ATOM     30  C   UNL     1       2.338   4.359  -3.140  0.00  0.00    -0.020 C 
ATOM     31  C   UNL     1       3.462   3.872  -4.088  0.00  0.00    -0.078 C 
ATOM     32  N   UNL     1       4.030   2.678  -3.419  0.00  0.00    +0.382 N 
ATOM     33  H   UNL     1       4.841   2.941  -2.879  0.00  0.00    -0.081 HD
BRANCH  32  34
ATOM     34  C   UNL     1       4.412   1.679  -4.426  0.00  0.00    -0.082 C 
ATOM     35  C   UNL     1       5.437   2.289  -5.385  0.00  0.00    -0.017 C 
ENDBRANCH  32  34
ENDBRANCH  27  28
ENDBRANCH   7  27
TORSDOF 5
