REMARK  Name = ZINC49212383
REMARK  4 active torsions:
REMARK  status: ('A' for Active; 'I' for Inactive)
REMARK    1  A    between atoms: C_1  and  C_2
REMARK    2  A    between atoms: C_2  and  N_9
REMARK    3  A    between atoms: N_9  and  N_10
REMARK    4  A    between atoms: N_13  and  C_14
REMARK                            x       y       z     vdW  Elec       q    Type
REMARK                         _______ _______ _______ _____ _____    ______ ____
ROOT
ATOM      1  N   UNL     1       0.144   0.009  -2.331  0.00  0.00    -0.234 N 
ATOM      2  C   UNL     1       0.664  -0.307  -3.534  0.00  0.00    +0.318 C 
ATOM      3  O   UNL     1       0.134   0.098  -4.550  0.00  0.00    -0.251 OA
ATOM      4  N   UNL     1       1.772  -1.070  -3.610  0.00  0.00    -0.267 N 
ATOM      5  H   UNL     1      -0.654   0.558  -2.276  0.00  0.00    +0.171 HD
ATOM      6  H   UNL     1       2.234  -1.336  -2.800  0.00  0.00    +0.156 HD
ENDROOT
BRANCH   4   7
ATOM      7  C   UNL     1       2.256  -1.478  -4.858  0.00  0.00    +0.053 A 
ATOM      8  C   UNL     1       2.156  -0.638  -5.964  0.00  0.00    +0.026 A 
ATOM      9  C   UNL     1       2.650  -1.087  -7.178  0.00  0.00    +0.021 A 
ATOM     10  C   UNL     1       3.222  -2.344  -7.251  0.00  0.00    +0.111 A 
ATOM     11  N   UNL     1       3.301  -3.115  -6.185  0.00  0.00    -0.261 NA
ATOM     12  C   UNL     1       2.849  -2.725  -5.010  0.00  0.00    +0.134 A 
ENDBRANCH   4   7
BRANCH   1  13
ATOM     13  N   UNL     1       0.740  -0.446  -1.189  0.00  0.00    -0.232 NA
ATOM     14  H   UNL     1       1.709  -0.167  -1.151  0.00  0.00    +0.145 HD
BRANCH  13  16
ATOM     15  C   UNL     1      -0.007   1.542   0.004  0.00  0.00    +0.031 C 
ATOM     16  C   UNL     1       0.013   0.013   0.003  0.00  0.00    +0.054 C 
ATOM     17  C   UNL     1      -1.425  -0.496  -0.080  0.00  0.00    +0.047 C 
ATOM     18  C   UNL     1      -1.545  -1.889   0.599  0.00  0.00    +0.168 C 
ATOM     19  S   UNL     1      -0.437  -1.618   2.052  0.00  0.00    -0.029 S 
ATOM     20  O   UNL     1       0.219  -2.837   2.372  0.00  0.00    -0.174 OA
ATOM     21  O   UNL     1      -1.153  -0.919   3.061  0.00  0.00    -0.174 OA
ATOM     22  C   UNL     1       0.765  -0.473   1.257  0.00  0.00    +0.189 C 
ENDBRANCH  13  16
ENDBRANCH   1  13
TORSDOF 3
