REMARK  Name = ZINC59734831
REMARK  5 active torsions:
REMARK  status: ('A' for Active; 'I' for Inactive)
REMARK    1  A    between atoms: C_1  and  C_2
REMARK    2  A    between atoms: C_4  and  C_8
REMARK    3  A    between atoms: N_5  and  C_7
REMARK    4  A    between atoms: C_14  and  C_16
REMARK    5  A    between atoms: C_16  and  C_17
REMARK                            x       y       z     vdW  Elec       q    Type
REMARK                         _______ _______ _______ _____ _____    ______ ____
ROOT
ATOM      1  C   UNL     1      -0.016  -3.233  -1.793  0.00  0.00    +0.268 C 
ATOM      2  O   UNL     1      -0.138  -3.001  -2.981  0.00  0.00    -0.268 OA
ATOM      3  N   UNL     1       0.090  -4.505  -1.362  0.00  0.00    -0.259 N 
ATOM      4  C   UNL     1       0.169  -5.545  -2.279  0.00  0.00    +0.165 A 
ATOM      5  N   UNL     1       0.162  -5.478  -3.593  0.00  0.00    -0.233 NA
ATOM      6  C   UNL     1       0.246  -6.569  -4.332  0.00  0.00    +0.124 A 
ATOM      7  C   UNL     1       0.338  -7.752  -3.676  0.00  0.00    +0.015 A 
ATOM      8  S   UNL     1       0.305  -7.196  -1.980  0.00  0.00    -0.057 S 
ATOM      9  H   UNL     1       0.111  -4.695  -0.411  0.00  0.00    +0.157 HD
ENDROOT
BRANCH   1  13
ATOM     10  C   UNL     1       0.101  -0.480   2.464  0.00  0.00    +0.067 C 
ATOM     11  C   UNL     1       0.068  -0.908   1.020  0.00  0.00    +0.061 A 
ATOM     12  C   UNL     1       0.042  -2.225   0.553  0.00  0.00    +0.057 A 
ATOM     13  C   UNL     1       0.017  -2.124  -0.827  0.00  0.00    +0.124 A 
ATOM     14  N   UNL     1       0.028  -0.788  -1.113  0.00  0.00    -0.262 N 
ATOM     15  N   UNL     1       0.053  -0.114  -0.020  0.00  0.00    -0.176 NA
ATOM     16  C   UNL     1       0.011  -0.212  -2.460  0.00  0.00    +0.173 C 
ENDBRANCH   1  13
BRANCH   7  17
ATOM     17  C   UNL     1       0.446  -9.151  -4.227  0.00  0.00    +0.080 C 
BRANCH  17  18
ATOM     18  C   UNL     1       1.898  -9.507  -4.412  0.00  0.00    -0.024 A 
ATOM     19  C   UNL     1       2.503  -9.325  -5.642  0.00  0.00    +0.007 A 
ATOM     20  C   UNL     1       3.835  -9.652  -5.813  0.00  0.00    +0.020 A 
ATOM     21  C   UNL     1       4.564 -10.161  -4.753  0.00  0.00    +0.042 A 
ATOM     22  C   UNL     1       3.959 -10.344  -3.522  0.00  0.00    +0.040 A 
ATOM     23  C   UNL     1       2.627 -10.012  -3.351  0.00  0.00    +0.046 A 
ATOM     24 CL   UNL     1       1.869 -10.235  -1.805  0.00  0.00    -0.083 Cl
ATOM     25 CL   UNL     1       6.237 -10.572  -4.968  0.00  0.00    -0.083 Cl
ENDBRANCH  17  18
ENDBRANCH   7  17
TORSDOF 3
