REMARK  Name = ZINC44175428
REMARK  7 active torsions:
REMARK  status: ('A' for Active; 'I' for Inactive)
REMARK    1  A    between atoms: C_1  and  C_2
REMARK    2  A    between atoms: C_2  and  C_3
REMARK    3  A    between atoms: C_2  and  C_4
REMARK    4  A    between atoms: N_10  and  C_11
REMARK    5  A    between atoms: C_11  and  C_12
REMARK    6  A    between atoms: C_11  and  C_13
REMARK    7  A    between atoms: C_11  and  C_14
REMARK                            x       y       z     vdW  Elec       q    Type
REMARK                         _______ _______ _______ _____ _____    ______ ____
ROOT
ATOM      1  C   UNL     1      -1.433  -0.534   0.013  0.00  0.00    +0.143 C 
ATOM      2  C   UNL     1      -1.460  -2.054   0.034  0.00  0.00    +0.232 C 
ATOM      3  O   UNL     1      -0.990  -2.693   0.952  0.00  0.00    -0.274 OA
ATOM      4  N   UNL     1      -2.026  -2.635  -1.009  0.00  0.00    -0.264 N 
ATOM      5  C   UNL     1      -2.563  -1.913  -2.057  0.00  0.00    +0.157 C 
ATOM      6  N   UNL     1      -3.143  -2.366  -3.132  0.00  0.00    -0.257 NA
ATOM      7  S   UNL     1      -2.275  -0.211  -1.592  0.00  0.00    -0.078 S 
ATOM      8  H   UNL     1      -2.066  -3.603  -1.040  0.00  0.00    +0.157 HD
ENDROOT
BRANCH   6   9
ATOM      9  C   UNL     1      -3.653  -1.431  -4.138  0.00  0.00    +0.056 C 
ATOM     10  C   UNL     1      -2.501  -0.578  -4.672  0.00  0.00    +0.036 C 
ATOM     11  C   UNL     1      -4.283  -2.216  -5.291  0.00  0.00    +0.036 C 
ATOM     12  C   UNL     1      -4.709  -0.524  -3.503  0.00  0.00    +0.036 C 
ENDBRANCH   6   9
BRANCH   1  14
ATOM     13  C   UNL     1      -0.019   1.526   0.010  0.00  0.00    +0.009 C 
ATOM     14  C   UNL     1       0.002  -0.004   0.002  0.00  0.00    +0.005 C 
ATOM     15  C   UNL     1       0.742  -0.511   1.242  0.00  0.00    +0.009 C 
ENDBRANCH   1  14
TORSDOF 2
