REMARK  Name = ZINC37006638
REMARK  10 active torsions:
REMARK  status: ('A' for Active; 'I' for Inactive)
REMARK    1  A    between atoms: C_1  and  C_2
REMARK    2  A    between atoms: C_7  and  N_12
REMARK    3  A    between atoms: C_9  and  C_11
REMARK    4  A    between atoms: C_13  and  C_15
REMARK    5  A    between atoms: C_15  and  C_39
REMARK    6  A    between atoms: C_18  and  C_34
REMARK    7  A    between atoms: N_24  and  C_25
REMARK    8  A    between atoms: C_25  and  C_26
REMARK    9  A    between atoms: C_31  and  O_32
REMARK   10  A    between atoms: O_32  and  C_33
REMARK                            x       y       z     vdW  Elec       q    Type
REMARK                         _______ _______ _______ _____ _____    ______ ____
ROOT
ATOM      1  C   UNL     1      -2.299  -3.409   1.730  0.00  0.00    +0.129 C 
ATOM      2  C   UNL     1      -2.652  -4.848   2.105  0.00  0.00    +0.157 C 
ATOM      3  N   UNL     1      -2.656  -5.674   0.894  0.00  0.00    -0.331 N 
ATOM      4  C   UNL     1      -2.390  -6.994   0.738  0.00  0.00    +0.085 A 
ATOM      5  C   UNL     1      -2.549  -7.312  -0.602  0.00  0.00    +0.032 A 
ATOM      6  C   UNL     1      -2.915  -6.146  -1.277  0.00  0.00    +0.033 A 
ATOM      7  C   UNL     1      -2.973  -5.141  -0.351  0.00  0.00    +0.105 A 
ATOM      8  C   UNL     1      -3.282  -3.716  -0.503  0.00  0.00    +0.264 C 
ATOM      9  O   UNL     1      -3.725  -3.264  -1.543  0.00  0.00    -0.268 OA
ATOM     10  N   UNL     1      -3.049  -2.931   0.574  0.00  0.00    -0.276 N 
ATOM     11  C   UNL     1      -2.598  -2.501   2.924  0.00  0.00    +0.043 C 
ENDROOT
BRANCH   4  12
ATOM     12  C   UNL     1      -2.000  -7.926   1.804  0.00  0.00    +0.151 A 
ATOM     13  C   UNL     1      -1.634  -9.229   1.635  0.00  0.00    +0.051 A 
ATOM     14  C   UNL     1      -1.346  -9.738   2.915  0.00  0.00    +0.042 A 
ATOM     15  C   UNL     1      -1.546  -8.735   3.795  0.00  0.00    +0.196 A 
ATOM     16  O   UNL     1      -1.935  -7.641   3.120  0.00  0.00    -0.461 OA
ENDBRANCH   4  12
BRANCH   1  18
ATOM     17  N   UNL     1      -0.382  -3.635   0.183  0.00  0.00    -0.310 N 
ATOM     18  C   UNL     1      -0.826  -3.334   1.419  0.00  0.00    +0.238 C 
ATOM     19  O   UNL     1      -0.040  -3.004   2.282  0.00  0.00    -0.273 OA
ATOM     20  H   UNL     1      -1.000  -3.963  -0.488  0.00  0.00    +0.149 HD
BRANCH  17  26
ATOM     21  C   UNL     1       0.873  -4.766  -3.769  0.00  0.00    +0.008 C 
ATOM     22  C   UNL     1       0.702  -4.777  -2.248  0.00  0.00    -0.009 C 
ATOM     23  C   UNL     1       1.506  -5.935  -1.653  0.00  0.00    +0.003 C 
ATOM     24  C   UNL     1       1.335  -5.946  -0.133  0.00  0.00    +0.002 C 
ATOM     25  C   UNL     1       1.840  -4.624   0.447  0.00  0.00    +0.022 C 
ATOM     26  C   UNL     1       1.036  -3.466  -0.148  0.00  0.00    +0.076 C 
ATOM     27  C   UNL     1       1.207  -3.454  -1.668  0.00  0.00    +0.009 C 
ATOM     28  C   UNL     1       0.403  -2.297  -2.263  0.00  0.00    +0.009 C 
ENDBRANCH  17  26
ENDBRANCH   1  18
BRANCH  10  29
ATOM     29  C   UNL     1      -3.565  -1.560   0.580  0.00  0.00    +0.148 C 
BRANCH  29  30
ATOM     30  C   UNL     1      -2.495  -0.618   0.087  0.00  0.00    +0.012 A 
ATOM     31  C   UNL     1      -1.709   0.069   0.992  0.00  0.00    +0.009 A 
ATOM     32  C   UNL     1      -0.729   0.933   0.542  0.00  0.00    +0.001 A 
ATOM     33  C   UNL     1      -0.531   1.111  -0.815  0.00  0.00    +0.004 A 
ATOM     34  C   UNL     1      -1.314   0.426  -1.724  0.00  0.00    +0.046 A 
ATOM     35  C   UNL     1      -2.296  -0.446  -1.274  0.00  0.00    +0.125 A 
BRANCH  35  36
ATOM     36  O   UNL     1      -3.063  -1.125  -2.166  0.00  0.00    -0.495 OA
ATOM     37  C   UNL     1      -2.802  -0.898  -3.553  0.00  0.00    +0.277 C 
ENDBRANCH  35  36
ENDBRANCH  29  30
ENDBRANCH  10  29
TORSDOF 6
