REMARK  Name = ZINC67261209
REMARK  9 active torsions:
REMARK  status: ('A' for Active; 'I' for Inactive)
REMARK    1  A    between atoms: C_1  and  C_2
REMARK    2  A    between atoms: C_2  and  N_3
REMARK    3  A    between atoms: C_4  and  C_25
REMARK    4  A    between atoms: C_5  and  C_9
REMARK    5  A    between atoms: C_6  and  C_8
REMARK    6  A    between atoms: C_9  and  N_10
REMARK    7  A    between atoms: N_13  and  C_14
REMARK    8  A    between atoms: C_17  and  C_24
REMARK    9  A    between atoms: N_19  and  C_23
REMARK                            x       y       z     vdW  Elec       q    Type
REMARK                         _______ _______ _______ _____ _____    ______ ____
ROOT
ATOM      1  N   UNL     1       4.292  -0.377   3.659  0.00  0.00    -0.295 N 
ATOM      2  C   UNL     1       5.513  -0.488   4.218  0.00  0.00    +0.304 C 
ATOM      3  O   UNL     1       6.077  -1.565   4.237  0.00  0.00    -0.252 OA
ATOM      4  N   UNL     1       6.109   0.594   4.756  0.00  0.00    -0.268 N 
ATOM      5  H   UNL     1       3.842   0.483   3.644  0.00  0.00    +0.151 HD
ATOM      6  H   UNL     1       5.690   1.466   4.681  0.00  0.00    +0.156 HD
ENDROOT
BRANCH   4   7
ATOM      7  C   UNL     1       7.335   0.460   5.423  0.00  0.00    +0.054 A 
ATOM      8  C   UNL     1       8.275  -0.456   4.982  0.00  0.00    +0.038 A 
ATOM      9  C   UNL     1       9.483  -0.549   5.684  0.00  0.00    +0.043 A 
ATOM     10  C   UNL     1      10.684  -1.365   5.537  0.00  0.00    +0.069 A 
ATOM     11  N   UNL     1      11.508  -1.028   6.487  0.00  0.00    -0.174 NA
ATOM     12  N   UNL     1      10.944  -0.025   7.282  0.00  0.00    -0.249 N 
ATOM     13  C   UNL     1       9.697   0.281   6.802  0.00  0.00    +0.158 A 
ATOM     14  N   UNL     1       8.761   1.142   7.180  0.00  0.00    -0.234 NA
ATOM     15  C   UNL     1       7.621   1.252   6.534  0.00  0.00    +0.136 A 
ATOM     16  C   UNL     1      11.582   0.598   8.443  0.00  0.00    +0.174 C 
ATOM     17  C   UNL     1      10.926  -2.409   4.478  0.00  0.00    +0.068 C 
ENDBRANCH   4   7
BRANCH   1  18
ATOM     18  C   UNL     1       3.643  -1.553   3.074  0.00  0.00    +0.144 C 
BRANCH  18  21
ATOM     19  N   UNL     1       0.725  -0.486   1.166  0.00  0.00    -0.268 N 
ATOM     20  C   UNL     1       2.049  -0.730   1.263  0.00  0.00    +0.041 A 
ATOM     21  C   UNL     1       2.297  -1.162   2.521  0.00  0.00    +0.013 A 
ATOM     22  C   UNL     1       1.084  -1.182   3.217  0.00  0.00    +0.065 A 
ATOM     23  N   UNL     1       0.142  -0.771   2.407  0.00  0.00    -0.176 NA
ATOM     24  C   UNL     1       0.896  -1.599   4.653  0.00  0.00    +0.068 C 
ATOM     25  C   UNL     1       3.067  -0.554   0.166  0.00  0.00    +0.065 C 
BRANCH  19  27
ATOM     26  C   UNL     1       0.005   1.528  -0.020  0.00  0.00    +0.029 C 
ATOM     27  C   UNL     1       0.023  -0.001  -0.025  0.00  0.00    +0.140 C 
ENDBRANCH  19  27
ENDBRANCH  18  21
ENDBRANCH   1  18
TORSDOF 4
