REMARK  Name = ZINC13205857
REMARK  9 active torsions:
REMARK  status: ('A' for Active; 'I' for Inactive)
REMARK    1  A    between atoms: C_1  and  C_2
REMARK    2  A    between atoms: C_5  and  C_8
REMARK    3  A    between atoms: C_11  and  S_16
REMARK    4  A    between atoms: N_12  and  C_13
REMARK    5  A    between atoms: C_13  and  C_14
REMARK    6  A    between atoms: S_16  and  C_17
REMARK    7  A    between atoms: C_17  and  C_18
REMARK    8  A    between atoms: N_23  and  C_24
REMARK    9  A    between atoms: C_30  and  C_32
REMARK                            x       y       z     vdW  Elec       q    Type
REMARK                         _______ _______ _______ _____ _____    ______ ____
ROOT
ATOM      1  S   UNL     1      -0.856  -1.593  -8.524  0.00  0.00    -0.077 S 
ENDROOT
BRANCH   1   5
ATOM      2  C   UNL     1      -2.662  -0.095 -11.648  0.00  0.00    +0.165 A 
ATOM      3  N   UNL     1      -3.133   0.636 -10.665  0.00  0.00    -0.128 NA
ATOM      4  N   UNL     1      -2.621   0.254  -9.550  0.00  0.00    -0.122 NA
ATOM      5  C   UNL     1      -1.791  -0.745  -9.753  0.00  0.00    +0.193 A 
ATOM      6  N   UNL     1      -1.783  -0.998 -11.095  0.00  0.00    -0.291 N 
BRANCH   2  11
ATOM      7  C   UNL     1      -4.003   0.399 -17.222  0.00  0.00    +0.044 C 
ATOM      8  C   UNL     1      -3.651   0.270 -15.763  0.00  0.00    -0.050 A 
ATOM      9  C   UNL     1      -3.077  -0.899 -15.293  0.00  0.00    +0.004 A 
ATOM     10  C   UNL     1      -2.753  -1.023 -13.958  0.00  0.00    +0.012 A 
ATOM     11  C   UNL     1      -3.006   0.032 -13.080  0.00  0.00    +0.019 A 
ATOM     12  C   UNL     1      -3.590   1.206 -13.559  0.00  0.00    +0.012 A 
ATOM     13  C   UNL     1      -3.904   1.319 -14.898  0.00  0.00    +0.004 A 
ENDBRANCH   2  11
BRANCH   6  14
ATOM     14  C   UNL     1      -1.004  -2.019 -11.799  0.00  0.00    +0.250 C 
BRANCH  14  15
ATOM     15  C   UNL     1      -1.786  -3.306 -11.843  0.00  0.00    +0.375 C 
ATOM     16  O   UNL     1      -2.883  -3.364 -11.338  0.00  0.00    -0.244 OA
ATOM     17  O   UNL     1      -1.265  -4.388 -12.443  0.00  0.00    -0.244 OA
ENDBRANCH  14  15
ENDBRANCH   6  14
ENDBRANCH   1   5
BRANCH   1  18
ATOM     18  C   UNL     1      -1.391  -0.696  -7.046  0.00  0.00    +0.173 C 
BRANCH  18  19
ATOM     19  C   UNL     1      -0.700  -1.266  -5.834  0.00  0.00    +0.231 C 
ATOM     20  O   UNL     1       0.077  -2.188  -5.958  0.00  0.00    -0.274 OA
ATOM     21  N   UNL     1      -0.947  -0.751  -4.614  0.00  0.00    -0.239 N 
ATOM     22  C   UNL     1      -0.329  -1.261  -3.530  0.00  0.00    +0.306 C 
ATOM     23  O   UNL     1       0.451  -2.185  -3.653  0.00  0.00    -0.252 OA
ATOM     24  N   UNL     1      -0.575  -0.746  -2.309  0.00  0.00    -0.296 N 
ATOM     25  H   UNL     1      -1.569  -0.013  -4.515  0.00  0.00    +0.159 HD
ATOM     26  H   UNL     1      -1.198  -0.008  -2.210  0.00  0.00    +0.151 HD
BRANCH  24  27
ATOM     27  C   UNL     1       0.096  -1.300  -1.131  0.00  0.00    +0.077 C 
ATOM     28  C   UNL     1       1.469  -0.643  -0.970  0.00  0.00    +0.022 C 
ATOM     29  C   UNL     1       1.293   0.867  -0.794  0.00  0.00    +0.002 C 
ATOM     30  C   UNL     1       0.447   1.141   0.452  0.00  0.00    +0.000 C 
ATOM     31  C   UNL     1      -0.925   0.483   0.290  0.00  0.00    +0.005 C 
ATOM     32  C   UNL     1      -0.750  -1.027   0.114  0.00  0.00    +0.006 C 
ATOM     33  C   UNL     1      -2.122  -1.684  -0.047  0.00  0.00    +0.009 C 
ENDBRANCH  24  27
ENDBRANCH  18  19
ENDBRANCH   1  18
TORSDOF 7
