REMARK  Name = ZINC52218668
REMARK  6 active torsions:
REMARK  status: ('A' for Active; 'I' for Inactive)
REMARK    1  A    between atoms: C_1  and  C_2
REMARK    2  A    between atoms: C_7  and  C_10
REMARK    3  A    between atoms: C_14  and  C_17
REMARK    4  A    between atoms: C_17  and  N_18
REMARK    5  A    between atoms: N_18  and  C_19
REMARK    6  A    between atoms: C_24  and  N_25
REMARK                            x       y       z     vdW  Elec       q    Type
REMARK                         _______ _______ _______ _____ _____    ______ ____
ROOT
ATOM      1  C   UNL     1       1.675   1.687   1.210  0.00  0.00    +0.039 C 
ATOM      2  C   UNL     1       1.750   0.160   1.258  0.00  0.00    +0.133 C 
ATOM      3  C   UNL     1       2.227  -0.372  -0.098  0.00  0.00    +0.137 C 
ATOM      4  N   UNL     1       3.627   0.037  -0.291  0.00  0.00    -0.312 N 
ATOM      5  C   UNL     1       4.584  -0.239   0.792  0.00  0.00    +0.137 C 
ATOM      6  C   UNL     1       3.992   0.287   2.105  0.00  0.00    +0.133 C 
ATOM      7  O   UNL     1       2.673  -0.241   2.273  0.00  0.00    -0.371 OA
ATOM      8  C   UNL     1       4.872  -0.155   3.276  0.00  0.00    +0.039 C 
ATOM      9  C   UNL     1       4.034   0.665  -1.462  0.00  0.00    +0.099 A 
ATOM     10  C   UNL     1       3.143   0.790  -2.524  0.00  0.00    +0.042 A 
ATOM     11  C   UNL     1       3.561   1.417  -3.683  0.00  0.00    +0.010 A 
ATOM     12  C   UNL     1       4.862   1.901  -3.743  0.00  0.00    -0.014 A 
ATOM     13  C   UNL     1       5.693   1.743  -2.652  0.00  0.00    +0.089 A 
ATOM     14  N   UNL     1       5.265   1.145  -1.556  0.00  0.00    -0.349 N 
ATOM     15  H   UNL     1       5.868   1.050  -0.802  0.00  0.00    +0.167 HD
ENDROOT
BRANCH  12  16
ATOM     16  C   UNL     1       5.361   2.591  -4.986  0.00  0.00    +0.138 C 
BRANCH  16  17
ATOM     17  N   UNL     1       5.094   4.028  -4.887  0.00  0.00    -0.338 N 
ATOM     18  H   UNL     1       4.657   4.387  -4.100  0.00  0.00    +0.146 HD
BRANCH  17  19
ATOM     19  C   UNL     1       5.470   4.882  -5.928  0.00  0.00    +0.058 A 
ATOM     20  C   UNL     1       6.173   4.383  -7.018  0.00  0.00    +0.026 A 
ATOM     21  C   UNL     1       6.543   5.228  -8.045  0.00  0.00    +0.022 A 
ATOM     22  C   UNL     1       6.215   6.572  -7.989  0.00  0.00    +0.043 A 
ATOM     23  C   UNL     1       5.515   7.071  -6.905  0.00  0.00    +0.054 A 
ATOM     24  C   UNL     1       5.137   6.229  -5.878  0.00  0.00    +0.148 A 
ATOM     25 CL   UNL     1       6.681   7.632  -9.282  0.00  0.00    -0.083 Cl
BRANCH  24  26
ATOM     26  N   UNL     1       4.383   6.763  -4.722  0.00  0.00    +0.058 N 
ATOM     27  O   UNL     1       3.506   6.102  -4.215  0.00  0.00    -0.126 OA
ATOM     28  O   UNL     1       4.644   7.859  -4.284  0.00  0.00    -0.126 OA
ENDBRANCH  24  26
ENDBRANCH  17  19
ENDBRANCH  16  17
ENDBRANCH  12  16
TORSDOF 4
