REMARK  Name = ZINC13687287
REMARK  5 active torsions:
REMARK  status: ('A' for Active; 'I' for Inactive)
REMARK    1  A    between atoms: C_1  and  N_2
REMARK    2  A    between atoms: C_4  and  C_11
REMARK    3  A    between atoms: N_12  and  N_13
REMARK    4  A    between atoms: N_13  and  C_14
REMARK    5  A    between atoms: C_14  and  N_16
REMARK                            x       y       z     vdW  Elec       q    Type
REMARK                         _______ _______ _______ _____ _____    ______ ____
ROOT
ATOM      1  C   UNL     1      -0.018   1.461   0.010  0.00  0.00    +0.149 C 
ATOM      2  N   UNL     1       0.002  -0.004   0.002  0.00  0.00    -0.349 N 
ATOM      3  C   UNL     1       0.008  -0.777  -1.121  0.00  0.00    +0.096 A 
ATOM      4  C   UNL     1       0.027  -2.092  -0.772  0.00  0.00    +0.020 A 
ATOM      5  C   UNL     1       0.034  -2.136   0.701  0.00  0.00    +0.008 A 
ATOM      6  C   UNL     1       0.024  -0.798   1.129  0.00  0.00    +0.049 A 
ATOM      7  C   UNL     1       0.032  -0.518   2.491  0.00  0.00    +0.026 A 
ATOM      8  C   UNL     1       0.054  -1.548   3.405  0.00  0.00    +0.002 A 
ATOM      9  C   UNL     1       0.068  -2.869   2.981  0.00  0.00    +0.001 A 
ATOM     10  C   UNL     1       0.051  -3.168   1.636  0.00  0.00    +0.010 A 
ENDROOT
BRANCH   4  11
ATOM     11  C   UNL     1       0.039  -3.245  -1.688  0.00  0.00    +0.140 C 
ATOM     12  N   UNL     1       0.057  -4.453  -1.210  0.00  0.00    -0.188 NA
BRANCH  12  13
ATOM     13  N   UNL     1       0.068  -5.550  -2.081  0.00  0.00    -0.219 N 
ATOM     14  H   UNL     1       0.062  -5.408  -3.041  0.00  0.00    +0.176 HD
BRANCH  13  15
ATOM     15  C   UNL     1       0.087  -6.803  -1.586  0.00  0.00    +0.147 C 
ATOM     16  S   UNL     1       0.101  -8.144  -2.650  0.00  0.00    -0.017 S 
BRANCH  15  17
ATOM     17  N   UNL     1       0.095  -7.001  -0.253  0.00  0.00    -0.339 N 
ATOM     18  H   UNL     1       0.087  -6.241   0.350  0.00  0.00    +0.144 HD
ATOM     19  H   UNL     1       0.108  -7.903   0.104  0.00  0.00    +0.144 HD
ENDBRANCH  15  17
ENDBRANCH  13  15
ENDBRANCH  12  13
ENDBRANCH   4  11
TORSDOF 4
