REMARK  Name = ZINC03329759
REMARK  5 active torsions:
REMARK  status: ('A' for Active; 'I' for Inactive)
REMARK    1  A    between atoms: C_6  and  C_7
REMARK    2  A    between atoms: C_10  and  S_12
REMARK    3  A    between atoms: S_12  and  C_13
REMARK    4  A    between atoms: C_13  and  C_14
REMARK    5  A    between atoms: N_16  and  C_17
REMARK                            x       y       z     vdW  Elec       q    Type
REMARK                         _______ _______ _______ _____ _____    ______ ____
ROOT
ATOM      1  C   UNL     1      -1.266  -0.762   0.010  0.00  0.00    +0.249 A 
ATOM      2  N   UNL     1      -2.474  -0.253   0.029  0.00  0.00    -0.106 NA
ATOM      3  N   UNL     1      -3.339  -1.206   0.027  0.00  0.00    -0.101 NA
ATOM      4  C   UNL     1      -2.717  -2.361   0.015  0.00  0.00    +0.278 A 
ATOM      5  O   UNL     1      -1.394  -2.107   0.004  0.00  0.00    -0.411 OA
ENDROOT
BRANCH   1  11
ATOM      6  C   UNL     1       1.222  -0.682  -0.013  0.00  0.00    +0.017 A 
ATOM      7  C   UNL     1       2.405   0.028  -0.021  0.00  0.00    +0.050 A 
ATOM      8  C   UNL     1       2.388   1.415  -0.013  0.00  0.00    +0.166 A 
ATOM      9  C   UNL     1       1.172   2.098   0.002  0.00  0.00    +0.167 A 
ATOM     10  C   UNL     1      -0.017   1.392   0.010  0.00  0.00    +0.062 A 
ATOM     11  C   UNL     1       0.002  -0.004   0.002  0.00  0.00    +0.042 A 
ATOM     12  O   UNL     1       1.426   3.439   0.007  0.00  0.00    -0.453 OA
ATOM     13  C   UNL     1       2.803   3.568   0.407  0.00  0.00    +0.466 C 
ATOM     14  O   UNL     1       3.401   2.329  -0.018  0.00  0.00    -0.453 OA
ENDBRANCH   1  11
BRANCH   4  15
ATOM     15  S   UNL     1      -3.473  -3.953   0.013  0.00  0.00    -0.056 S 
BRANCH  15  16
ATOM     16  C   UNL     1      -5.218  -3.471   0.033  0.00  0.00    +0.174 C 
BRANCH  16  17
ATOM     17  C   UNL     1      -6.080  -4.708   0.034  0.00  0.00    +0.224 C 
ATOM     18  O   UNL     1      -5.565  -5.806   0.023  0.00  0.00    -0.275 OA
ATOM     19  N   UNL     1      -7.423  -4.593   0.048  0.00  0.00    -0.312 N 
ATOM     20  H   UNL     1      -7.834  -3.715   0.056  0.00  0.00    +0.149 HD
BRANCH  19  21
ATOM     21  C   UNL     1      -8.261  -5.795   0.049  0.00  0.00    +0.073 C 
ATOM     22  C   UNL     1      -8.463  -6.277  -1.389  0.00  0.00    +0.022 C 
ATOM     23  C   UNL     1      -8.983  -7.716  -1.375  0.00  0.00    +0.002 C 
ATOM     24  C   UNL     1      -8.193  -8.535  -0.352  0.00  0.00    +0.000 C 
ATOM     25  C   UNL     1      -9.115  -8.935   0.801  0.00  0.00    +0.000 C 
ATOM     26  C   UNL     1      -9.349  -7.726   1.710  0.00  0.00    +0.000 C 
ATOM     27  C   UNL     1     -10.337  -6.769   1.040  0.00  0.00    +0.002 C 
ATOM     28  C   UNL     1      -9.619  -5.468   0.673  0.00  0.00    +0.022 C 
ENDBRANCH  19  21
ENDBRANCH  16  17
ENDBRANCH  15  16
ENDBRANCH   4  15
TORSDOF 5
