REMARK  Name = ZINC04885312
REMARK  6 active torsions:
REMARK  status: ('A' for Active; 'I' for Inactive)
REMARK    1  A    between atoms: C_1  and  C_2
REMARK    2  A    between atoms: C_2  and  C_26
REMARK    3  A    between atoms: C_7  and  C_9
REMARK    4  A    between atoms: N_16  and  C_19
REMARK    5  A    between atoms: C_26  and  O_28
REMARK    6  A    between atoms: O_28  and  C_29
REMARK                            x       y       z     vdW  Elec       q    Type
REMARK                         _______ _______ _______ _____ _____    ______ ____
ROOT
ATOM      1  C   UNL     1       2.395  -4.877  -0.911  0.00  0.00    +0.002 C 
ATOM      2  C   UNL     1       1.080  -4.432  -0.268  0.00  0.00    +0.041 C 
ATOM      3  C   UNL     1       1.283  -4.156   1.237  0.00  0.00    +0.086 C 
ATOM      4  C   UNL     1       1.546  -2.629   1.330  0.00  0.00    +0.080 C 
ATOM      5  C   UNL     1       1.476  -2.126  -0.127  0.00  0.00    +0.010 C 
ATOM      6  C   UNL     1       0.345  -2.114   2.091  0.00  0.00    +0.229 C 
ATOM      7  O   UNL     1       0.147  -0.955   2.386  0.00  0.00    -0.275 OA
ATOM      8  N   UNL     1      -0.465  -3.137   2.388  0.00  0.00    -0.210 N 
ATOM      9  C   UNL     1      -0.035  -4.328   1.956  0.00  0.00    +0.229 C 
ATOM     10  O   UNL     1      -0.614  -5.382   2.117  0.00  0.00    -0.275 OA
ATOM     11  N   UNL     1       0.667  -3.136  -0.808  0.00  0.00    +0.397 N 
ATOM     12  H   UNL     1      -0.330  -2.976  -0.623  0.00  0.00    -0.083 HD
ATOM     13  H   UNL     1       0.837  -3.104  -1.821  0.00  0.00    -0.083 HD
ENDROOT
BRANCH   8  14
ATOM     14  C   UNL     1      -1.666  -2.973   3.094  0.00  0.00    +0.044 A 
ATOM     15  C   UNL     1      -2.881  -3.185   2.457  0.00  0.00    +0.027 A 
ATOM     16  C   UNL     1      -4.062  -3.028   3.155  0.00  0.00    +0.040 A 
ATOM     17  C   UNL     1      -4.036  -2.649   4.487  0.00  0.00    +0.124 A 
ATOM     18  C   UNL     1      -2.825  -2.433   5.122  0.00  0.00    +0.040 A 
ATOM     19  C   UNL     1      -1.641  -2.594   4.429  0.00  0.00    +0.027 A 
ATOM     20  F   UNL     1      -5.192  -2.491   5.166  0.00  0.00    -0.205 F 
ENDBRANCH   8  14
BRANCH   5  21
ATOM     21  C   UNL     1       0.825  -0.768  -0.184  0.00  0.00    +0.092 A 
ATOM     22  C   UNL     1       1.462   0.404  -0.348  0.00  0.00    +0.043 A 
ATOM     23  C   UNL     1       0.472   1.414  -0.341  0.00  0.00    +0.041 A 
ATOM     24  C   UNL     1      -0.711   0.797  -0.173  0.00  0.00    +0.195 A 
ATOM     25  O   UNL     1      -0.492  -0.524  -0.078  0.00  0.00    -0.469 OA
ENDBRANCH   5  21
BRANCH   2  26
ATOM     26  C   UNL     1       0.016  -5.479  -0.473  0.00  0.00    +0.296 C 
ATOM     27  O   UNL     1       0.329  -6.632  -0.650  0.00  0.00    -0.252 OA
BRANCH  26  28
ATOM     28  O   UNL     1      -1.280  -5.130  -0.459  0.00  0.00    -0.469 OA
ATOM     29  C   UNL     1      -2.250  -6.191  -0.663  0.00  0.00    +0.280 C 
ENDBRANCH  26  28
ENDBRANCH   2  26
TORSDOF 4
