REMARK  Name = ZINC49366336
REMARK  7 active torsions:
REMARK  status: ('A' for Active; 'I' for Inactive)
REMARK    1  A    between atoms: C_1  and  O_2
REMARK    2  A    between atoms: O_2  and  C_3
REMARK    3  A    between atoms: C_8  and  N_9
REMARK    4  A    between atoms: C_10  and  C_12
REMARK    5  A    between atoms: C_12  and  N_13
REMARK    6  A    between atoms: C_16  and  C_19
REMARK    7  A    between atoms: C_22  and  C_24
REMARK                            x       y       z     vdW  Elec       q    Type
REMARK                         _______ _______ _______ _____ _____    ______ ____
ROOT
ATOM      1  N   UNL     1       0.822  -6.353   0.274  0.00  0.00    +0.385 N 
ATOM      2  C   UNL     1       0.175  -6.787  -0.970  0.00  0.00    -0.078 C 
ATOM      3  C   UNL     1      -0.238  -8.256  -0.848  0.00  0.00    -0.008 C 
ATOM      4  C   UNL     1       1.006  -9.111  -0.592  0.00  0.00    +0.043 C 
ATOM      5  C   UNL     1       1.714  -8.601   0.667  0.00  0.00    -0.008 C 
ATOM      6  C   UNL     1       2.055  -7.120   0.489  0.00  0.00    -0.078 C 
ATOM      7  H   UNL     1       0.194  -6.504   1.048  0.00  0.00    -0.081 HD
ENDROOT
BRANCH   4   8
ATOM      8  C   UNL     1       0.597 -10.548  -0.393  0.00  0.00    +0.106 A 
ATOM      9  N   UNL     1      -0.201 -11.062   0.515  0.00  0.00    -0.146 NA
ATOM     10  N   UNL     1      -0.457 -12.298   0.564  0.00  0.00    -0.138 NA
ATOM     11  C   UNL     1       0.103 -13.102  -0.337  0.00  0.00    +0.167 A 
ATOM     12  S   UNL     1       1.041 -11.909  -1.282  0.00  0.00    -0.047 S 
BRANCH  11  13
ATOM     13  C   UNL     1      -0.019 -14.559  -0.509  0.00  0.00    +0.161 A 
ATOM     14  C   UNL     1      -0.773 -15.394   0.258  0.00  0.00    +0.052 A 
ATOM     15  C   UNL     1      -0.596 -16.691  -0.260  0.00  0.00    +0.042 A 
ATOM     16  C   UNL     1       0.248 -16.587  -1.307  0.00  0.00    +0.196 A 
ATOM     17  O   UNL     1       0.590 -15.297  -1.458  0.00  0.00    -0.461 OA
ENDBRANCH  11  13
ENDBRANCH   4   8
BRANCH   1  18
ATOM     18  C   UNL     1       1.147  -4.923   0.181  0.00  0.00    +0.019 C 
BRANCH  18  20
ATOM     19  N   UNL     1      -0.074  -2.780  -0.012  0.00  0.00    -0.284 N 
ATOM     20  C   UNL     1      -0.127  -4.124   0.083  0.00  0.00    +0.201 C 
ATOM     21  O   UNL     1      -1.200  -4.689   0.090  0.00  0.00    -0.278 OA
ATOM     22  H   UNL     1       0.783  -2.334  -0.098  0.00  0.00    +0.155 HD
BRANCH  19  28
ATOM     23  C   UNL     1      -1.294  -0.766  -0.572  0.00  0.00    +0.141 A 
ATOM     24  C   UNL     1      -2.468  -0.030  -0.548  0.00  0.00    +0.047 A 
ATOM     25  C   UNL     1      -3.596  -0.546   0.062  0.00  0.00    +0.004 A 
ATOM     26  C   UNL     1      -3.557  -1.798   0.649  0.00  0.00    +0.002 A 
ATOM     27  C   UNL     1      -2.391  -2.538   0.629  0.00  0.00    +0.027 A 
ATOM     28  C   UNL     1      -1.256  -2.029   0.014  0.00  0.00    +0.076 A 
BRANCH  23  30
ATOM     29  C   UNL     1      -0.297   1.042  -1.753  0.00  0.00    +0.277 C 
ATOM     30  O   UNL     1      -0.184  -0.259  -1.172  0.00  0.00    -0.493 OA
ENDBRANCH  23  30
ENDBRANCH  19  28
ENDBRANCH  18  20
ENDBRANCH   1  18
TORSDOF 6
