REMARK  Name = ZINC33127135
REMARK  4 active torsions:
REMARK  status: ('A' for Active; 'I' for Inactive)
REMARK    1  A    between atoms: C_1  and  C_2
REMARK    2  A    between atoms: C_6  and  N_9
REMARK    3  A    between atoms: C_7  and  C_8
REMARK    4  A    between atoms: N_12  and  C_13
REMARK                            x       y       z     vdW  Elec       q    Type
REMARK                         _______ _______ _______ _____ _____    ______ ____
ROOT
ATOM      1  N   UNL     1       1.122   1.989  -0.006  0.00  0.00    -0.269 N 
ATOM      2  C   UNL     1       0.019   1.215   0.016  0.00  0.00    +0.308 C 
ATOM      3  O   UNL     1       0.125   0.004   0.010  0.00  0.00    -0.252 OA
ATOM      4  N   UNL     1      -1.202   1.784   0.041  0.00  0.00    -0.269 N 
ATOM      5  H   UNL     1       1.027   3.081  -0.093  0.00  0.00    +0.156 HD
ATOM      6  H   UNL     1      -1.302   2.877  -0.032  0.00  0.00    +0.156 HD
ENDROOT
BRANCH   4   7
ATOM      7  C   UNL     1      -2.346   0.984   0.158  0.00  0.00    +0.038 A 
ATOM      8  C   UNL     1      -3.435   1.441   0.874  0.00  0.00    +0.033 A 
ATOM      9  C   UNL     1      -4.575   0.638   0.988  0.00  0.00    +0.003 A 
ATOM     10  C   UNL     1      -5.747   1.091   1.740  0.00  0.00    +0.015 A 
ATOM     11  C   UNL     1      -6.824   0.271   1.818  0.00  0.00    +0.071 A 
ATOM     12  C   UNL     1      -6.805  -0.989   1.183  0.00  0.00    +0.249 A 
ATOM     13  O   UNL     1      -7.784  -1.711   1.266  0.00  0.00    -0.268 OA
ATOM     14  N   UNL     1      -5.734  -1.415   0.490  0.00  0.00    -0.320 N 
ATOM     15  H   UNL     1      -5.749  -2.402   0.006  0.00  0.00    +0.169 HD
ATOM     16  C   UNL     1      -4.606  -0.628   0.373  0.00  0.00    +0.085 A 
ATOM     17  C   UNL     1      -3.497  -1.071  -0.345  0.00  0.00    +0.149 A 
ATOM     18  C   UNL     1      -2.382  -0.268  -0.454  0.00  0.00    +0.063 A 
ATOM     19  F   UNL     1      -3.518  -2.284  -0.939  0.00  0.00    -0.203 F 
ENDBRANCH   4   7
BRANCH   1  25
ATOM     20  C   UNL     1       5.950   2.188  -0.913  0.00  0.00    +0.044 C 
ATOM     21  C   UNL     1       4.747   1.477  -0.349  0.00  0.00    -0.046 A 
ATOM     22  C   UNL     1       4.896   0.242   0.256  0.00  0.00    +0.004 A 
ATOM     23  C   UNL     1       3.795  -0.413   0.775  0.00  0.00    +0.002 A 
ATOM     24  C   UNL     1       2.542   0.163   0.689  0.00  0.00    +0.023 A 
ATOM     25  C   UNL     1       2.390   1.402   0.082  0.00  0.00    +0.038 A 
ATOM     26  C   UNL     1       3.497   2.056  -0.442  0.00  0.00    -0.026 A 
ATOM     27  C   UNL     1       3.336   3.399  -1.107  0.00  0.00    +0.046 C 
ENDBRANCH   1  25
TORSDOF 2
