REMARK  Name = ZINC36579857
REMARK  7 active torsions:
REMARK  status: ('A' for Active; 'I' for Inactive)
REMARK    1  A    between atoms: C_1  and  O_2
REMARK    2  A    between atoms: O_2  and  C_3
REMARK    3  A    between atoms: C_3  and  C_5
REMARK    4  A    between atoms: C_5  and  C_7
REMARK    5  A    between atoms: C_5  and  N_14
REMARK    6  A    between atoms: C_7  and  C_8
REMARK    7  A    between atoms: C_26  and  C_28
REMARK                            x       y       z     vdW  Elec       q    Type
REMARK                         _______ _______ _______ _____ _____    ______ ____
ROOT
ATOM      1  N   UNL     1       3.665  -2.320  -1.102  0.00  0.00    -0.286 N 
ATOM      2  C   UNL     1       2.844  -2.534  -2.149  0.00  0.00    +0.304 C 
ATOM      3  O   UNL     1       1.638  -2.505  -1.992  0.00  0.00    -0.253 OA
ATOM      4  N   UNL     1       3.359  -2.779  -3.370  0.00  0.00    -0.273 N 
ATOM      5  C   UNL     1       2.484  -2.892  -4.547  0.00  0.00    +0.116 C 
ATOM      6  C   UNL     1       2.574  -4.319  -5.103  0.00  0.00    +0.074 C 
ATOM      7  C   UNL     1       4.021  -4.733  -5.148  0.00  0.00    +0.040 A 
ATOM      8  C   UNL     1       5.018  -4.131  -4.464  0.00  0.00    +0.062 A 
ATOM      9  N   UNL     1       6.157  -4.766  -4.744  0.00  0.00    -0.348 N 
ATOM     10  C   UNL     1       5.909  -5.741  -5.580  0.00  0.00    +0.171 A 
ATOM     11  N   UNL     1       4.585  -5.751  -5.857  0.00  0.00    -0.349 N 
ATOM     12  H   UNL     1       4.124  -6.366  -6.448  0.00  0.00    +0.166 HD
ATOM     13  C   UNL     1       4.812  -2.934  -3.559  0.00  0.00    +0.156 C 
ATOM     14  H   UNL     1       4.625  -2.399  -1.214  0.00  0.00    +0.151 HD
ATOM     15  H   UNL     1       7.030  -4.542  -4.385  0.00  0.00    +0.167 HD
ENDROOT
BRANCH  13  16
ATOM     16  C   UNL     1       5.381  -1.696  -4.202  0.00  0.00    -0.021 A 
ATOM     17  C   UNL     1       6.332  -0.946  -3.535  0.00  0.00    +0.007 A 
ATOM     18  C   UNL     1       6.854   0.190  -4.124  0.00  0.00    +0.020 A 
ATOM     19  C   UNL     1       6.425   0.577  -5.381  0.00  0.00    +0.041 A 
ATOM     20  C   UNL     1       5.473  -0.174  -6.048  0.00  0.00    +0.020 A 
ATOM     21  C   UNL     1       4.955  -1.313  -5.460  0.00  0.00    +0.007 A 
ATOM     22 CL   UNL     1       7.080   2.004  -6.122  0.00  0.00    -0.084 Cl
ENDBRANCH  13  16
BRANCH   1  23
ATOM     23  C   UNL     1       3.107  -1.968   0.207  0.00  0.00    +0.187 C 
BRANCH  23  24
ATOM     24  C   UNL     1       2.729  -3.226   0.946  0.00  0.00    +0.328 C 
ATOM     25  O   UNL     1       2.907  -4.305   0.432  0.00  0.00    -0.249 OA
BRANCH  24  27
ATOM     26  C   UNL     1       1.859  -4.379   2.817  0.00  0.00    +0.280 C 
ATOM     27  O   UNL     1       2.194  -3.147   2.175  0.00  0.00    -0.467 OA
ENDBRANCH  24  27
ENDBRANCH  23  24
BRANCH  23  28
ATOM     28  C   UNL     1       4.152  -1.196   1.016  0.00  0.00    +0.069 C 
BRANCH  28  29
ATOM     29  C   UNL     1       4.440   0.119   0.339  0.00  0.00    -0.045 A 
ATOM     30  C   UNL     1       5.442   0.203  -0.610  0.00  0.00    +0.004 A 
ATOM     31  C   UNL     1       5.706   1.409  -1.231  0.00  0.00    +0.000 A 
ATOM     32  C   UNL     1       4.968   2.531  -0.904  0.00  0.00    +0.000 A 
ATOM     33  C   UNL     1       3.966   2.447   0.044  0.00  0.00    +0.000 A 
ATOM     34  C   UNL     1       3.699   1.240   0.662  0.00  0.00    +0.004 A 
ENDBRANCH  28  29
ENDBRANCH  23  28
ENDBRANCH   1  23
TORSDOF 6
