REMARK  Name = ZINC38225405
REMARK  8 active torsions:
REMARK  status: ('A' for Active; 'I' for Inactive)
REMARK    1  A    between atoms: C_1  and  N_2
REMARK    2  A    between atoms: C_5  and  N_8
REMARK    3  A    between atoms: N_8  and  C_9
REMARK    4  A    between atoms: N_8  and  C_10
REMARK    5  A    between atoms: C_17  and  C_19
REMARK    6  A    between atoms: C_19  and  N_20
REMARK    7  A    between atoms: N_20  and  C_21
REMARK    8  A    between atoms: N_20  and  C_22
REMARK                            x       y       z     vdW  Elec       q    Type
REMARK                         _______ _______ _______ _____ _____    ______ ____
ROOT
ATOM      1  C   UNL     1      -0.335  -2.482   3.071  0.00  0.00    +0.107 A 
ATOM      2  C   UNL     1       0.368  -3.065   2.061  0.00  0.00    +0.042 A 
ATOM      3  C   UNL     1       1.165  -4.187   2.315  0.00  0.00    +0.007 A 
ATOM      4  C   UNL     1       1.237  -4.695   3.578  0.00  0.00    +0.045 A 
ATOM      5  C   UNL     1       0.505  -4.083   4.613  0.00  0.00    +0.117 A 
ATOM      6  N   UNL     1      -0.266  -2.982   4.342  0.00  0.00    -0.289 N 
ATOM      7  C   UNL     1      -0.849  -2.600   5.523  0.00  0.00    +0.116 A 
ATOM      8  C   UNL     1      -0.424  -3.459   6.473  0.00  0.00    +0.048 A 
ATOM      9  N   UNL     1       0.389  -4.356   5.906  0.00  0.00    -0.342 N 
ATOM     10  H   UNL     1       0.831  -5.085   6.368  0.00  0.00    +0.167 HD
ENDROOT
BRANCH   1  11
ATOM     11  N   UNL     1      -1.120  -1.374   2.810  0.00  0.00    -0.318 N 
ATOM     12  C   UNL     1      -0.822  -0.095   3.460  0.00  0.00    +0.131 C 
BRANCH  11  17
ATOM     13  C   UNL     1      -3.332   1.248  -0.362  0.00  0.00    -0.096 C 
ATOM     14  N   UNL     1      -3.413  -0.017   0.381  0.00  0.00    +0.379 N 
ATOM     15  C   UNL     1      -4.023   0.204   1.718  0.00  0.00    -0.077 C 
ATOM     16  C   UNL     1      -3.548  -0.995   2.566  0.00  0.00    +0.002 C 
ATOM     17  C   UNL     1      -2.251  -1.479   1.884  0.00  0.00    +0.056 C 
ATOM     18  C   UNL     1      -2.052  -0.531   0.682  0.00  0.00    -0.057 C 
ATOM     19  H   UNL     1      -3.941  -0.700  -0.141  0.00  0.00    -0.082 HD
ENDBRANCH  11  17
ENDBRANCH   1  11
BRANCH   8  20
ATOM     20  C   UNL     1      -0.811  -3.421   7.929  0.00  0.00    +0.139 C 
BRANCH  20  21
ATOM     21  N   UNL     1      -1.943  -4.329   8.159  0.00  0.00    -0.291 NA
ATOM     22  C   UNL     1      -1.500  -5.730   8.166  0.00  0.00    +0.106 C 
BRANCH  21  23
ATOM     23  C   UNL     1      -2.644  -3.991   9.405  0.00  0.00    +0.106 C 
ATOM     24  C   UNL     1      -1.639  -3.955  10.554  0.00  0.00    +0.025 C 
ATOM     25  C   UNL     1      -2.342  -3.396  11.796  0.00  0.00    +0.007 C 
ATOM     26  C   UNL     1      -2.619  -1.911  11.565  0.00  0.00    +0.037 C 
ATOM     27  C   UNL     1      -3.308  -1.702  10.244  0.00  0.00    -0.025 A 
ATOM     28  C   UNL     1      -3.318  -2.652   9.249  0.00  0.00    +0.062 A 
ATOM     29  N   UNL     1      -3.938  -2.407   8.102  0.00  0.00    -0.258 NA
ATOM     30  C   UNL     1      -4.561  -1.273   7.866  0.00  0.00    +0.111 A 
ATOM     31  C   UNL     1      -4.594  -0.276   8.822  0.00  0.00    +0.020 A 
ATOM     32  C   UNL     1      -3.959  -0.491  10.032  0.00  0.00    +0.007 A 
ENDBRANCH  21  23
ENDBRANCH  20  21
ENDBRANCH   8  20
TORSDOF 5
