REMARK  Name = ZINC19254940
REMARK  4 active torsions:
REMARK  status: ('A' for Active; 'I' for Inactive)
REMARK    1  A    between atoms: C_4  and  S_8
REMARK    2  A    between atoms: C_5  and  N_7
REMARK    3  A    between atoms: S_8  and  N_11
REMARK    4  A    between atoms: N_11  and  C_12
REMARK                            x       y       z     vdW  Elec       q    Type
REMARK                         _______ _______ _______ _____ _____    ______ ____
ROOT
ATOM      1  S   UNL     1      -0.148   1.479  -0.029  0.00  0.00    +0.074 S 
ATOM      2  O   UNL     1       0.056   0.073  -0.007  0.00  0.00    -0.150 OA
ATOM      3  O   UNL     1       0.929   2.403  -0.106  0.00  0.00    -0.150 OA
ENDROOT
BRANCH   1   7
ATOM      4  C   UNL     1      -2.848   2.341  -3.565  0.00  0.00    +0.002 A 
ATOM      5  C   UNL     1      -2.430   1.048  -3.308  0.00  0.00    +0.002 A 
ATOM      6  C   UNL     1      -1.602   0.786  -2.232  0.00  0.00    +0.031 A 
ATOM      7  C   UNL     1      -1.198   1.815  -1.404  0.00  0.00    +0.129 A 
ATOM      8  C   UNL     1      -1.615   3.115  -1.659  0.00  0.00    +0.052 A 
ATOM      9  C   UNL     1      -2.443   3.375  -2.744  0.00  0.00    +0.025 A 
BRANCH   8  10
ATOM     10  N   UNL     1      -1.204   4.158  -0.826  0.00  0.00    -0.356 N 
ATOM     11  H   UNL     1      -1.535   5.187  -1.029  0.00  0.00    +0.142 HD
ATOM     12  H   UNL     1      -0.548   3.950   0.032  0.00  0.00    +0.142 HD
ENDBRANCH   8  10
ENDBRANCH   1   7
BRANCH   1  13
ATOM     13  N   UNL     1      -0.999   1.856   1.341  0.00  0.00    -0.216 N 
ATOM     14  H   UNL     1      -0.681   2.700   1.970  0.00  0.00    +0.174 HD
BRANCH  13  15
ATOM     15  C   UNL     1      -2.119   1.101   1.697  0.00  0.00    +0.048 A 
ATOM     16  C   UNL     1      -3.076   0.783   0.742  0.00  0.00    +0.025 A 
ATOM     17  C   UNL     1      -4.180   0.033   1.095  0.00  0.00    +0.017 A 
ATOM     18  C   UNL     1      -4.339  -0.394   2.402  0.00  0.00    +0.018 A 
ATOM     19  C   UNL     1      -3.390  -0.074   3.357  0.00  0.00    +0.017 A 
ATOM     20  C   UNL     1      -2.281   0.672   3.008  0.00  0.00    +0.025 A 
ATOM     21 BR   UNL     1      -5.856  -1.415   2.884  0.00  0.00    -0.050 Br
ENDBRANCH  13  15
ENDBRANCH   1  13
TORSDOF 4
