REMARK  Name = ZINC48300712
REMARK  8 active torsions:
REMARK  status: ('A' for Active; 'I' for Inactive)
REMARK    1  A    between atoms: C_1  and  C_2
REMARK    2  A    between atoms: C_6  and  N_8
REMARK    3  A    between atoms: C_9  and  C_11
REMARK    4  A    between atoms: C_11  and  O_12
REMARK    5  A    between atoms: O_12  and  C_13
REMARK    6  A    between atoms: C_13  and  C_15
REMARK    7  A    between atoms: C_16  and  C_21
REMARK    8  A    between atoms: C_19  and  N_20
REMARK                            x       y       z     vdW  Elec       q    Type
REMARK                         _______ _______ _______ _____ _____    ______ ____
ROOT
ATOM      1  N   UNL     1       0.049  -2.637   2.419  0.00  0.00    -0.266 N 
ATOM      2  C   UNL     1       0.045  -1.921   3.561  0.00  0.00    +0.256 C 
ATOM      3  O   UNL     1       0.028  -0.709   3.517  0.00  0.00    -0.272 OA
ATOM      4  H   UNL     1       0.063  -3.606   2.455  0.00  0.00    +0.156 HD
ENDROOT
BRANCH   1  10
ATOM      5  C   UNL     1      -0.018   1.503   0.010  0.00  0.00    +0.067 C 
ATOM      6  C   UNL     1       0.002  -0.004   0.002  0.00  0.00    +0.059 A 
ATOM      7  C   UNL     1       0.005  -0.680  -1.204  0.00  0.00    +0.063 A 
ATOM      8  C   UNL     1       0.024  -2.068  -1.205  0.00  0.00    +0.045 A 
ATOM      9  C   UNL     1       0.039  -2.729   0.012  0.00  0.00    +0.082 A 
ATOM     10  C   UNL     1       0.035  -1.984   1.187  0.00  0.00    +0.144 A 
ATOM     11  N   UNL     1       0.022  -0.661   1.146  0.00  0.00    -0.234 NA
ATOM     12 CL   UNL     1       0.062  -4.464   0.071  0.00  0.00    -0.080 Cl
ATOM     13 CL   UNL     1      -0.014   0.198  -2.701  0.00  0.00    -0.082 Cl
ENDBRANCH   1  10
BRANCH   2  14
ATOM     14  C   UNL     1       0.061  -2.626   4.893  0.00  0.00    +0.328 C 
BRANCH  14  15
ATOM     15  O   UNL     1       0.053  -1.659   5.945  0.00  0.00    -0.452 OA
BRANCH  15  16
ATOM     16  C   UNL     1       0.065  -2.128   7.209  0.00  0.00    +0.346 C 
ATOM     17  O   UNL     1       0.082  -3.328   7.412  0.00  0.00    -0.245 OA
BRANCH  16  18
ATOM     18  C   UNL     1       0.058  -1.194   8.337  0.00  0.00    +0.142 A 
ATOM     19  C   UNL     1      -1.087  -0.677   8.995  0.00  0.00    +0.097 A 
ATOM     20  N   UNL     1      -0.686   0.116   9.943  0.00  0.00    -0.081 NA
ATOM     21  O   UNL     1       0.728   0.152   9.945  0.00  0.00    -0.339 OA
ATOM     22  C   UNL     1       1.174  -0.652   8.969  0.00  0.00    +0.230 A 
ATOM     23  C   UNL     1      -2.521  -0.993   8.654  0.00  0.00    +0.070 C 
BRANCH  22  24
ATOM     24  N   UNL     1       2.485  -0.893   8.651  0.00  0.00    -0.327 N 
ATOM     25  H   UNL     1       2.704  -1.494   7.921  0.00  0.00    +0.145 HD
ATOM     26  H   UNL     1       3.193  -0.464   9.155  0.00  0.00    +0.145 HD
ENDBRANCH  22  24
ENDBRANCH  16  18
ENDBRANCH  15  16
ENDBRANCH  14  15
ENDBRANCH   2  14
TORSDOF 6
