REMARK  Name = ZINC05678875
REMARK  11 active torsions:
REMARK  status: ('A' for Active; 'I' for Inactive)
REMARK    1  A    between atoms: C_1  and  C_2
REMARK    2  A    between atoms: C_5  and  O_31
REMARK    3  A    between atoms: C_6  and  C_8
REMARK    4  A    between atoms: C_8  and  O_10
REMARK    5  A    between atoms: O_10  and  C_11
REMARK    6  A    between atoms: C_11  and  C_13
REMARK    7  A    between atoms: C_11  and  C_14
REMARK    8  A    between atoms: N_16  and  C_17
REMARK    9  A    between atoms: C_18  and  C_30
REMARK   10  A    between atoms: N_19  and  C_29
REMARK   11  A    between atoms: N_20  and  C_23
REMARK                            x       y       z     vdW  Elec       q    Type
REMARK                         _______ _______ _______ _____ _____    ______ ____
ROOT
ATOM      1  C   UNL     1       6.283   1.765   0.169  0.00  0.00    +0.258 C 
ATOM      2  O   UNL     1       5.872   2.849   0.528  0.00  0.00    -0.271 OA
ATOM      3  N   UNL     1       7.516   1.359   0.530  0.00  0.00    -0.277 N 
ATOM      4  H   UNL     1       7.816   0.464   0.307  0.00  0.00    +0.155 HD
ENDROOT
BRANCH   3   5
ATOM      5  C   UNL     1       8.368   2.233   1.234  0.00  0.00    +0.121 A 
ATOM      6  C   UNL     1       8.936   2.003   2.438  0.00  0.00    +0.059 A 
ATOM      7  N   UNL     1       9.694   3.092   2.780  0.00  0.00    -0.282 N 
ATOM      8  N   UNL     1       9.607   4.048   1.762  0.00  0.00    -0.216 N 
ATOM      9  C   UNL     1       8.809   3.557   0.793  0.00  0.00    +0.293 A 
ATOM     10  O   UNL     1       8.509   4.111  -0.250  0.00  0.00    -0.264 OA
ATOM     11  C   UNL     1      10.469   3.233   4.015  0.00  0.00    +0.171 C 
ATOM     12  C   UNL     1       8.765   0.755   3.267  0.00  0.00    +0.067 C 
BRANCH   8  13
ATOM     13  C   UNL     1      10.244   5.293   1.750  0.00  0.00    +0.067 A 
ATOM     14  C   UNL     1      10.176   6.121   2.863  0.00  0.00    +0.028 A 
ATOM     15  C   UNL     1      10.810   7.348   2.849  0.00  0.00    +0.002 A 
ATOM     16  C   UNL     1      11.503   7.757   1.724  0.00  0.00    +0.000 A 
ATOM     17  C   UNL     1      11.568   6.938   0.612  0.00  0.00    +0.002 A 
ATOM     18  C   UNL     1      10.941   5.707   0.622  0.00  0.00    +0.028 A 
ENDBRANCH   8  13
ENDBRANCH   3   5
BRANCH   1  19
ATOM     19  C   UNL     1       5.414   0.874  -0.680  0.00  0.00    +0.259 C 
ATOM     20  C   UNL     1       6.116   0.596  -2.011  0.00  0.00    +0.062 C 
BRANCH  19  21
ATOM     21  O   UNL     1       4.144   1.532  -0.931  0.00  0.00    -0.449 OA
BRANCH  21  22
ATOM     22  C   UNL     1       3.067   0.740  -1.100  0.00  0.00    +0.343 C 
ATOM     23  O   UNL     1       3.186  -0.468  -1.038  0.00  0.00    -0.245 OA
BRANCH  22  29
ATOM     24  C   UNL     1       0.215   4.778  -1.747  0.00  0.00    +0.044 C 
ATOM     25  C   UNL     1       0.366   3.280  -1.671  0.00  0.00    -0.049 A 
ATOM     26  C   UNL     1      -0.742   2.466  -1.844  0.00  0.00    +0.007 A 
ATOM     27  C   UNL     1      -0.616   1.093  -1.782  0.00  0.00    +0.046 A 
ATOM     28  C   UNL     1       0.622   0.518  -1.534  0.00  0.00    +0.131 A 
ATOM     29  C   UNL     1       1.745   1.339  -1.358  0.00  0.00    +0.101 A 
ATOM     30  C   UNL     1       1.604   2.727  -1.429  0.00  0.00    +0.022 A 
BRANCH  28  31
ATOM     31  O   UNL     1       0.746  -0.831  -1.467  0.00  0.00    -0.506 OA
ATOM     32  H   UNL     1       0.626  -1.193  -0.579  0.00  0.00    +0.292 HD
ENDBRANCH  28  31
ENDBRANCH  22  29
ENDBRANCH  21  22
ENDBRANCH  19  21
ENDBRANCH   1  19
TORSDOF 7
