REMARK  Name = ZINC22000760
REMARK  9 active torsions:
REMARK  status: ('A' for Active; 'I' for Inactive)
REMARK    1  A    between atoms: C_1  and  C_2
REMARK    2  A    between atoms: C_7  and  C_9
REMARK    3  A    between atoms: C_7  and  C_10
REMARK    4  A    between atoms: N_13  and  C_17
REMARK    5  A    between atoms: C_17  and  C_18
REMARK    6  A    between atoms: C_18  and  O_20
REMARK    7  A    between atoms: O_20  and  C_21
REMARK    8  A    between atoms: C_21  and  C_22
REMARK    9  A    between atoms: N_24  and  C_25
REMARK                            x       y       z     vdW  Elec       q    Type
REMARK                         _______ _______ _______ _____ _____    ______ ____
ROOT
ATOM      1  C   UNL     1      -1.993  -4.118  -3.055  0.00  0.00    +0.238 C 
ENDROOT
BRANCH   1  13
ATOM      2  C   UNL     1       0.066   1.544  -0.033  0.00  0.00    +0.007 C 
ATOM      3  C   UNL     1       0.079   0.012  -0.036  0.00  0.00    -0.011 C 
ATOM      4  C   UNL     1      -1.361  -0.505  -0.007  0.00  0.00    +0.038 C 
ATOM      5  C   UNL     1      -1.362  -2.027  -0.059  0.00  0.00    +0.113 C 
ATOM      6  C   UNL     1      -0.507  -2.653   1.024  0.00  0.00    +0.041 C 
ATOM      7  C   UNL     1       0.854  -2.014   1.236  0.00  0.00    -0.032 C 
ATOM      8  C   UNL     1       0.799  -0.491   1.213  0.00  0.00    +0.009 C 
ATOM      9  C   UNL     1       1.373  -2.445   2.626  0.00  0.00    +0.011 C 
ATOM     10  C   UNL     1       1.858  -2.519   0.197  0.00  0.00    +0.011 C 
ATOM     11  C   UNL     1      -0.989  -2.518  -1.436  0.00  0.00    +0.247 C 
ATOM     12  O   UNL     1      -0.005  -2.244  -2.089  0.00  0.00    -0.273 OA
ATOM     13  N   UNL     1      -2.001  -3.323  -1.825  0.00  0.00    -0.213 N 
ATOM     14  C   UNL     1      -3.009  -3.302  -0.947  0.00  0.00    +0.310 C 
ATOM     15  O   UNL     1      -4.039  -3.934  -1.084  0.00  0.00    -0.252 OA
ATOM     16  N   UNL     1      -2.753  -2.505   0.105  0.00  0.00    -0.285 N 
ATOM     17  H   UNL     1      -3.350  -2.280   0.833  0.00  0.00    +0.151 HD
ENDBRANCH   1  13
BRANCH   1  18
ATOM     18  C   UNL     1      -1.399  -5.474  -2.773  0.00  0.00    +0.326 C 
ATOM     19  O   UNL     1      -1.021  -5.748  -1.658  0.00  0.00    -0.249 OA
BRANCH  18  20
ATOM     20  O   UNL     1      -1.289  -6.378  -3.760  0.00  0.00    -0.454 OA
BRANCH  20  21
ATOM     21  C   UNL     1      -0.717  -7.642  -3.421  0.00  0.00    +0.328 C 
BRANCH  21  22
ATOM     22  C   UNL     1      -0.675  -8.519  -4.646  0.00  0.00    +0.255 C 
ATOM     23  O   UNL     1      -1.094  -8.102  -5.705  0.00  0.00    -0.272 OA
ATOM     24  N   UNL     1      -0.172  -9.767  -4.564  0.00  0.00    -0.280 N 
ATOM     25  H   UNL     1       0.222 -10.078  -3.734  0.00  0.00    +0.155 HD
BRANCH  24  26
ATOM     26  C   UNL     1      -0.218 -10.615  -5.678  0.00  0.00    +0.072 A 
ATOM     27  C   UNL     1      -0.077 -10.092  -6.956  0.00  0.00    +0.064 A 
ATOM     28  C   UNL     1      -0.122 -10.932  -8.054  0.00  0.00    +0.125 A 
ATOM     29  C   UNL     1      -0.309 -12.293  -7.879  0.00  0.00    +0.041 A 
ATOM     30  C   UNL     1      -0.451 -12.816  -6.607  0.00  0.00    +0.043 A 
ATOM     31  C   UNL     1      -0.400 -11.982  -5.505  0.00  0.00    +0.145 A 
ATOM     32  F   UNL     1      -0.533 -12.495  -4.263  0.00  0.00    -0.204 F 
ATOM     33  F   UNL     1       0.015 -10.424  -9.299  0.00  0.00    -0.205 F 
ENDBRANCH  24  26
ENDBRANCH  21  22
ENDBRANCH  20  21
ENDBRANCH  18  20
ENDBRANCH   1  18
TORSDOF 6
