REMARK  Name = ZINC63515053
REMARK  6 active torsions:
REMARK  status: ('A' for Active; 'I' for Inactive)
REMARK    1  A    between atoms: C_1  and  C_2
REMARK    2  A    between atoms: C_7  and  C_12
REMARK    3  A    between atoms: C_13  and  N_31
REMARK    4  A    between atoms: N_14  and  C_18
REMARK    5  A    between atoms: C_21  and  O_24
REMARK    6  A    between atoms: O_24  and  C_25
REMARK                            x       y       z     vdW  Elec       q    Type
REMARK                         _______ _______ _______ _____ _____    ______ ____
ROOT
ATOM      1  C   UNL     1      -1.417  -5.008   1.973  0.00  0.00    +0.074 C 
ATOM      2  C   UNL     1      -1.345  -6.230   2.601  0.00  0.00    +0.099 C 
ATOM      3  N   UNL     1      -2.584  -6.715   2.904  0.00  0.00    -0.281 N 
ATOM      4  C   UNL     1      -3.571  -5.730   2.437  0.00  0.00    +0.191 C 
ATOM      5  C   UNL     1      -2.744  -4.616   1.833  0.00  0.00    +0.183 C 
ATOM      6  O   UNL     1      -3.155  -3.589   1.326  0.00  0.00    -0.290 OA
ENDROOT
BRANCH   1  13
ATOM      7  C   UNL     1      -0.468   1.662   0.117  0.00  0.00    +0.044 C 
ATOM      8  C   UNL     1      -0.430   0.156   0.074  0.00  0.00    -0.048 A 
ATOM      9  C   UNL     1      -0.485  -0.484  -1.177  0.00  0.00    +0.005 A 
ATOM     10  C   UNL     1      -0.457  -1.826  -1.308  0.00  0.00    +0.027 A 
ATOM     11  C   UNL     1      -0.364  -2.670  -0.108  0.00  0.00    +0.060 A 
ATOM     12  N   UNL     1      -0.320  -3.959   0.065  0.00  0.00    -0.359 N 
ATOM     13  C   UNL     1      -0.229  -4.206   1.510  0.00  0.00    +0.212 C 
ATOM     14  N   UNL     1      -0.226  -2.887   2.156  0.00  0.00    -0.359 N 
ATOM     15  C   UNL     1      -0.305  -1.991   1.215  0.00  0.00    +0.061 A 
ATOM     16  C   UNL     1      -0.338  -0.522   1.235  0.00  0.00    +0.030 A 
ATOM     17  H   UNL     1      -0.343  -4.633  -0.632  0.00  0.00    +0.162 HD
ATOM     18  H   UNL     1      -0.175  -2.716   3.109  0.00  0.00    +0.162 HD
ENDBRANCH   1  13
BRANCH   3  19
ATOM     19  C   UNL     1      -2.865  -7.929   3.542  0.00  0.00    +0.036 A 
ATOM     20  C   UNL     1      -3.530  -8.937   2.857  0.00  0.00    +0.027 A 
ATOM     21  C   UNL     1      -3.807 -10.134   3.487  0.00  0.00    +0.048 A 
ATOM     22  C   UNL     1      -3.419 -10.330   4.805  0.00  0.00    +0.129 A 
ATOM     23  C   UNL     1      -2.754  -9.324   5.490  0.00  0.00    +0.048 A 
ATOM     24  C   UNL     1      -2.472  -8.128   4.859  0.00  0.00    +0.027 A 
BRANCH  22  25
ATOM     25  O   UNL     1      -3.692 -11.509   5.425  0.00  0.00    -0.456 OA
BRANCH  25  26
ATOM     26  C   UNL     1      -4.230 -12.511   4.682  0.00  0.00    +0.128 A 
ATOM     27  C   UNL     1      -3.478 -13.121   3.688  0.00  0.00    +0.046 A 
ATOM     28  C   UNL     1      -4.027 -14.140   2.935  0.00  0.00    +0.004 A 
ATOM     29  C   UNL     1      -5.326 -14.552   3.170  0.00  0.00    +0.000 A 
ATOM     30  C   UNL     1      -6.078 -13.946   4.159  0.00  0.00    +0.004 A 
ATOM     31  C   UNL     1      -5.531 -12.931   4.920  0.00  0.00    +0.046 A 
ENDBRANCH  25  26
ENDBRANCH  22  25
ENDBRANCH   3  19
BRANCH   2  32
ATOM     32  N   UNL     1      -0.174  -6.879   2.886  0.00  0.00    -0.346 N 
ATOM     33  H   UNL     1       0.670  -6.514   2.579  0.00  0.00    +0.143 HD
ATOM     34  H   UNL     1      -0.189  -7.704   3.396  0.00  0.00    +0.143 HD
ENDBRANCH   2  32
TORSDOF 5
