REMARK  Name = ZINC20232220
REMARK  11 active torsions:
REMARK  status: ('A' for Active; 'I' for Inactive)
REMARK    1  A    between atoms: C_1  and  C_2
REMARK    2  A    between atoms: C_2  and  O_3
REMARK    3  A    between atoms: O_3  and  C_4
REMARK    4  A    between atoms: C_7  and  S_10
REMARK    5  A    between atoms: S_10  and  N_13
REMARK    6  A    between atoms: N_13  and  C_14
REMARK    7  A    between atoms: N_13  and  C_30
REMARK    8  A    between atoms: C_14  and  C_15
REMARK    9  A    between atoms: N_17  and  N_18
REMARK   10  A    between atoms: C_19  and  C_20
REMARK   11  A    between atoms: C_33  and  C_36
REMARK                            x       y       z     vdW  Elec       q    Type
REMARK                         _______ _______ _______ _____ _____    ______ ____
ROOT
ATOM      1  N   UNL     1      -2.081  -6.839   1.568  0.00  0.00    -0.194 N 
ENDROOT
BRANCH   1   2
ATOM      2  C   UNL     1      -0.917  -7.289   2.196  0.00  0.00    +0.052 A 
ATOM      3  C   UNL     1      -0.555  -6.780   3.437  0.00  0.00    +0.025 A 
ATOM      4  C   UNL     1       0.596  -7.227   4.056  0.00  0.00    +0.005 A 
ATOM      5  C   UNL     1       1.388  -8.180   3.441  0.00  0.00    -0.050 A 
ATOM      6  C   UNL     1       1.030  -8.689   2.206  0.00  0.00    +0.005 A 
ATOM      7  C   UNL     1      -0.123  -8.250   1.584  0.00  0.00    +0.025 A 
ATOM      8  C   UNL     1       2.643  -8.665   4.119  0.00  0.00    +0.044 C 
ENDBRANCH   1   2
BRANCH   1   9
ATOM      9  S   UNL     1      -1.993  -6.120   0.079  0.00  0.00    +0.075 S 
ATOM     10  O   UNL     1      -3.221  -6.397  -0.579  0.00  0.00    -0.150 OA
ATOM     11  O   UNL     1      -0.734  -6.482  -0.473  0.00  0.00    -0.150 OA
BRANCH   9  15
ATOM     12  C   UNL     1      -1.868  -1.645   0.757  0.00  0.00    +0.121 A 
ATOM     13  C   UNL     1      -0.688  -2.373   0.704  0.00  0.00    +0.047 A 
ATOM     14  C   UNL     1      -0.729  -3.738   0.497  0.00  0.00    +0.032 A 
ATOM     15  C   UNL     1      -1.944  -4.379   0.343  0.00  0.00    +0.109 A 
ATOM     16  C   UNL     1      -3.121  -3.656   0.395  0.00  0.00    +0.032 A 
ATOM     17  C   UNL     1      -3.086  -2.291   0.607  0.00  0.00    +0.047 A 
BRANCH  12  18
ATOM     18  O   UNL     1      -1.830  -0.301   0.961  0.00  0.00    -0.492 OA
BRANCH  18  20
ATOM     19  C   UNL     1      -0.699   1.803   1.326  0.00  0.00    +0.048 C 
ATOM     20  C   UNL     1      -0.541   0.297   1.106  0.00  0.00    +0.225 C 
ENDBRANCH  18  20
ENDBRANCH  12  18
ENDBRANCH   9  15
ENDBRANCH   1   9
BRANCH   1  21
ATOM     21  C   UNL     1      -3.379  -7.003   2.226  0.00  0.00    +0.228 C 
BRANCH  21  22
ATOM     22  C   UNL     1      -3.923  -8.377   1.929  0.00  0.00    +0.251 C 
ATOM     23  O   UNL     1      -3.288  -9.144   1.236  0.00  0.00    -0.272 OA
ATOM     24  N   UNL     1      -5.114  -8.754   2.434  0.00  0.00    -0.206 N 
ATOM     25  H   UNL     1      -5.622  -8.141   2.989  0.00  0.00    +0.177 HD
BRANCH  24  26
ATOM     26  N   UNL     1      -5.619 -10.031   2.159  0.00  0.00    -0.188 NA
ATOM     27  C   UNL     1      -6.767 -10.394   2.645  0.00  0.00    +0.142 C 
BRANCH  27  28
ATOM     28  C   UNL     1      -7.298 -11.738   2.355  0.00  0.00    +0.040 A 
ATOM     29  C   UNL     1      -8.536 -12.130   2.872  0.00  0.00    +0.013 A 
ATOM     30  C   UNL     1      -9.029 -13.387   2.598  0.00  0.00    +0.004 A 
ATOM     31  C   UNL     1      -8.304 -14.266   1.813  0.00  0.00    +0.049 A 
ATOM     32  C   UNL     1      -7.073 -13.892   1.293  0.00  0.00    +0.163 A 
ATOM     33  C   UNL     1      -6.567 -12.626   1.554  0.00  0.00    +0.171 A 
ATOM     34  O   UNL     1      -5.369 -12.234   1.044  0.00  0.00    -0.484 OA
ATOM     35  C   UNL     1      -4.504 -13.269   0.565  0.00  0.00    +0.270 C 
ATOM     36  C   UNL     1      -5.335 -14.229  -0.297  0.00  0.00    +0.270 C 
ATOM     37  O   UNL     1      -6.376 -14.775   0.526  0.00  0.00    -0.485 OA
ENDBRANCH  27  28
ENDBRANCH  24  26
ENDBRANCH  21  22
ENDBRANCH   1  21
TORSDOF 9
