REMARK  Name = ZINC04520291
REMARK  5 active torsions:
REMARK  status: ('A' for Active; 'I' for Inactive)
REMARK    1  A    between atoms: C_1  and  C_2
REMARK    2  A    between atoms: C_10  and  C_22
REMARK    3  A    between atoms: C_12  and  C_13
REMARK    4  A    between atoms: C_12  and  N_47
REMARK    5  A    between atoms: C_13  and  C_14
REMARK                            x       y       z     vdW  Elec       q    Type
REMARK                         _______ _______ _______ _____ _____    ______ ____
ROOT
ATOM      1  C   UNL     1       6.343  -0.788   0.004  0.00  0.00    +0.045 C 
ATOM      2  C   UNL     1       4.899  -0.359  -0.022  0.00  0.00    -0.034 A 
ATOM      3  C   UNL     1       3.887  -1.316  -0.184  0.00  0.00    +0.008 A 
ATOM      4  C   UNL     1       2.584  -0.918  -0.209  0.00  0.00    +0.047 A 
ATOM      5  C   UNL     1       2.272   0.447  -0.072  0.00  0.00    +0.143 A 
ATOM      6  N   UNL     1       0.992   0.824  -0.108  0.00  0.00    -0.212 NA
ATOM      7  C   UNL     1       0.642   2.092   0.030  0.00  0.00    +0.147 A 
ATOM      8  C   UNL     1       1.639   3.075   0.236  0.00  0.00    +0.083 A 
ATOM      9  C   UNL     1       1.286   4.417   0.443  0.00  0.00    +0.033 A 
ATOM     10  C   UNL     1      -0.055   4.746   0.619  0.00  0.00    +0.077 A 
ATOM     11  C   UNL     1      -1.042   3.646   0.614  0.00  0.00    +0.118 A 
ATOM     12  N   UNL     1      -0.680   2.475  -0.042  0.00  0.00    -0.325 N 
ATOM     13  H   UNL     1      -1.332   1.949  -0.531  0.00  0.00    +0.169 HD
ATOM     14  C   UNL     1       2.998   2.669   0.244  0.00  0.00    +0.268 A 
ATOM     15  O   UNL     1       3.892   3.485   0.384  0.00  0.00    -0.267 OA
ATOM     16  N   UNL     1       3.280   1.355   0.093  0.00  0.00    -0.267 N 
ATOM     17  C   UNL     1       4.581   0.948   0.112  0.00  0.00    +0.099 A 
ATOM     18  N   UNL     1      -2.221   3.830   1.234  0.00  0.00    -0.370 N 
ATOM     19  H   UNL     1      -2.421   4.723   1.700  0.00  0.00    +0.161 HD
ENDROOT
BRANCH  10  20
ATOM     20  C   UNL     1      -0.474   6.140   0.805  0.00  0.00    +0.245 C 
ATOM     21  O   UNL     1      -1.652   6.405   0.957  0.00  0.00    -0.270 OA
ATOM     22  N   UNL     1       0.445   7.125   0.807  0.00  0.00    -0.325 N 
ATOM     23  H   UNL     1       1.383   6.914   0.685  0.00  0.00    +0.145 HD
ATOM     24  H   UNL     1       0.167   8.047   0.929  0.00  0.00    +0.145 HD
ENDBRANCH  10  20
BRANCH  18  25
ATOM     25  C   UNL     1      -3.245   2.729   1.245  0.00  0.00    +0.119 C 
BRANCH  25  26
ATOM     26  C   UNL     1      -3.542   2.364   2.701  0.00  0.00    +0.056 C 
BRANCH  26  27
ATOM     27  C   UNL     1      -4.605   1.296   2.744  0.00  0.00    -0.046 A 
ATOM     28  C   UNL     1      -5.939   1.652   2.808  0.00  0.00    +0.004 A 
ATOM     29  C   UNL     1      -6.915   0.673   2.844  0.00  0.00    +0.000 A 
ATOM     30  C   UNL     1      -6.555  -0.662   2.823  0.00  0.00    +0.000 A 
ATOM     31  C   UNL     1      -5.221  -1.017   2.764  0.00  0.00    +0.000 A 
ATOM     32  C   UNL     1      -4.245  -0.038   2.725  0.00  0.00    +0.004 A 
ENDBRANCH  26  27
ENDBRANCH  25  26
ENDBRANCH  18  25
TORSDOF 4
