REMARK  Name = ZINC18264378
REMARK  6 active torsions:
REMARK  status: ('A' for Active; 'I' for Inactive)
REMARK    1  A    between atoms: C_1  and  C_2
REMARK    2  A    between atoms: C_2  and  C_4
REMARK    3  A    between atoms: C_2  and  S_20
REMARK    4  A    between atoms: C_10  and  C_15
REMARK    5  A    between atoms: S_20  and  C_21
REMARK    6  A    between atoms: N_25  and  C_26
REMARK                            x       y       z     vdW  Elec       q    Type
REMARK                         _______ _______ _______ _____ _____    ______ ____
ROOT
ATOM      1  C   UNL     1       0.002  -0.004   0.002  0.00  0.00    +0.124 A 
ATOM      2  N   UNL     1       1.174  -0.690  -0.012  0.00  0.00    -0.309 N 
ATOM      3  H   UNL     1       1.157  -1.660  -0.017  0.00  0.00    +0.170 HD
ATOM      4  C   UNL     1       2.358  -0.051  -0.021  0.00  0.00    +0.260 A 
ATOM      5  O   UNL     1       3.401  -0.681  -0.034  0.00  0.00    -0.267 OA
ATOM      6  C   UNL     1       2.374   1.380  -0.014  0.00  0.00    +0.083 A 
ATOM      7  C   UNL     1       3.514   2.291  -0.021  0.00  0.00    +0.039 A 
ATOM      8  C   UNL     1       3.280   3.627  -0.011  0.00  0.00    +0.059 A 
ATOM      9  S   UNL     1       1.501   3.735   0.007  0.00  0.00    -0.076 S 
ATOM     10  C   UNL     1       1.115   2.003   0.002  0.00  0.00    +0.116 A 
ATOM     11  N   UNL     1      -0.016   1.302   0.009  0.00  0.00    -0.225 NA
ENDROOT
BRANCH   7  12
ATOM     12  C   UNL     1       4.896   1.768  -0.036  0.00  0.00    +0.136 A 
ATOM     13  C   UNL     1       5.883   2.147  -0.891  0.00  0.00    +0.050 A 
ATOM     14  C   UNL     1       7.028   1.400  -0.547  0.00  0.00    +0.042 A 
ATOM     15  C   UNL     1       6.684   0.604   0.484  0.00  0.00    +0.196 A 
ATOM     16  O   UNL     1       5.394   0.829   0.790  0.00  0.00    -0.463 OA
ENDBRANCH   7  12
BRANCH   1  18
ATOM     17  C   UNL     1      -1.818  -0.903  -1.423  0.00  0.00    +0.027 C 
ATOM     18  C   UNL     1      -1.300  -0.763   0.010  0.00  0.00    +0.117 C 
BRANCH  18  19
ATOM     19  S   UNL     1      -2.516   0.136   1.006  0.00  0.00    -0.075 S 
BRANCH  19  20
ATOM     20  C   UNL     1      -3.850  -1.014   0.971  0.00  0.00    +0.197 A 
ATOM     21  N   UNL     1      -3.863  -2.177   0.363  0.00  0.00    -0.122 NA
ATOM     22  N   UNL     1      -4.997  -2.754   0.545  0.00  0.00    -0.137 NA
ATOM     23  C   UNL     1      -5.771  -2.001   1.274  0.00  0.00    +0.230 A 
ATOM     24  N   UNL     1      -5.067  -0.866   1.577  0.00  0.00    -0.277 N 
BRANCH  24  25
ATOM     25  C   UNL     1      -5.505   0.222   2.347  0.00  0.00    +0.050 A 
ATOM     26  C   UNL     1      -4.715   0.703   3.382  0.00  0.00    +0.026 A 
ATOM     27  C   UNL     1      -5.146   1.779   4.135  0.00  0.00    +0.002 A 
ATOM     28  C   UNL     1      -6.367   2.368   3.865  0.00  0.00    +0.000 A 
ATOM     29  C   UNL     1      -7.158   1.887   2.838  0.00  0.00    +0.002 A 
ATOM     30  C   UNL     1      -6.730   0.816   2.078  0.00  0.00    +0.026 A 
ENDBRANCH  24  25
ENDBRANCH  19  20
ENDBRANCH  18  19
ENDBRANCH   1  18
TORSDOF 5
