REMARK  Name = ZINC48811607
REMARK  7 active torsions:
REMARK  status: ('A' for Active; 'I' for Inactive)
REMARK    1  A    between atoms: C_1  and  C_2
REMARK    2  A    between atoms: C_4  and  C_11
REMARK    3  A    between atoms: C_7  and  N_8
REMARK    4  A    between atoms: N_13  and  C_14
REMARK    5  A    between atoms: C_14  and  C_16
REMARK    6  A    between atoms: C_14  and  C_17
REMARK    7  A    between atoms: N_19  and  C_20
REMARK                            x       y       z     vdW  Elec       q    Type
REMARK                         _______ _______ _______ _____ _____    ______ ____
ROOT
ATOM      1  C   UNL     1      -0.188  -2.819  -2.476  0.00  0.00    +0.245 C 
ATOM      2  O   UNL     1      -0.512  -2.233  -3.490  0.00  0.00    -0.270 OA
ATOM      3  N   UNL     1       0.073  -4.141  -2.515  0.00  0.00    -0.300 N 
ATOM      4  H   UNL     1       0.332  -4.608  -1.705  0.00  0.00    +0.150 HD
ENDROOT
BRANCH   1   8
ATOM      5  C   UNL     1      -0.538   1.447   0.089  0.00  0.00    +0.046 C 
ATOM      6  C   UNL     1      -0.247  -0.031   0.040  0.00  0.00    -0.020 A 
ATOM      7  C   UNL     1      -0.349  -0.713  -1.155  0.00  0.00    +0.018 A 
ATOM      8  C   UNL     1      -0.080  -2.082  -1.199  0.00  0.00    +0.037 A 
ATOM      9  C   UNL     1       0.292  -2.751  -0.032  0.00  0.00    +0.015 A 
ATOM     10  C   UNL     1       0.391  -2.057   1.156  0.00  0.00    +0.034 A 
ATOM     11  C   UNL     1       0.127  -0.699   1.192  0.00  0.00    +0.129 A 
BRANCH  11  12
ATOM     12  N   UNL     1       0.241   0.040   2.469  0.00  0.00    +0.057 N 
ATOM     13  O   UNL     1       0.675   1.169   2.477  0.00  0.00    -0.126 OA
ATOM     14  O   UNL     1      -0.100  -0.484   3.503  0.00  0.00    -0.126 OA
ENDBRANCH  11  12
ENDBRANCH   1   8
BRANCH   3  15
ATOM     15  C   UNL     1      -0.034  -4.872  -3.780  0.00  0.00    +0.156 C 
ATOM     16  C   UNL     1      -1.486  -5.301  -4.000  0.00  0.00    +0.038 C 
BRANCH  15  17
ATOM     17  C   UNL     1       0.850  -6.092  -3.732  0.00  0.00    +0.233 C 
ATOM     18  O   UNL     1       1.504  -6.328  -2.738  0.00  0.00    -0.274 OA
ATOM     19  N   UNL     1       0.912  -6.921  -4.792  0.00  0.00    -0.317 N 
ATOM     20  C   UNL     1       1.770  -8.107  -4.745  0.00  0.00    +0.128 C 
ATOM     21  H   UNL     1       0.389  -6.732  -5.587  0.00  0.00    +0.148 HD
ENDBRANCH  15  17
ENDBRANCH   3  15
TORSDOF 4
