REMARK  Name = ZINC58265865
REMARK  7 active torsions:
REMARK  status: ('A' for Active; 'I' for Inactive)
REMARK    1  A    between atoms: C_1  and  C_2
REMARK    2  A    between atoms: C_2  and  C_3
REMARK    3  A    between atoms: C_2  and  C_4
REMARK    4  A    between atoms: C_6  and  C_10
REMARK    5  A    between atoms: C_15  and  N_16
REMARK    6  A    between atoms: C_17  and  C_19
REMARK    7  A    between atoms: N_21  and  C_26
REMARK                            x       y       z     vdW  Elec       q    Type
REMARK                         _______ _______ _______ _____ _____    ______ ____
ROOT
ATOM      1  C   UNL     1      -4.063  -2.569  -1.287  0.00  0.00    +0.040 A 
ATOM      2  C   UNL     1      -3.669  -3.061  -2.531  0.00  0.00    +0.013 A 
ATOM      3  C   UNL     1      -4.595  -3.666  -3.356  0.00  0.00    +0.001 A 
ATOM      4  C   UNL     1      -5.914  -3.788  -2.955  0.00  0.00    +0.002 A 
ATOM      5  C   UNL     1      -6.318  -3.304  -1.726  0.00  0.00    +0.024 A 
ATOM      6  C   UNL     1      -5.398  -2.698  -0.881  0.00  0.00    +0.044 A 
ENDROOT
BRANCH   1   9
ATOM      7  C   UNL     1      -1.228  -1.062   0.339  0.00  0.00    +0.154 A 
ATOM      8  N   UNL     1      -1.821  -1.647  -0.698  0.00  0.00    -0.211 NA
ATOM      9  C   UNL     1      -3.076  -1.919  -0.398  0.00  0.00    +0.158 A 
ATOM     10  N   UNL     1      -3.299  -1.498   0.868  0.00  0.00    -0.258 N 
ATOM     11  H   UNL     1      -4.129  -1.562   1.365  0.00  0.00    +0.191 HD
ATOM     12  N   UNL     1      -2.086  -0.953   1.320  0.00  0.00    -0.157 NA
BRANCH   7  14
ATOM     13  C   UNL     1       0.254   0.903   0.641  0.00  0.00    +0.015 C 
ATOM     14  C   UNL     1       0.207  -0.604   0.379  0.00  0.00    +0.053 C 
ATOM     15  C   UNL     1       0.946  -1.340   1.498  0.00  0.00    +0.015 C 
ENDBRANCH   7  14
ENDBRANCH   1   9
BRANCH   6  16
ATOM     16  N   UNL     1      -5.802  -2.215   0.363  0.00  0.00    -0.280 N 
ATOM     17  C   UNL     1      -6.128  -0.915   0.508  0.00  0.00    +0.264 C 
ATOM     18  O   UNL     1      -6.170  -0.186  -0.466  0.00  0.00    -0.268 OA
ATOM     19  H   UNL     1      -5.849  -2.814   1.125  0.00  0.00    +0.155 HD
BRANCH  17  20
ATOM     20  C   UNL     1      -6.430  -0.378   1.839  0.00  0.00    +0.122 C 
ATOM     21  N   UNL     1      -6.377  -1.161   2.872  0.00  0.00    -0.177 NA
ATOM     22  N   UNL     1      -6.661  -0.685   4.156  0.00  0.00    -0.196 N 
ATOM     23  C   UNL     1      -7.355   0.458   4.321  0.00  0.00    +0.235 C 
ATOM     24  O   UNL     1      -7.604   0.863   5.437  0.00  0.00    -0.274 OA
ATOM     25  C   UNL     1      -7.822   1.231   3.114  0.00  0.00    +0.104 C 
ATOM     26  C   UNL     1      -6.792   1.076   1.989  0.00  0.00    +0.071 C 
ATOM     27  C   UNL     1      -6.201  -1.434   5.328  0.00  0.00    +0.161 C 
ENDBRANCH  17  20
ENDBRANCH   6  16
TORSDOF 4
