REMARK  Name = ZINC16188941
REMARK  4 active torsions:
REMARK  status: ('A' for Active; 'I' for Inactive)
REMARK    1  A    between atoms: C_1  and  N_2
REMARK    2  A    between atoms: C_6  and  N_7
REMARK    3  A    between atoms: N_7  and  C_8
REMARK    4  A    between atoms: N_19  and  C_22
REMARK                            x       y       z     vdW  Elec       q    Type
REMARK                         _______ _______ _______ _____ _____    ______ ____
ROOT
ATOM      1  C   UNL     1      -6.091   1.526  -0.390  0.00  0.00    +0.140 C 
ATOM      2  N   UNL     1      -4.789   0.862  -0.286  0.00  0.00    -0.252 N 
ATOM      3  C   UNL     1      -3.672   1.613  -0.189  0.00  0.00    +0.258 C 
ATOM      4  O   UNL     1      -3.735   2.828  -0.185  0.00  0.00    -0.269 OA
ATOM      5  C   UNL     1      -2.375   0.921  -0.086  0.00  0.00    +0.113 C 
ATOM      6  C   UNL     1      -1.188   1.624   0.017  0.00  0.00    +0.090 C 
ATOM      7  C   UNL     1      -2.397  -0.552  -0.104  0.00  0.00    +0.258 C 
ATOM      8  O   UNL     1      -1.365  -1.193  -0.028  0.00  0.00    -0.269 OA
ATOM      9  N   UNL     1      -3.591  -1.171  -0.201  0.00  0.00    -0.252 N 
ATOM     10  C   UNL     1      -4.734  -0.477  -0.291  0.00  0.00    +0.148 C 
ATOM     11  S   UNL     1      -6.203  -1.348  -0.418  0.00  0.00    -0.018 S 
ATOM     12  C   UNL     1      -3.640  -2.635  -0.216  0.00  0.00    +0.140 C 
ENDROOT
BRANCH   6  13
ATOM     13  N   UNL     1      -0.010   0.968  -0.017  0.00  0.00    -0.320 N 
ATOM     14  H   UNL     1       0.004  -0.002  -0.039  0.00  0.00    +0.152 HD
BRANCH  13  15
ATOM     15  C   UNL     1       1.190   1.686  -0.025  0.00  0.00    +0.035 A 
ATOM     16  C   UNL     1       1.170   3.075   0.001  0.00  0.00    +0.027 A 
ATOM     17  C   UNL     1       2.355   3.785  -0.002  0.00  0.00    +0.051 A 
ATOM     18  C   UNL     1       3.567   3.114  -0.042  0.00  0.00    +0.166 A 
ATOM     19  C   UNL     1       3.591   1.722  -0.074  0.00  0.00    +0.168 A 
ATOM     20  C   UNL     1       2.403   1.011  -0.065  0.00  0.00    +0.072 A 
ATOM     21  O   UNL     1       4.892   1.309  -0.110  0.00  0.00    -0.453 OA
ATOM     22  C   UNL     1       5.651   2.464  -0.512  0.00  0.00    +0.466 C 
ATOM     23  O   UNL     1       4.854   3.573  -0.058  0.00  0.00    -0.453 OA
ENDBRANCH  13  15
ENDBRANCH   6  13
TORSDOF 2
