REMARK  Name = ZINC26580548
REMARK  9 active torsions:
REMARK  status: ('A' for Active; 'I' for Inactive)
REMARK    1  A    between atoms: CG1_1  and  CB_2
REMARK    2  A    between atoms: CB_2  and  CG2_3
REMARK    3  A    between atoms: CB_2  and  CA_4
REMARK    4  A    between atoms: CA_4  and  C_6
REMARK    5  A    between atoms: CA_4  and  N_9
REMARK    6  A    between atoms: C_10  and  CA_12
REMARK    7  A    between atoms: CA_12  and  N_22
REMARK    8  A    between atoms: C_13  and  C_14
REMARK    9  A    between atoms: C_23  and  C_25
REMARK                            x       y       z     vdW  Elec       q    Type
REMARK                         _______ _______ _______ _____ _____    ______ ____
ROOT
ATOM      1  CA  UNL     1       2.261   5.425  -0.097  0.00  0.00    +0.097 C 
ATOM      2  C   UNL     1       2.387   4.077  -0.126  0.00  0.00    +0.038 C 
ENDROOT
BRANCH   2   3
ATOM      3  C   UNL     1       1.188   3.228  -0.164  0.00  0.00    -0.005 A 
ATOM      4  C   UNL     1       0.026   3.621   0.509  0.00  0.00    +0.011 A 
ATOM      5  C   UNL     1      -1.095   2.819   0.470  0.00  0.00    +0.020 A 
ATOM      6  C   UNL     1      -1.075   1.628  -0.239  0.00  0.00    +0.042 A 
ATOM      7  C   UNL     1       0.073   1.228  -0.903  0.00  0.00    +0.040 A 
ATOM      8  C   UNL     1       1.203   2.021  -0.873  0.00  0.00    +0.050 A 
ATOM      9 CL   UNL     1       2.638   1.521  -1.711  0.00  0.00    -0.083 Cl
ATOM     10 CL   UNL     1      -2.493   0.629  -0.288  0.00  0.00    -0.083 Cl
ENDBRANCH   2   3
BRANCH   1  12
ATOM     11  N   UNL     1       3.339   7.614  -0.051  0.00  0.00    -0.297 N 
ATOM     12  C   UNL     1       3.457   6.276  -0.159  0.00  0.00    +0.259 C 
ATOM     13  O   UNL     1       4.555   5.772  -0.307  0.00  0.00    -0.269 OA
ATOM     14  H   UNL     1       2.355   8.065   0.145  0.00  0.00    +0.150 HD
BRANCH  11  15
ATOM     15  CA  UNL     1       4.520   8.468  -0.193  0.00  0.00    +0.189 C 
BRANCH  15  17
ATOM     16  CG1 UNL     1       5.673   7.175   1.607  0.00  0.00    +0.009 C 
ATOM     17  CB  UNL     1       5.241   8.571   1.152  0.00  0.00    +0.014 C 
ATOM     18  CG2 UNL     1       6.475   9.463   1.003  0.00  0.00    +0.009 C 
ENDBRANCH  15  17
BRANCH  15  19
ATOM     19  C   UNL     1       4.095   9.843  -0.641  0.00  0.00    +0.376 C 
ATOM     20  O   UNL     1       2.925  10.084  -0.823  0.00  0.00    -0.244 OA
ATOM     21  OXT UNL     1       5.016  10.799  -0.839  0.00  0.00    -0.244 OA
ENDBRANCH  15  19
ENDBRANCH  11  15
ENDBRANCH   1  12
BRANCH   1  22
ATOM     22  N   UNL     1       0.993   6.006  -0.008  0.00  0.00    -0.275 N 
ATOM     23  C   UNL     1       0.683   6.790   1.044  0.00  0.00    +0.284 C 
ATOM     24  O   UNL     1       1.531   7.055   1.876  0.00  0.00    -0.266 OA
ATOM     25  H   UNL     1       0.248   5.825  -0.797  0.00  0.00    +0.155 HD
BRANCH  23  26
ATOM     26  C   UNL     1      -0.676   7.323   1.186  0.00  0.00    +0.189 A 
ATOM     27  C   UNL     1      -1.121   8.125   2.198  0.00  0.00    +0.054 A 
ATOM     28  C   UNL     1      -2.474   8.393   1.935  0.00  0.00    +0.042 A 
ATOM     29  C   UNL     1      -2.790   7.751   0.788  0.00  0.00    +0.196 A 
ATOM     30  O   UNL     1      -1.703   7.113   0.337  0.00  0.00    -0.458 OA
ENDBRANCH  23  26
ENDBRANCH   1  22
TORSDOF 7
