REMARK  Name = ZINC13685828
REMARK  4 active torsions:
REMARK  status: ('A' for Active; 'I' for Inactive)
REMARK    1  A    between atoms: C_1  and  C_2
REMARK    2  A    between atoms: C_11  and  C_13
REMARK    3  A    between atoms: C_21  and  C_23
REMARK    4  A    between atoms: C_21  and  C_24
REMARK                            x       y       z     vdW  Elec       q    Type
REMARK                         _______ _______ _______ _____ _____    ______ ____
ROOT
ATOM      1  C   UNL     1      -0.018   1.503   0.010  0.00  0.00    +0.068 C 
ATOM      2  C   UNL     1       0.002  -0.004   0.002  0.00  0.00    +0.066 A 
ATOM      3  C   UNL     1       0.008  -0.811  -1.127  0.00  0.00    +0.027 A 
ATOM      4  C   UNL     1       0.027  -2.116  -0.711  0.00  0.00    +0.122 A 
ATOM      5  N   UNL     1       0.036  -2.116   0.635  0.00  0.00    -0.263 N 
ATOM      6  H   UNL     1       0.052  -2.900   1.207  0.00  0.00    +0.190 HD
ATOM      7  N   UNL     1       0.023  -0.778   1.061  0.00  0.00    -0.177 NA
ATOM      8  N   UNL     1       0.029  -3.166  -1.621  0.00  0.00    -0.303 N 
ATOM      9  C   UNL     1      -0.293  -2.900  -2.929  0.00  0.00    +0.017 C 
ATOM     10  C   UNL     1      -0.320  -1.644  -3.425  0.00  0.00    +0.024 C 
ATOM     11  C   UNL     1      -0.001  -0.429  -2.580  0.00  0.00    +0.089 C 
ATOM     12  C   UNL     1      -0.645  -1.408  -4.773  0.00  0.00    +0.162 C 
ATOM     13  O   UNL     1      -0.670  -0.266  -5.186  0.00  0.00    -0.292 OA
ATOM     14  C   UNL     1      -0.961  -2.537  -5.714  0.00  0.00    +0.086 C 
ATOM     15  C   UNL     1      -0.219  -3.794  -5.248  0.00  0.00    -0.023 C 
ATOM     16  C   UNL     1      -0.629  -4.086  -3.804  0.00  0.00    +0.058 C 
ATOM     17  C   UNL     1       1.291  -3.557  -5.318  0.00  0.00    +0.011 C 
ATOM     18  C   UNL     1      -0.598  -4.977  -6.141  0.00  0.00    +0.011 C 
ATOM     19  H   UNL     1       0.253  -4.067  -1.339  0.00  0.00    +0.153 HD
ENDROOT
BRANCH  11  20
ATOM     20  C   UNL     1       1.354   0.107  -2.966  0.00  0.00    -0.028 A 
ATOM     21  C   UNL     1       1.487   1.396  -3.446  0.00  0.00    +0.012 A 
ATOM     22  C   UNL     1       2.720   1.848  -3.784  0.00  0.00    +0.045 A 
ATOM     23  S   UNL     1       3.744   0.431  -3.424  0.00  0.00    -0.105 S 
ATOM     24  C   UNL     1       2.461  -0.666  -2.842  0.00  0.00    +0.049 A 
ENDBRANCH  11  20
TORSDOF 1
