REMARK  Name = ZINC38787589
REMARK  7 active torsions:
REMARK  status: ('A' for Active; 'I' for Inactive)
REMARK    1  A    between atoms: C_1  and  C_2
REMARK    2  A    between atoms: C_5  and  C_29
REMARK    3  A    between atoms: C_8  and  C_10
REMARK    4  A    between atoms: C_12  and  C_23
REMARK    5  A    between atoms: C_32  and  N_35
REMARK    6  A    between atoms: N_35  and  C_36
REMARK    7  A    between atoms: N_35  and  C_37
REMARK                            x       y       z     vdW  Elec       q    Type
REMARK                         _______ _______ _______ _____ _____    ______ ____
ROOT
ATOM      1  C   UNL     1      -4.056  -1.823   0.005  0.00  0.00    +0.152 C 
ATOM      2  C   UNL     1      -4.235  -0.355  -0.330  0.00  0.00    -0.014 C 
ATOM      3  C   UNL     1      -4.881   0.438   0.622  0.00  0.00    +0.002 A 
ATOM      4  C   UNL     1      -5.090   1.814   0.391  0.00  0.00    +0.030 A 
ATOM      5  C   UNL     1      -5.723   2.564   1.335  0.00  0.00    +0.042 A 
ATOM      6  C   UNL     1      -6.170   2.000   2.528  0.00  0.00    +0.022 A 
ATOM      7  C   UNL     1      -5.998   0.678   2.806  0.00  0.00    +0.025 A 
ATOM      8  C   UNL     1      -5.352  -0.157   1.877  0.00  0.00    +0.041 A 
ATOM      9  N   UNL     1      -5.184  -1.455   2.152  0.00  0.00    -0.284 N 
ATOM     10  C   UNL     1      -4.590  -2.302   1.335  0.00  0.00    +0.230 C 
ATOM     11  O   UNL     1      -4.473  -3.471   1.653  0.00  0.00    -0.274 OA
ATOM     12 CL   UNL     1      -5.977   4.257   1.046  0.00  0.00    -0.084 Cl
ATOM     13  H   UNL     1      -5.518  -1.792   2.999  0.00  0.00    +0.155 HD
ENDROOT
BRANCH   1  20
ATOM     14  C   UNL     1       0.716   0.413  -0.399  0.00  0.00    +0.111 C 
ATOM     15  C   UNL     1       0.771  -1.089  -0.284  0.00  0.00    +0.232 C 
ATOM     16  O   UNL     1       1.842  -1.659  -0.293  0.00  0.00    -0.274 OA
ATOM     17  N   UNL     1      -0.369  -1.798  -0.172  0.00  0.00    -0.186 N 
ATOM     18  C   UNL     1      -0.460  -3.263  -0.046  0.00  0.00    +0.136 C 
ATOM     19  C   UNL     1      -1.979  -3.516   0.046  0.00  0.00    +0.083 C 
ATOM     20  C   UNL     1      -2.581  -2.131  -0.039  0.00  0.00    +0.055 C 
ATOM     21  N   UNL     1      -1.657  -1.267  -0.148  0.00  0.00    -0.185 NA
BRANCH  18  22
ATOM     22  C   UNL     1       0.121  -3.937  -1.262  0.00  0.00    -0.025 A 
ATOM     23  C   UNL     1      -0.080  -3.392  -2.516  0.00  0.00    +0.007 A 
ATOM     24  C   UNL     1       0.452  -4.008  -3.632  0.00  0.00    +0.023 A 
ATOM     25  C   UNL     1       1.190  -5.176  -3.493  0.00  0.00    +0.029 A 
ATOM     26  C   UNL     1       1.390  -5.722  -2.232  0.00  0.00    +0.023 A 
ATOM     27  C   UNL     1       0.860  -5.098  -1.119  0.00  0.00    +0.007 A 
BRANCH  25  28
ATOM     28  N   UNL     1       1.728  -5.802  -4.620  0.00  0.00    -0.336 N 
ATOM     29  C   UNL     1       1.622  -5.163  -5.934  0.00  0.00    +0.129 C 
ATOM     30  C   UNL     1       2.400  -7.097  -4.487  0.00  0.00    +0.129 C 
ENDBRANCH  25  28
ENDBRANCH  18  22
ENDBRANCH   1  20
BRANCH   2  31
ATOM     31  C   UNL     1      -3.767   0.189  -1.553  0.00  0.00    -0.020 A 
ATOM     32  C   UNL     1      -2.875   1.274  -1.549  0.00  0.00    +0.008 A 
ATOM     33  C   UNL     1      -2.426   1.794  -2.742  0.00  0.00    +0.001 A 
ATOM     34  C   UNL     1      -2.852   1.251  -3.944  0.00  0.00    +0.000 A 
ATOM     35  C   UNL     1      -3.731   0.181  -3.959  0.00  0.00    +0.001 A 
ATOM     36  C   UNL     1      -4.187  -0.358  -2.776  0.00  0.00    +0.008 A 
ENDBRANCH   2  31
TORSDOF 4
