REMARK  Name = ZINC09136829
REMARK  8 active torsions:
REMARK  status: ('A' for Active; 'I' for Inactive)
REMARK    1  A    between atoms: C_1  and  C_2
REMARK    2  A    between atoms: C_6  and  N_9
REMARK    3  A    between atoms: C_7  and  C_8
REMARK    4  A    between atoms: C_12  and  C_15
REMARK    5  A    between atoms: C_15  and  S_16
REMARK    6  A    between atoms: S_16  and  C_17
REMARK    7  A    between atoms: N_29  and  C_30
REMARK    8  A    between atoms: C_31  and  C_33
REMARK                            x       y       z     vdW  Elec       q    Type
REMARK                         _______ _______ _______ _____ _____    ______ ____
ROOT
ATOM      1  N   UNL     1      -0.650 -11.007   2.548  0.00  0.00    -0.219 N 
ATOM      2  C   UNL     1      -0.811 -10.159   1.457  0.00  0.00    +0.172 A 
ATOM      3  N   UNL     1      -0.570  -8.865   1.370  0.00  0.00    -0.228 NA
ATOM      4  C   UNL     1      -0.779  -8.205   0.248  0.00  0.00    +0.061 A 
ATOM      5  C   UNL     1      -1.256  -8.885  -0.823  0.00  0.00    +0.072 A 
ATOM      6  S   UNL     1      -1.381 -10.532  -0.140  0.00  0.00    -0.060 S 
ATOM      7  C   UNL     1      -0.094 -10.544   3.685  0.00  0.00    +0.223 C 
ATOM      8  O   UNL     1       0.181  -9.367   3.790  0.00  0.00    -0.275 OA
ATOM      9  C   UNL     1       0.187 -11.488   4.825  0.00  0.00    +0.110 C 
ENDROOT
BRANCH   1  15
ATOM     10  C   UNL     1      -4.171 -14.388   3.139  0.00  0.00    +0.044 C 
ATOM     11  C   UNL     1      -2.767 -14.008   2.745  0.00  0.00    -0.046 A 
ATOM     12  C   UNL     1      -1.888 -14.979   2.301  0.00  0.00    +0.004 A 
ATOM     13  C   UNL     1      -0.599 -14.634   1.938  0.00  0.00    +0.002 A 
ATOM     14  C   UNL     1      -0.187 -13.318   2.014  0.00  0.00    +0.024 A 
ATOM     15  C   UNL     1      -1.066 -12.342   2.465  0.00  0.00    +0.046 A 
ATOM     16  C   UNL     1      -2.360 -12.691   2.828  0.00  0.00    -0.026 A 
ATOM     17  C   UNL     1      -3.319 -11.634   3.313  0.00  0.00    +0.046 C 
ENDBRANCH   1  15
BRANCH   4  18
ATOM     18  C   UNL     1      -0.501  -6.726   0.161  0.00  0.00    +0.133 C 
BRANCH  18  19
ATOM     19  S   UNL     1       1.210  -6.465  -0.368  0.00  0.00    -0.081 S 
BRANCH  19  20
ATOM     20  C   UNL     1       1.260  -4.704  -0.386  0.00  0.00    +0.173 A 
ATOM     21  N   UNL     1       0.183  -4.021  -0.053  0.00  0.00    -0.216 NA
ATOM     22  C   UNL     1       0.194  -2.692  -0.058  0.00  0.00    +0.117 A 
ATOM     23  C   UNL     1       1.334  -1.958  -0.412  0.00  0.00    +0.076 A 
ATOM     24  C   UNL     1       1.196  -0.492  -0.372  0.00  0.00    -0.023 A 
ATOM     25  C   UNL     1       0.002  -0.005  -0.000  0.00  0.00    -0.004 A 
ATOM     26  S   UNL     1      -1.004  -1.438   0.311  0.00  0.00    -0.073 S 
ATOM     27  C   UNL     1      -0.020   1.500   0.007  0.00  0.00    +0.043 C 
ATOM     28  C   UNL     1       1.470   1.910  -0.000  0.00  0.00    +0.010 C 
ATOM     29  C   UNL     1       2.127   0.687  -0.669  0.00  0.00    +0.037 C 
ATOM     30  C   UNL     1       2.489  -2.723  -0.767  0.00  0.00    +0.263 A 
ATOM     31  O   UNL     1       3.526  -2.167  -1.088  0.00  0.00    -0.267 OA
ATOM     32  N   UNL     1       2.413  -4.067  -0.743  0.00  0.00    -0.290 N 
ATOM     33  C   UNL     1       3.590  -4.861  -1.105  0.00  0.00    +0.154 C 
ENDBRANCH  19  20
ENDBRANCH  18  19
ENDBRANCH   4  18
TORSDOF 4
