REMARK  Name = ZINC20762698
REMARK  12 active torsions:
REMARK  status: ('A' for Active; 'I' for Inactive)
REMARK    1  A    between atoms: C_1  and  C_2
REMARK    2  A    between atoms: C_2  and  C_3
REMARK    3  A    between atoms: C_2  and  C_4
REMARK    4  A    between atoms: C_4  and  C_6
REMARK    5  A    between atoms: C_4  and  N_10
REMARK    6  A    between atoms: C_6  and  O_8
REMARK    7  A    between atoms: O_8  and  C_9
REMARK    8  A    between atoms: C_22  and  C_24
REMARK    9  A    between atoms: C_26  and  O_32
REMARK   10  A    between atoms: C_28  and  O_30
REMARK   11  A    between atoms: O_30  and  C_31
REMARK   12  A    between atoms: O_32  and  C_33
REMARK                            x       y       z     vdW  Elec       q    Type
REMARK                         _______ _______ _______ _____ _____    ______ ____
ROOT
ATOM      1  N   UNL     1       1.308   2.263   2.473  0.00  0.00    -0.286 N 
ATOM      2  C   UNL     1       2.159   1.410   1.869  0.00  0.00    +0.304 C 
ATOM      3  O   UNL     1       1.774   0.310   1.523  0.00  0.00    -0.253 OA
ATOM      4  N   UNL     1       3.437   1.776   1.650  0.00  0.00    -0.273 N 
ATOM      5  C   UNL     1       4.349   0.909   0.889  0.00  0.00    +0.116 C 
ATOM      6  C   UNL     1       5.483   0.441   1.811  0.00  0.00    +0.074 C 
ATOM      7  C   UNL     1       5.986   1.621   2.600  0.00  0.00    +0.040 A 
ATOM      8  C   UNL     1       5.314   2.781   2.766  0.00  0.00    +0.062 A 
ATOM      9  N   UNL     1       6.061   3.588   3.522  0.00  0.00    -0.348 N 
ATOM     10  C   UNL     1       7.175   2.977   3.831  0.00  0.00    +0.171 A 
ATOM     11  N   UNL     1       7.164   1.745   3.271  0.00  0.00    -0.349 N 
ATOM     12  H   UNL     1       7.864   1.077   3.336  0.00  0.00    +0.166 HD
ATOM     13  C   UNL     1       3.954   3.058   2.163  0.00  0.00    +0.156 C 
ATOM     14  H   UNL     1       1.629   3.115   2.806  0.00  0.00    +0.151 HD
ATOM     15  H   UNL     1       5.816   4.485   3.799  0.00  0.00    +0.167 HD
ENDROOT
BRANCH  13  16
ATOM     16  C   UNL     1       4.082   4.048   1.033  0.00  0.00    -0.014 A 
ATOM     17  C   UNL     1       3.325   5.204   1.039  0.00  0.00    +0.051 A 
ATOM     18  C   UNL     1       3.441   6.116   0.000  0.00  0.00    +0.124 A 
ATOM     19  C   UNL     1       4.317   5.867  -1.045  0.00  0.00    +0.091 A 
ATOM     20  C   UNL     1       5.076   4.707  -1.049  0.00  0.00    +0.124 A 
ATOM     21  C   UNL     1       4.960   3.800  -0.005  0.00  0.00    +0.051 A 
BRANCH  20  22
ATOM     22  O   UNL     1       5.935   4.459  -2.072  0.00  0.00    -0.495 OA
ATOM     23  C   UNL     1       6.007   5.439  -3.110  0.00  0.00    +0.277 C 
ENDBRANCH  20  22
BRANCH  18  24
ATOM     24  O   UNL     1       2.696   7.253   0.007  0.00  0.00    -0.495 OA
ATOM     25  C   UNL     1       2.867   8.147  -1.095  0.00  0.00    +0.277 C 
ENDBRANCH  18  24
ENDBRANCH  13  16
BRANCH   1  26
ATOM     26  C   UNL     1      -0.104   1.902   2.627  0.00  0.00    +0.186 C 
BRANCH  26  28
ATOM     27  C   UNL     1       0.561  -0.212   3.780  0.00  0.00    +0.009 C 
ATOM     28  C   UNL     1      -0.281   1.061   3.892  0.00  0.00    +0.014 C 
ATOM     29  C   UNL     1       0.174   1.868   5.109  0.00  0.00    +0.009 C 
ENDBRANCH  26  28
BRANCH  26  30
ATOM     30  C   UNL     1      -0.933   3.156   2.737  0.00  0.00    +0.328 C 
ATOM     31  O   UNL     1      -0.400   4.239   2.692  0.00  0.00    -0.249 OA
BRANCH  30  32
ATOM     32  O   UNL     1      -2.265   3.069   2.885  0.00  0.00    -0.467 OA
ATOM     33  C   UNL     1      -2.988   4.297   2.983  0.00  0.00    +0.280 C 
ENDBRANCH  30  32
ENDBRANCH  26  30
ENDBRANCH   1  26
TORSDOF 7
