REMARK  Name = ZINC13204805
REMARK  13 active torsions:
REMARK  status: ('A' for Active; 'I' for Inactive)
REMARK    1  A    between atoms: C_1  and  C_2
REMARK    2  A    between atoms: C_2  and  N_3
REMARK    3  A    between atoms: N_3  and  C_4
REMARK    4  A    between atoms: N_3  and  C_6
REMARK    5  A    between atoms: C_4  and  C_5
REMARK    6  A    between atoms: C_9  and  N_12
REMARK    7  A    between atoms: C_13  and  C_15
REMARK    8  A    between atoms: C_15  and  S_16
REMARK    9  A    between atoms: S_16  and  C_17
REMARK   10  A    between atoms: C_20  and  C_25
REMARK   11  A    between atoms: N_21  and  C_22
REMARK   12  A    between atoms: C_22  and  C_23
REMARK   13  A    between atoms: C_28  and  C_31
REMARK                            x       y       z     vdW  Elec       q    Type
REMARK                         _______ _______ _______ _____ _____    ______ ____
ROOT
ATOM      1  S   UNL     1       0.991   3.446   2.258  0.00  0.00    -0.077 S 
ENDROOT
BRANCH   1   2
ATOM      2  C   UNL     1      -0.439   2.463   2.567  0.00  0.00    +0.193 A 
ATOM      3  N   UNL     1      -1.449   2.780   3.346  0.00  0.00    -0.122 NA
ATOM      4  N   UNL     1      -2.318   1.833   3.348  0.00  0.00    -0.128 NA
ATOM      5  C   UNL     1      -1.919   0.857   2.567  0.00  0.00    +0.165 A 
ATOM      6  N   UNL     1      -0.704   1.232   2.041  0.00  0.00    -0.291 N 
BRANCH   5   7
ATOM      7  C   UNL     1      -2.638  -0.408   2.305  0.00  0.00    +0.019 A 
ATOM      8  C   UNL     1      -2.313  -1.180   1.188  0.00  0.00    +0.012 A 
ATOM      9  C   UNL     1      -2.985  -2.361   0.951  0.00  0.00    +0.004 A 
ATOM     10  C   UNL     1      -3.985  -2.777   1.812  0.00  0.00    -0.050 A 
ATOM     11  C   UNL     1      -4.316  -2.014   2.917  0.00  0.00    +0.004 A 
ATOM     12  C   UNL     1      -3.648  -0.833   3.169  0.00  0.00    +0.012 A 
ATOM     13  C   UNL     1      -4.718  -4.066   1.544  0.00  0.00    +0.044 C 
ENDBRANCH   5   7
BRANCH   6  14
ATOM     14  C   UNL     1       0.133   0.466   1.113  0.00  0.00    +0.250 C 
BRANCH  14  15
ATOM     15  C   UNL     1      -0.233   0.824  -0.305  0.00  0.00    +0.375 C 
ATOM     16  O   UNL     1      -1.103   1.635  -0.518  0.00  0.00    -0.244 OA
ATOM     17  O   UNL     1       0.408   0.241  -1.330  0.00  0.00    -0.244 OA
ENDBRANCH  14  15
ENDBRANCH   6  14
ENDBRANCH   1   2
BRANCH   1  18
ATOM     18  C   UNL     1       0.611   4.886   3.287  0.00  0.00    +0.173 C 
BRANCH  18  20
ATOM     19  N   UNL     1       1.663   7.050   3.862  0.00  0.00    -0.285 N 
ATOM     20  C   UNL     1       1.729   5.891   3.177  0.00  0.00    +0.227 C 
ATOM     21  O   UNL     1       2.688   5.657   2.472  0.00  0.00    -0.275 OA
ATOM     22  H   UNL     1       0.936   7.204   4.486  0.00  0.00    +0.155 HD
BRANCH  19  26
ATOM     23  C   UNL     1       4.584   9.973   3.301  0.00  0.00    +0.030 A 
ATOM     24  C   UNL     1       4.202   9.160   2.241  0.00  0.00    +0.025 A 
ATOM     25  C   UNL     1       3.235   8.192   2.427  0.00  0.00    +0.025 A 
ATOM     26  C   UNL     1       2.644   8.032   3.673  0.00  0.00    +0.034 A 
ATOM     27  C   UNL     1       3.022   8.848   4.731  0.00  0.00    +0.025 A 
ATOM     28  C   UNL     1       3.993   9.812   4.547  0.00  0.00    +0.025 A 
BRANCH  23  29
ATOM     29  N   UNL     1       5.564  10.953   3.112  0.00  0.00    -0.330 N 
BRANCH  29  31
ATOM     30  C   UNL     1       7.129  11.157   4.981  0.00  0.00    +0.024 C 
ATOM     31  C   UNL     1       5.967  11.810   4.230  0.00  0.00    +0.102 C 
ENDBRANCH  29  31
BRANCH  29  32
ATOM     32  C   UNL     1       6.188  11.122   1.798  0.00  0.00    +0.102 C 
ATOM     33  C   UNL     1       5.384  12.133   0.978  0.00  0.00    +0.024 C 
ENDBRANCH  29  32
ENDBRANCH  23  29
ENDBRANCH  19  26
ENDBRANCH  18  20
ENDBRANCH   1  18
TORSDOF 10
