REMARK  Name = ZINC17241319
REMARK  7 active torsions:
REMARK  status: ('A' for Active; 'I' for Inactive)
REMARK    1  A    between atoms: C_1  and  C_2
REMARK    2  A    between atoms: C_4  and  O_9
REMARK    3  A    between atoms: O_9  and  C_10
REMARK    4  A    between atoms: C_10  and  C_11
REMARK    5  A    between atoms: N_13  and  N_14
REMARK    6  A    between atoms: C_15  and  C_17
REMARK    7  A    between atoms: N_19  and  C_24
REMARK                            x       y       z     vdW  Elec       q    Type
REMARK                         _______ _______ _______ _____ _____    ______ ____
ROOT
ATOM      1  C   UNL     1      -1.412  -0.526   0.013  0.00  0.00    +0.267 C 
ATOM      2  O   UNL     1      -2.344   0.250   0.026  0.00  0.00    -0.271 OA
ATOM      3  N   UNL     1      -1.640  -1.854   0.008  0.00  0.00    -0.231 N 
ATOM      4  H   UNL     1      -0.894  -2.474  -0.003  0.00  0.00    +0.173 HD
ENDROOT
BRANCH   3   5
ATOM      5  N   UNL     1      -2.954  -2.339   0.018  0.00  0.00    -0.229 N 
ATOM      6  C   UNL     1      -3.183  -3.667   0.013  0.00  0.00    +0.276 C 
ATOM      7  O   UNL     1      -2.247  -4.445  -0.000  0.00  0.00    -0.267 OA
ATOM      8  H   UNL     1      -3.700  -1.719   0.028  0.00  0.00    +0.173 HD
BRANCH   6   9
ATOM      9  C   UNL     1      -4.559  -4.175   0.023  0.00  0.00    +0.123 C 
ATOM     10  N   UNL     1      -5.550  -3.338   0.037  0.00  0.00    -0.177 NA
ATOM     11  N   UNL     1      -6.875  -3.785   0.050  0.00  0.00    -0.196 N 
ATOM     12  C   UNL     1      -7.166  -5.045   0.429  0.00  0.00    +0.235 C 
ATOM     13  O   UNL     1      -8.317  -5.426   0.444  0.00  0.00    -0.274 OA
ATOM     14  C   UNL     1      -6.054  -5.979   0.838  0.00  0.00    +0.104 C 
ATOM     15  C   UNL     1      -4.803  -5.661   0.011  0.00  0.00    +0.072 C 
ATOM     16  C   UNL     1      -7.953  -2.879  -0.353  0.00  0.00    +0.161 C 
ENDBRANCH   6   9
ENDBRANCH   3   5
BRANCH   1  17
ATOM     17  C   UNL     1       0.002  -0.004   0.002  0.00  0.00    +0.326 C 
BRANCH  17  18
ATOM     18  O   UNL     1      -0.017   1.425   0.010  0.00  0.00    -0.483 OA
BRANCH  18  22
ATOM     19  C   UNL     1       2.523   5.592   0.008  0.00  0.00    +0.045 C 
ATOM     20  C   UNL     1       2.463   4.086   0.001  0.00  0.00    -0.029 A 
ATOM     21  C   UNL     1       1.240   3.444   0.009  0.00  0.00    +0.050 A 
ATOM     22  C   UNL     1       1.185   2.058   0.002  0.00  0.00    +0.122 A 
ATOM     23  C   UNL     1       2.360   1.319  -0.008  0.00  0.00    +0.047 A 
ATOM     24  C   UNL     1       3.580   1.965  -0.021  0.00  0.00    +0.024 A 
ATOM     25  C   UNL     1       3.633   3.348  -0.014  0.00  0.00    +0.044 A 
ATOM     26 CL   UNL     1       5.169   4.157  -0.024  0.00  0.00    -0.083 Cl
ENDBRANCH  18  22
ENDBRANCH  17  18
ENDBRANCH   1  17
TORSDOF 5
