REMARK  Name = ZINC35056500
REMARK  10 active torsions:
REMARK  status: ('A' for Active; 'I' for Inactive)
REMARK    1  A    between atoms: C_1  and  C_2
REMARK    2  A    between atoms: N_4  and  C_5
REMARK    3  A    between atoms: C_7  and  O_39
REMARK    4  A    between atoms: C_15  and  C_17
REMARK    5  A    between atoms: C_15  and  C_18
REMARK    6  A    between atoms: C_20  and  O_22
REMARK    7  A    between atoms: O_22  and  C_23
REMARK    8  A    between atoms: C_26  and  C_29
REMARK    9  A    between atoms: C_29  and  C_31
REMARK   10  A    between atoms: C_32  and  C_33
REMARK                            x       y       z     vdW  Elec       q    Type
REMARK                         _______ _______ _______ _____ _____    ______ ____
ROOT
ATOM      1  C   UNL     1      -1.136  -2.159   0.001  0.00  0.00    +0.173 C 
ATOM      2  C   UNL     1      -2.374  -2.692   0.728  0.00  0.00    +0.172 C 
ATOM      3  C   UNL     1      -3.630  -2.254  -0.027  0.00  0.00    +0.183 C 
ATOM      4  C   UNL     1      -3.550  -2.733  -1.480  0.00  0.00    +0.179 C 
ATOM      5  C   UNL     1      -4.760  -2.180  -2.245  0.00  0.00    +0.197 C 
ATOM      6  O   UNL     1      -4.791  -0.757  -2.091  0.00  0.00    -0.347 OA
ATOM      7  C   UNL     1      -4.859  -0.323  -0.731  0.00  0.00    +0.165 C 
ATOM      8  O   UNL     1      -3.731  -0.828  -0.011  0.00  0.00    -0.341 OA
ATOM      9  C   UNL     1      -6.147  -0.847  -0.093  0.00  0.00    +0.074 C 
ATOM     10  C   UNL     1      -4.851   1.206  -0.683  0.00  0.00    +0.074 C 
ATOM     11  O   UNL     1      -2.344  -2.250  -2.076  0.00  0.00    -0.332 OA
ATOM     12  C   UNL     1      -1.148  -2.663  -1.444  0.00  0.00    +0.331 C 
ENDROOT
BRANCH   1  16
ATOM     13  C   UNL     1      -0.599   1.489   1.031  0.00  0.00    +0.109 C 
ATOM     14  C   UNL     1      -0.579  -0.018   1.022  0.00  0.00    +0.210 C 
ATOM     15  O   UNL     1      -0.043  -0.622   1.927  0.00  0.00    -0.276 OA
ATOM     16  N   UNL     1      -1.156  -0.694   0.009  0.00  0.00    -0.304 N 
ATOM     17  H   UNL     1      -1.584  -0.210  -0.714  0.00  0.00    +0.149 HD
ENDBRANCH   1  16
BRANCH   2  18
ATOM     18  O   UNL     1      -2.410  -2.170   2.057  0.00  0.00    -0.387 OA
ATOM     19  H   UNL     1      -1.641  -2.406   2.594  0.00  0.00    +0.210 HD
ENDBRANCH   2  18
BRANCH  12  20
ATOM     20  O   UNL     1      -1.087  -4.091  -1.452  0.00  0.00    -0.462 OA
BRANCH  20  21
ATOM     21  C   UNL     1      -0.879  -4.693  -2.650  0.00  0.00    +0.124 A 
ATOM     22  C   UNL     1      -0.730  -3.921  -3.797  0.00  0.00    +0.046 A 
ATOM     23  C   UNL     1      -0.518  -4.527  -5.015  0.00  0.00    +0.015 A 
ATOM     24  C   UNL     1      -0.454  -5.921  -5.097  0.00  0.00    +0.022 A 
ATOM     25  C   UNL     1      -0.604  -6.694  -3.942  0.00  0.00    +0.015 A 
ATOM     26  C   UNL     1      -0.809  -6.079  -2.727  0.00  0.00    +0.046 A 
BRANCH  24  27
ATOM     27  C   UNL     1      -0.227  -6.576  -6.401  0.00  0.00    +0.186 C 
ATOM     28  O   UNL     1      -0.097  -5.901  -7.407  0.00  0.00    -0.287 OA
BRANCH  27  29
ATOM     29  C   UNL     1      -0.160  -8.035  -6.486  0.00  0.00    +0.052 C 
ATOM     30  C   UNL     1       0.047  -8.633  -7.678  0.00  0.00    +0.011 C 
BRANCH  30  31
ATOM     31  C   UNL     1       0.115 -10.101  -7.763  0.00  0.00    -0.025 A 
ATOM     32  C   UNL     1      -0.040 -10.879  -6.611  0.00  0.00    +0.008 A 
ATOM     33  C   UNL     1       0.025 -12.254  -6.699  0.00  0.00    +0.001 A 
ATOM     34  C   UNL     1       0.242 -12.863  -7.922  0.00  0.00    +0.000 A 
ATOM     35  C   UNL     1       0.397 -12.100  -9.066  0.00  0.00    +0.001 A 
ATOM     36  C   UNL     1       0.329 -10.725  -8.996  0.00  0.00    +0.008 A 
ENDBRANCH  30  31
ENDBRANCH  27  29
ENDBRANCH  24  27
ENDBRANCH  20  21
ENDBRANCH  12  20
TORSDOF 7
