REMARK  Name = ZINC21607754
REMARK  9 active torsions:
REMARK  status: ('A' for Active; 'I' for Inactive)
REMARK    1  A    between atoms: C_1  and  C_2
REMARK    2  A    between atoms: C_3  and  C_14
REMARK    3  A    between atoms: N_5  and  C_7
REMARK    4  A    between atoms: C_15  and  C_16
REMARK    5  A    between atoms: C_16  and  O_18
REMARK    6  A    between atoms: O_18  and  C_19
REMARK    7  A    between atoms: C_19  and  C_20
REMARK    8  A    between atoms: C_22  and  O_23
REMARK    9  A    between atoms: C_32  and  C_34
REMARK                            x       y       z     vdW  Elec       q    Type
REMARK                         _______ _______ _______ _____ _____    ______ ____
ROOT
ATOM      1  O   UNL     1       2.308   4.256  -0.121  0.00  0.00    -0.457 OA
ENDROOT
BRANCH   1   2
ATOM      2  C   UNL     1       1.161   3.562  -0.271  0.00  0.00    +0.332 C 
ATOM      3  O   UNL     1       0.109   4.152  -0.434  0.00  0.00    -0.246 OA
BRANCH   2   5
ATOM      4  C   UNL     1       0.030   1.452  -0.391  0.00  0.00    +0.020 C 
ATOM      5  C   UNL     1       1.180   2.147  -0.240  0.00  0.00    +0.092 C 
BRANCH   4   8
ATOM      6  C   UNL     1      -1.854  -0.389   1.377  0.00  0.00    +0.068 C 
ATOM      7  C   UNL     1      -0.782  -0.851   0.423  0.00  0.00    +0.069 A 
ATOM      8  C   UNL     1       0.050  -0.015  -0.359  0.00  0.00    +0.035 A 
ATOM      9  C   UNL     1       0.892  -0.844  -1.084  0.00  0.00    +0.140 A 
ATOM     10  N   UNL     1       0.579  -2.114  -0.760  0.00  0.00    -0.221 N 
ATOM     11  N   UNL     1      -0.463  -2.091   0.172  0.00  0.00    -0.170 NA
ATOM     12 CL   UNL     1       2.121  -0.339  -2.200  0.00  0.00    -0.061 Cl
BRANCH  10  13
ATOM     13  C   UNL     1       1.195  -3.264  -1.272  0.00  0.00    +0.067 A 
ATOM     14  C   UNL     1       1.628  -3.293  -2.591  0.00  0.00    +0.028 A 
ATOM     15  C   UNL     1       2.239  -4.426  -3.091  0.00  0.00    +0.002 A 
ATOM     16  C   UNL     1       2.409  -5.535  -2.282  0.00  0.00    +0.000 A 
ATOM     17  C   UNL     1       1.974  -5.511  -0.970  0.00  0.00    +0.002 A 
ATOM     18  C   UNL     1       1.367  -4.379  -0.463  0.00  0.00    +0.028 A 
ENDBRANCH  10  13
ENDBRANCH   4   8
ENDBRANCH   2   5
ENDBRANCH   1   2
BRANCH   1  19
ATOM     19  C   UNL     1       2.215   5.681  -0.163  0.00  0.00    +0.268 C 
BRANCH  19  20
ATOM     20  C   UNL     1       3.585   6.280   0.022  0.00  0.00    +0.007 A 
ATOM     21  C   UNL     1       4.675   5.488   0.194  0.00  0.00    +0.095 A 
ATOM     22  C   UNL     1       5.947   6.073   0.364  0.00  0.00    +0.285 A 
ATOM     23  O   UNL     1       6.117   7.404   0.362  0.00  0.00    -0.425 OA
ATOM     24  C   UNL     1       5.076   8.248   0.196  0.00  0.00    +0.141 A 
ATOM     25  C   UNL     1       3.779   7.732   0.014  0.00  0.00    +0.024 A 
ATOM     26  C   UNL     1       2.695   8.602  -0.153  0.00  0.00    +0.014 A 
ATOM     27  C   UNL     1       2.902   9.951  -0.150  0.00  0.00    +0.024 A 
ATOM     28  C   UNL     1       4.185  10.468   0.024  0.00  0.00    +0.037 A 
ATOM     29  C   UNL     1       5.269   9.620   0.196  0.00  0.00    +0.070 A 
ATOM     30  N   UNL     1       4.380  11.850   0.025  0.00  0.00    -0.286 N 
ATOM     31  C   UNL     1       5.518  12.370  -0.476  0.00  0.00    +0.214 C 
ATOM     32  O   UNL     1       6.330  11.647  -1.014  0.00  0.00    -0.276 OA
ATOM     33  C   UNL     1       5.781  13.850  -0.368  0.00  0.00    +0.109 C 
ATOM     34  H   UNL     1       3.605  12.514   0.435  0.00  0.00    +0.155 HD
BRANCH  22  35
ATOM     35  O   UNL     1       6.916   5.351   0.518  0.00  0.00    -0.480 OA
ATOM     36  H   UNL     1       7.915   5.793   0.652  0.00  0.00    +0.295 HD
ENDBRANCH  22  35
ENDBRANCH  19  20
ENDBRANCH   1  19
TORSDOF 7
