REMARK  Name = ZINC00706492
REMARK  6 active torsions:
REMARK  status: ('A' for Active; 'I' for Inactive)
REMARK    1  A    between atoms: C_1  and  C_2
REMARK    2  A    between atoms: C_3  and  C_20
REMARK    3  A    between atoms: C_4  and  C_10
REMARK    4  A    between atoms: C_20  and  O_22
REMARK    5  A    between atoms: O_22  and  C_23
REMARK    6  A    between atoms: C_23  and  C_24
REMARK                            x       y       z     vdW  Elec       q    Type
REMARK                         _______ _______ _______ _____ _____    ______ ____
ROOT
ATOM      1  C   UNL     1      -0.849   0.607   0.514  0.00  0.00    +0.061 C 
ATOM      2  C   UNL     1      -1.321   1.461   1.663  0.00  0.00    +0.021 C 
ATOM      3  C   UNL     1      -1.110   2.794   1.630  0.00  0.00    +0.078 C 
ATOM      4  C   UNL     1      -1.605   3.616   2.803  0.00  0.00    +0.145 C 
ATOM      5  N   UNL     1      -2.270   2.886   3.895  0.00  0.00    -0.288 N 
ATOM      6  C   UNL     1      -2.402   1.549   3.787  0.00  0.00    +0.304 C 
ATOM      7  O   UNL     1      -2.949   0.937   4.683  0.00  0.00    -0.252 OA
ATOM      8  N   UNL     1      -1.949   0.873   2.723  0.00  0.00    -0.273 N 
ATOM      9  H   UNL     1      -2.606   3.356   4.675  0.00  0.00    +0.151 HD
ATOM     10  H   UNL     1      -2.074  -0.089   2.705  0.00  0.00    +0.156 HD
ENDROOT
BRANCH   4  11
ATOM     11  C   UNL     1      -2.571   4.648   2.278  0.00  0.00    -0.005 A 
ATOM     12  C   UNL     1      -3.926   4.374   2.251  0.00  0.00    +0.056 A 
ATOM     13  C   UNL     1      -4.815   5.322   1.774  0.00  0.00    +0.167 A 
ATOM     14  C   UNL     1      -4.340   6.548   1.312  0.00  0.00    +0.167 A 
ATOM     15  C   UNL     1      -2.981   6.814   1.337  0.00  0.00    +0.065 A 
ATOM     16  C   UNL     1      -2.099   5.864   1.820  0.00  0.00    +0.027 A 
ATOM     17 BR   UNL     1      -0.244   6.230   1.854  0.00  0.00    -0.050 Br
ATOM     18  O   UNL     1      -5.402   7.297   0.894  0.00  0.00    -0.453 OA
ATOM     19  C   UNL     1      -6.563   6.681   1.481  0.00  0.00    +0.466 C 
ATOM     20  O   UNL     1      -6.174   5.304   1.645  0.00  0.00    -0.453 OA
ENDBRANCH   4  11
BRANCH   3  21
ATOM     21  C   UNL     1      -0.454   3.404   0.535  0.00  0.00    +0.339 C 
ATOM     22  O   UNL     1       0.735   3.655   0.601  0.00  0.00    -0.245 OA
BRANCH  21  23
ATOM     23  O   UNL     1      -1.147   3.708  -0.583  0.00  0.00    -0.459 OA
BRANCH  23  24
ATOM     24  C   UNL     1      -0.401   4.216  -1.690  0.00  0.00    +0.264 C 
BRANCH  24  25
ATOM     25  C   UNL     1      -1.329   4.385  -2.896  0.00  0.00    +0.156 C 
ATOM     26  C   UNL     1      -0.513   4.843  -4.124  0.00  0.00    +0.037 C 
ATOM     27  C   UNL     1      -1.470   5.867  -4.792  0.00  0.00    +0.031 C 
ATOM     28  C   UNL     1      -2.154   6.486  -3.547  0.00  0.00    +0.160 C 
ATOM     29  O   UNL     1      -2.303   5.398  -2.621  0.00  0.00    -0.373 OA
ENDBRANCH  24  25
ENDBRANCH  23  24
ENDBRANCH  21  23
ENDBRANCH   3  21
TORSDOF 5
