REMARK  Name = ZINC63140202
REMARK  10 active torsions:
REMARK  status: ('A' for Active; 'I' for Inactive)
REMARK    1  A    between atoms: C_1  and  O_2
REMARK    2  A    between atoms: O_2  and  C_3
REMARK    3  A    between atoms: C_5  and  C_13
REMARK    4  A    between atoms: C_7  and  O_11
REMARK    5  A    between atoms: C_8  and  O_9
REMARK    6  A    between atoms: O_9  and  C_10
REMARK    7  A    between atoms: O_11  and  C_12
REMARK    8  A    between atoms: N_32  and  C_35
REMARK    9  A    between atoms: C_35  and  C_36
REMARK   10  A    between atoms: C_36  and  O_37
REMARK                            x       y       z     vdW  Elec       q    Type
REMARK                         _______ _______ _______ _____ _____    ______ ____
ROOT
ATOM      1  C   UNL     1      -4.871   0.264   0.038  0.00  0.00    +0.134 C 
ATOM      2  C   UNL     1      -5.420   0.345  -1.386  0.00  0.00    +0.131 C 
ATOM      3  C   UNL     1      -6.038  -1.022  -1.673  0.00  0.00    -0.034 C 
ATOM      4  C   UNL     1      -5.378  -1.531  -2.704  0.00  0.00    -0.001 A 
ATOM      5  C   UNL     1      -5.537  -2.795  -3.441  0.00  0.00    +0.010 A 
ATOM      6  C   UNL     1      -4.668  -3.006  -4.465  0.00  0.00    +0.001 A 
ATOM      7  C   UNL     1      -3.669  -2.095  -4.825  0.00  0.00    +0.002 A 
ATOM      8  C   UNL     1      -3.452  -0.909  -4.204  0.00  0.00    +0.026 A 
ATOM      9  C   UNL     1      -4.304  -0.575  -3.111  0.00  0.00    +0.043 A 
ATOM     10  N   UNL     1      -4.325   0.502  -2.351  0.00  0.00    -0.375 N 
ATOM     11  C   UNL     1      -7.162  -1.562  -0.831  0.00  0.00    +0.065 C 
ATOM     12  C   UNL     1      -6.905  -1.256   0.622  0.00  0.00    +0.167 C 
ATOM     13  N   UNL     1      -5.819  -0.359   0.951  0.00  0.00    -0.279 N 
ATOM     14  C   UNL     1      -5.646  -0.115   2.292  0.00  0.00    +0.234 C 
ATOM     15  O   UNL     1      -4.813   0.671   2.692  0.00  0.00    -0.274 OA
ATOM     16  C   UNL     1      -6.544  -0.873   3.247  0.00  0.00    +0.203 C 
ATOM     17  N   UNL     1      -6.613  -2.279   2.807  0.00  0.00    -0.289 N 
ATOM     18  C   UNL     1      -6.817  -2.494   1.478  0.00  0.00    +0.237 C 
ATOM     19  O   UNL     1      -6.924  -3.609   1.015  0.00  0.00    -0.274 OA
ATOM     20  H   UNL     1      -3.727   1.264  -2.409  0.00  0.00    +0.160 HD
ENDROOT
BRANCH   1  23
ATOM     21  C   UNL     1      -1.201  -0.638   0.010  0.00  0.00    +0.165 A 
ATOM     22  C   UNL     1      -2.375   0.101   0.019  0.00  0.00    +0.055 A 
ATOM     23  C   UNL     1      -3.598  -0.543   0.028  0.00  0.00    -0.018 A 
ATOM     24  C   UNL     1      -3.657  -1.924   0.027  0.00  0.00    +0.055 A 
ATOM     25  C   UNL     1      -2.488  -2.670   0.017  0.00  0.00    +0.165 A 
ATOM     26  C   UNL     1      -1.256  -2.027   0.003  0.00  0.00    +0.204 A 
BRANCH  21  28
ATOM     27  C   UNL     1      -0.017   1.425   0.010  0.00  0.00    +0.277 C 
ATOM     28  O   UNL     1       0.002  -0.004   0.002  0.00  0.00    -0.491 OA
ENDBRANCH  21  28
BRANCH  26  29
ATOM     29  O   UNL     1      -0.106  -2.755  -0.012  0.00  0.00    -0.488 OA
ATOM     30  C   UNL     1       0.454  -3.109   1.254  0.00  0.00    +0.277 C 
ENDBRANCH  26  29
BRANCH  25  31
ATOM     31  O   UNL     1      -2.547  -4.028   0.017  0.00  0.00    -0.491 OA
ATOM     32  C   UNL     1      -3.847  -4.621   0.026  0.00  0.00    +0.277 C 
ENDBRANCH  25  31
ENDBRANCH   1  23
BRANCH  17  33
ATOM     33  C   UNL     1      -6.468  -3.388   3.753  0.00  0.00    +0.136 C 
BRANCH  33  34
ATOM     34  C   UNL     1      -7.843  -3.773   4.302  0.00  0.00    +0.174 C 
BRANCH  34  35
ATOM     35  O   UNL     1      -8.653  -4.284   3.241  0.00  0.00    -0.393 OA
ATOM     36  H   UNL     1      -9.541  -4.549   3.517  0.00  0.00    +0.209 HD
ENDBRANCH  34  35
ENDBRANCH  33  34
ENDBRANCH  17  33
TORSDOF 7
