REMARK  Name = ZINC57401351
REMARK  11 active torsions:
REMARK  status: ('A' for Active; 'I' for Inactive)
REMARK    1  A    between atoms: C_1  and  C_2
REMARK    2  A    between atoms: C_3  and  C_32
REMARK    3  A    between atoms: C_4  and  C_31
REMARK    4  A    between atoms: C_5  and  C_10
REMARK    5  A    between atoms: C_6  and  C_9
REMARK    6  A    between atoms: C_7  and  C_8
REMARK    7  A    between atoms: C_10  and  O_12
REMARK    8  A    between atoms: O_12  and  C_13
REMARK    9  A    between atoms: C_13  and  C_14
REMARK   10  A    between atoms: N_16  and  N_17
REMARK   11  A    between atoms: C_18  and  C_20
REMARK                            x       y       z     vdW  Elec       q    Type
REMARK                         _______ _______ _______ _____ _____    ______ ____
ROOT
ATOM      1  C   UNL     1      -2.390  -6.960  -0.024  0.00  0.00    +0.267 C 
ATOM      2  O   UNL     1      -3.361  -6.234  -0.015  0.00  0.00    -0.271 OA
ATOM      3  N   UNL     1      -2.549  -8.298  -0.030  0.00  0.00    -0.231 N 
ATOM      4  H   UNL     1      -1.772  -8.879  -0.037  0.00  0.00    +0.173 HD
ENDROOT
BRANCH   3   5
ATOM      5  N   UNL     1      -3.836  -8.851  -0.027  0.00  0.00    -0.231 N 
ATOM      6  C   UNL     1      -3.995 -10.189  -0.033  0.00  0.00    +0.273 C 
ATOM      7  O   UNL     1      -3.023 -10.915  -0.042  0.00  0.00    -0.270 OA
ATOM      8  H   UNL     1      -4.613  -8.270  -0.020  0.00  0.00    +0.173 HD
BRANCH   6   9
ATOM      9  C   UNL     1      -5.380 -10.783  -0.030  0.00  0.00    +0.297 C 
ATOM     10  C   UNL     1      -6.084 -10.446   1.291  0.00  0.00    +0.283 C 
ATOM     11  O   UNL     1      -7.388 -11.036   1.267  0.00  0.00    -0.484 OA
ATOM     12  C   UNL     1      -7.467 -12.329   0.851  0.00  0.00    +0.162 A 
ATOM     13  C   UNL     1      -8.604 -13.069   1.138  0.00  0.00    +0.049 A 
ATOM     14  C   UNL     1      -8.700 -14.383   0.719  0.00  0.00    +0.004 A 
ATOM     15  C   UNL     1      -7.662 -14.963   0.013  0.00  0.00    +0.004 A 
ATOM     16  C   UNL     1      -6.526 -14.231  -0.275  0.00  0.00    +0.049 A 
ATOM     17  C   UNL     1      -6.423 -12.913   0.143  0.00  0.00    +0.163 A 
ATOM     18  O   UNL     1      -5.294 -12.208  -0.142  0.00  0.00    -0.472 OA
ENDBRANCH   6   9
ENDBRANCH   3   5
BRANCH   1  19
ATOM     19  C   UNL     1      -1.005  -6.365  -0.028  0.00  0.00    +0.329 C 
BRANCH  19  20
ATOM     20  O   UNL     1      -1.098  -4.939  -0.019  0.00  0.00    -0.452 OA
BRANCH  20  21
ATOM     21  C   UNL     1       0.059  -4.250  -0.021  0.00  0.00    +0.340 C 
ATOM     22  O   UNL     1       1.119  -4.844  -0.030  0.00  0.00    -0.245 OA
BRANCH  21  27
ATOM     23  C   UNL     1      -0.018   1.503   0.010  0.00  0.00    +0.044 C 
ATOM     24  C   UNL     1       0.002  -0.004   0.002  0.00  0.00    -0.044 A 
ATOM     25  C   UNL     1       0.006  -0.686  -1.202  0.00  0.00    -0.044 A 
ATOM     26  C   UNL     1       0.024  -2.065  -1.217  0.00  0.00    -0.033 A 
ATOM     27  C   UNL     1       0.040  -2.773  -0.013  0.00  0.00    +0.065 A 
ATOM     28  C   UNL     1       0.036  -2.079   1.198  0.00  0.00    -0.033 A 
ATOM     29  C   UNL     1       0.023  -0.699   1.198  0.00  0.00    -0.044 A 
ATOM     30  C   UNL     1       0.025   0.052   2.505  0.00  0.00    +0.044 C 
ATOM     31  C   UNL     1       0.052  -2.834   2.502  0.00  0.00    +0.045 C 
ATOM     32  C   UNL     1       0.028  -2.807  -2.529  0.00  0.00    +0.045 C 
ATOM     33  C   UNL     1      -0.011   0.080  -2.500  0.00  0.00    +0.044 C 
ENDBRANCH  21  27
ENDBRANCH  20  21
ENDBRANCH  19  20
ENDBRANCH   1  19
TORSDOF 6
