REMARK  Name = ZINC35548530
REMARK  8 active torsions:
REMARK  status: ('A' for Active; 'I' for Inactive)
REMARK    1  A    between atoms: C_1  and  O_2
REMARK    2  A    between atoms: O_2  and  C_3
REMARK    3  A    between atoms: C_5  and  C_11
REMARK    4  A    between atoms: C_7  and  O_9
REMARK    5  A    between atoms: O_9  and  C_10
REMARK    6  A    between atoms: C_12  and  C_21
REMARK    7  A    between atoms: C_17  and  S_19
REMARK    8  A    between atoms: S_19  and  C_20
REMARK                            x       y       z     vdW  Elec       q    Type
REMARK                         _______ _______ _______ _____ _____    ______ ____
ROOT
ATOM      1  C   UNL     1      -2.549  -4.149   0.015  0.00  0.00    +0.097 A 
ATOM      2  C   UNL     1      -3.430  -4.823   0.880  0.00  0.00    +0.142 A 
ATOM      3  C   UNL     1      -3.455  -6.242   0.845  0.00  0.00    +0.270 A 
ATOM      4  O   UNL     1      -4.202  -6.870   1.575  0.00  0.00    -0.266 OA
ATOM      5  N   UNL     1      -2.634  -6.881  -0.015  0.00  0.00    -0.301 N 
ATOM      6  H   UNL     1      -2.636  -7.850  -0.054  0.00  0.00    +0.171 HD
ATOM      7  C   UNL     1      -1.803  -6.171  -0.828  0.00  0.00    +0.169 A 
ATOM      8  N   UNL     1      -1.772  -4.853  -0.810  0.00  0.00    -0.222 NA
ENDROOT
BRANCH   1  11
ATOM      9  C   UNL     1      -1.201  -0.637   0.071  0.00  0.00    +0.124 A 
ATOM     10  C   UNL     1      -1.254  -2.022   0.070  0.00  0.00    +0.056 A 
ATOM     11  C   UNL     1      -2.488  -2.671   0.017  0.00  0.00    +0.009 A 
ATOM     12  C   UNL     1      -3.664  -1.922  -0.035  0.00  0.00    +0.056 A 
ATOM     13  C   UNL     1      -3.602  -0.539  -0.034  0.00  0.00    +0.124 A 
ATOM     14  C   UNL     1      -2.374   0.103   0.025  0.00  0.00    +0.091 A 
BRANCH   9  16
ATOM     15  C   UNL     1      -0.020   1.425   0.127  0.00  0.00    +0.277 C 
ATOM     16  O   UNL     1      -0.000  -0.004   0.123  0.00  0.00    -0.495 OA
ENDBRANCH   9  16
BRANCH  13  17
ATOM     17  O   UNL     1      -4.747   0.192  -0.085  0.00  0.00    -0.495 OA
ATOM     18  C   UNL     1      -4.611   1.614  -0.080  0.00  0.00    +0.277 C 
ENDBRANCH  13  17
ENDBRANCH   1  11
BRANCH   7  19
ATOM     19  S   UNL     1      -0.745  -7.038  -1.938  0.00  0.00    -0.091 S 
ATOM     20  C   UNL     1       0.159  -5.723  -2.800  0.00  0.00    +0.093 C 
ENDBRANCH   7  19
BRANCH   2  21
ATOM     21  C   UNL     1      -4.280  -4.096   1.775  0.00  0.00    +0.107 C 
ATOM     22  N   UNL     1      -4.954  -3.519   2.484  0.00  0.00    -0.191 NA
ENDBRANCH   2  21
TORSDOF 5
