REMARK  Name = ZINC63358135
REMARK  6 active torsions:
REMARK  status: ('A' for Active; 'I' for Inactive)
REMARK    1  A    between atoms: C_4  and  N_22
REMARK    2  A    between atoms: C_5  and  C_7
REMARK    3  A    between atoms: C_7  and  N_8
REMARK    4  A    between atoms: N_11  and  C_12
REMARK    5  A    between atoms: C_12  and  C_13
REMARK    6  A    between atoms: C_18  and  N_19
REMARK                            x       y       z     vdW  Elec       q    Type
REMARK                         _______ _______ _______ _____ _____    ______ ____
ROOT
ATOM      1  N   UNL     1       1.486  -2.680   1.333  0.00  0.00    -0.295 N 
ATOM      2  C   UNL     1       1.549  -4.005   1.567  0.00  0.00    +0.300 C 
ATOM      3  O   UNL     1       1.389  -4.792   0.654  0.00  0.00    -0.253 OA
ATOM      4  N   UNL     1       1.788  -4.459   2.814  0.00  0.00    -0.295 N 
ATOM      5  H   UNL     1       1.613  -2.052   2.061  0.00  0.00    +0.151 HD
ATOM      6  H   UNL     1       1.915  -3.831   3.542  0.00  0.00    +0.151 HD
ENDROOT
BRANCH   1   7
ATOM      7  C   UNL     1       1.226  -2.187  -0.022  0.00  0.00    +0.143 C 
BRANCH   7  12
ATOM      8  C   UNL     1      -0.017   1.378   0.010  0.00  0.00    +0.000 A 
ATOM      9  C   UNL     1       1.170   2.089   0.002  0.00  0.00    +0.002 A 
ATOM     10  C   UNL     1       2.377   1.419  -0.013  0.00  0.00    +0.028 A 
ATOM     11  C   UNL     1       2.399   0.031  -0.021  0.00  0.00    +0.070 A 
ATOM     12  C   UNL     1       1.207  -0.680  -0.013  0.00  0.00    -0.005 A 
ATOM     13  C   UNL     1       0.002  -0.004   0.002  0.00  0.00    +0.007 A 
BRANCH  11  14
ATOM     14  N   UNL     1       3.624  -0.652  -0.037  0.00  0.00    -0.240 N 
ATOM     15  C   UNL     1       4.851  -0.085  -0.042  0.00  0.00    +0.114 A 
ATOM     16  C   UNL     1       5.765  -1.083  -0.058  0.00  0.00    +0.041 A 
ATOM     17  C   UNL     1       5.075  -2.300  -0.064  0.00  0.00    +0.135 A 
ATOM     18  N   UNL     1       3.792  -2.043  -0.046  0.00  0.00    -0.175 NA
ENDBRANCH  11  14
ENDBRANCH   7  12
ENDBRANCH   1   7
BRANCH   4  19
ATOM     19  C   UNL     1       1.856  -5.900   3.068  0.00  0.00    +0.143 C 
BRANCH  19  20
ATOM     20  C   UNL     1       2.132  -6.139   4.530  0.00  0.00    -0.000 A 
ATOM     21  C   UNL     1       3.416  -6.432   4.952  0.00  0.00    +0.007 A 
ATOM     22  C   UNL     1       3.669  -6.652   6.293  0.00  0.00    +0.000 A 
ATOM     23  C   UNL     1       2.639  -6.577   7.213  0.00  0.00    +0.002 A 
ATOM     24  C   UNL     1       1.356  -6.284   6.791  0.00  0.00    +0.033 A 
ATOM     25  C   UNL     1       1.103  -6.060   5.450  0.00  0.00    +0.131 A 
BRANCH  25  26
ATOM     26  N   UNL     1      -0.270  -5.740   4.999  0.00  0.00    +0.057 N 
ATOM     27  O   UNL     1      -1.169  -5.671   5.804  0.00  0.00    -0.126 OA
ATOM     28  O   UNL     1      -0.491  -5.548   3.826  0.00  0.00    -0.126 OA
ENDBRANCH  25  26
ENDBRANCH  19  20
ENDBRANCH   4  19
TORSDOF 6
