REMARK  Name = ZINC64788311
REMARK  3 active torsions:
REMARK  status: ('A' for Active; 'I' for Inactive)
REMARK    1  A    between atoms: C_1  and  N_2
REMARK    2  A    between atoms: N_7  and  C_10
REMARK    3  A    between atoms: C_14  and  C_17
REMARK                            x       y       z     vdW  Elec       q    Type
REMARK                         _______ _______ _______ _____ _____    ______ ____
ROOT
ATOM      1  C   UNL     1      -0.018   1.461   0.010  0.00  0.00    +0.143 C 
ATOM      2  N   UNL     1       0.002  -0.004   0.002  0.00  0.00    -0.224 N 
ATOM      3  C   UNL     1      -1.166  -0.679   0.004  0.00  0.00    +0.260 C 
ATOM      4  C   UNL     1      -1.119  -2.152  -0.005  0.00  0.00    +0.117 C 
ATOM      5  C   UNL     1       0.213  -2.781  -0.015  0.00  0.00    +0.260 C 
ATOM      6  O   UNL     1       0.333  -3.992  -0.023  0.00  0.00    -0.269 OA
ATOM      7  N   UNL     1       1.298  -1.978  -0.016  0.00  0.00    -0.224 N 
ATOM      8  C   UNL     1       1.180  -0.643  -0.013  0.00  0.00    +0.317 C 
ATOM      9  O   UNL     1       2.196   0.024  -0.018  0.00  0.00    -0.252 OA
ATOM     10  C   UNL     1       2.633  -2.579  -0.026  0.00  0.00    +0.143 C 
ATOM     11  C   UNL     1      -2.275  -2.910  -0.003  0.00  0.00    +0.038 C 
ATOM     12  N   UNL     1      -3.534  -2.435   0.001  0.00  0.00    -0.283 N 
ATOM     13  N   UNL     1      -4.475  -3.421   0.037  0.00  0.00    -0.235 NA
ATOM     14  C   UNL     1      -3.826  -4.683  -0.389  0.00  0.00    +0.108 C 
ATOM     15  C   UNL     1      -2.348  -4.427  -0.011  0.00  0.00    +0.077 C 
ATOM     16  O   UNL     1      -2.229  -0.088   0.013  0.00  0.00    -0.269 OA
ATOM     17  H   UNL     1      -4.870  -3.511   0.961  0.00  0.00    +0.145 HD
ATOM     18  H   UNL     1      -3.750  -1.490  -0.020  0.00  0.00    +0.166 HD
ENDROOT
BRANCH  14  19
ATOM     19  C   UNL     1      -4.384  -5.859   0.371  0.00  0.00    -0.028 A 
ATOM     20  C   UNL     1      -4.696  -5.730   1.712  0.00  0.00    +0.008 A 
ATOM     21  C   UNL     1      -5.208  -6.807   2.409  0.00  0.00    +0.038 A 
ATOM     22  C   UNL     1      -5.410  -8.016   1.765  0.00  0.00    +0.123 A 
ATOM     23  C   UNL     1      -5.098  -8.144   0.422  0.00  0.00    +0.038 A 
ATOM     24  C   UNL     1      -4.590  -7.064  -0.275  0.00  0.00    +0.008 A 
ATOM     25  F   UNL     1      -5.911  -9.070   2.446  0.00  0.00    -0.205 F 
ENDBRANCH  14  19
TORSDOF 1
