REMARK  Name = ZINC10159144
REMARK  6 active torsions:
REMARK  status: ('A' for Active; 'I' for Inactive)
REMARK    1  A    between atoms: C_4  and  N_7
REMARK    2  A    between atoms: C_9  and  O_26
REMARK    3  A    between atoms: C_10  and  C_12
REMARK    4  A    between atoms: N_14  and  N_15
REMARK    5  A    between atoms: C_16  and  C_18
REMARK    6  A    between atoms: C_18  and  C_19
REMARK                            x       y       z     vdW  Elec       q    Type
REMARK                         _______ _______ _______ _____ _____    ______ ____
ROOT
ATOM      1  C   UNL     1       1.319   4.468   0.014  0.00  0.00    +0.284 C 
ATOM      2  O   UNL     1       2.534   4.430   0.003  0.00  0.00    -0.267 OA
ATOM      3  N   UNL     1       0.682   5.656   0.026  0.00  0.00    -0.229 N 
ATOM      4  H   UNL     1      -0.288   5.686   0.035  0.00  0.00    +0.173 HD
ENDROOT
BRANCH   1   8
ATOM      5  N   UNL     1      -1.118   1.870   0.017  0.00  0.00    -0.236 N 
ATOM      6  C   UNL     1      -0.013   1.076   0.008  0.00  0.00    +0.160 A 
ATOM      7  C   UNL     1       1.068   1.898   0.002  0.00  0.00    +0.167 A 
ATOM      8  C   UNL     1       0.542   3.215   0.014  0.00  0.00    +0.190 A 
ATOM      9  N   UNL     1      -0.773   3.107   0.026  0.00  0.00    -0.158 NA
BRANCH   5  13
ATOM     10  C   UNL     1      -5.050   0.487   0.024  0.00  0.00    +0.000 A 
ATOM     11  C   UNL     1      -4.796   1.847   0.031  0.00  0.00    +0.002 A 
ATOM     12  C   UNL     1      -3.495   2.308   0.029  0.00  0.00    +0.028 A 
ATOM     13  C   UNL     1      -2.440   1.405   0.020  0.00  0.00    +0.065 A 
ATOM     14  C   UNL     1      -2.697   0.041   0.007  0.00  0.00    +0.028 A 
ATOM     15  C   UNL     1      -4.001  -0.414   0.015  0.00  0.00    +0.002 A 
ENDBRANCH   5  13
BRANCH   7  16
ATOM     16  O   UNL     1       2.379   1.534  -0.012  0.00  0.00    -0.503 OA
ATOM     17  H   UNL     1       2.750   1.434  -0.899  0.00  0.00    +0.292 HD
ENDBRANCH   7  16
ENDBRANCH   1   8
BRANCH   3  18
ATOM     18  N   UNL     1       1.420   6.847   0.026  0.00  0.00    -0.234 N 
ATOM     19  C   UNL     1       0.783   8.034   0.038  0.00  0.00    +0.233 C 
ATOM     20  O   UNL     1      -0.429   8.072   0.050  0.00  0.00    -0.274 OA
ATOM     21  H   UNL     1       2.389   6.816   0.017  0.00  0.00    +0.173 HD
BRANCH  19  22
ATOM     22  C   UNL     1       1.577   9.315   0.038  0.00  0.00    +0.135 C 
BRANCH  22  23
ATOM     23  C   UNL     1       0.633  10.491   0.053  0.00  0.00    -0.003 A 
ATOM     24  C   UNL     1       0.276  11.105  -1.132  0.00  0.00    +0.007 A 
ATOM     25  C   UNL     1      -0.594  12.180  -1.119  0.00  0.00    +0.000 A 
ATOM     26  C   UNL     1      -1.098  12.648   0.081  0.00  0.00    +0.003 A 
ATOM     27  C   UNL     1      -0.737  12.039   1.267  0.00  0.00    +0.038 A 
ATOM     28  C   UNL     1       0.130  10.959   1.255  0.00  0.00    +0.127 A 
ATOM     29  F   UNL     1       0.483  10.363   2.414  0.00  0.00    -0.205 F 
ENDBRANCH  22  23
ENDBRANCH  19  22
ENDBRANCH   3  18
TORSDOF 6
