REMARK  Name = ZINC50985974
REMARK  6 active torsions:
REMARK  status: ('A' for Active; 'I' for Inactive)
REMARK    1  A    between atoms: C_1  and  C_2
REMARK    2  A    between atoms: C_4  and  C_10
REMARK    3  A    between atoms: C_7  and  O_8
REMARK    4  A    between atoms: O_8  and  C_9
REMARK    5  A    between atoms: N_12  and  C_16
REMARK    6  A    between atoms: C_13  and  C_15
REMARK                            x       y       z     vdW  Elec       q    Type
REMARK                         _______ _______ _______ _____ _____    ______ ____
ROOT
ATOM      1  C   UNL     1       0.027  -2.816  -2.517  0.00  0.00    +0.172 C 
ATOM      2  C   UNL     1       1.421  -3.317  -2.841  0.00  0.00    +0.100 C 
ATOM      3  N   UNL     1       1.293  -4.689  -2.889  0.00  0.00    -0.282 N 
ATOM      4  C   UNL     1      -0.001  -5.048  -2.634  0.00  0.00    +0.073 C 
ATOM      5  N   UNL     1      -0.778  -4.043  -2.415  0.00  0.00    -0.363 N 
ATOM      6  C   UNL     1      -0.473  -6.479  -2.612  0.00  0.00    +0.081 C 
ATOM      7  C   UNL     1       2.384  -5.624  -3.173  0.00  0.00    +0.138 C 
ATOM      8  N   UNL     1       2.490  -2.616  -3.030  0.00  0.00    -0.388 N 
ATOM      9  H   UNL     1       2.453  -1.648  -2.968  0.00  0.00    +0.157 HD
ATOM     10  H   UNL     1       3.330  -3.057  -3.233  0.00  0.00    +0.157 HD
ATOM     11  H   UNL     1      -1.726  -4.087  -2.216  0.00  0.00    +0.162 HD
ENDROOT
BRANCH   1  15
ATOM     12  C   UNL     1      -0.018   1.503   0.010  0.00  0.00    +0.047 C 
ATOM     13  C   UNL     1       0.002  -0.004   0.002  0.00  0.00    -0.008 A 
ATOM     14  C   UNL     1       0.006  -0.689  -1.198  0.00  0.00    +0.013 A 
ATOM     15  C   UNL     1       0.024  -2.071  -1.206  0.00  0.00    -0.018 A 
ATOM     16  C   UNL     1       0.039  -2.772  -0.014  0.00  0.00    +0.009 A 
ATOM     17  C   UNL     1       0.036  -2.092   1.188  0.00  0.00    +0.046 A 
ATOM     18  C   UNL     1       0.023  -0.705   1.199  0.00  0.00    +0.123 A 
BRANCH  18  19
ATOM     19  O   UNL     1       0.025  -0.033   2.381  0.00  0.00    -0.495 OA
ATOM     20  C   UNL     1       0.048  -0.820   3.574  0.00  0.00    +0.277 C 
ENDBRANCH  18  19
ENDBRANCH   1  15
TORSDOF 2
