REMARK  Name = ZINC00565715
REMARK  3 active torsions:
REMARK  status: ('A' for Active; 'I' for Inactive)
REMARK    1  A    between atoms: C_1  and  O_2
REMARK    2  A    between atoms: O_2  and  C_3
REMARK    3  A    between atoms: C_8  and  C_9
REMARK                            x       y       z     vdW  Elec       q    Type
REMARK                         _______ _______ _______ _____ _____    ______ ____
ROOT
ATOM      1  C   UNL     1       0.051  -2.828  -0.033  0.00  0.00    +0.194 C 
ATOM      2  N   UNL     1      -0.284  -4.158  -0.573  0.00  0.00    -0.316 N 
ATOM      3  C   UNL     1      -1.469  -4.265  -1.258  0.00  0.00    +0.080 A 
ATOM      4  C   UNL     1      -2.542  -3.387  -1.045  0.00  0.00    +0.068 A 
ATOM      5  C   UNL     1      -3.721  -3.627  -1.861  0.00  0.00    -0.023 A 
ATOM      6  C   UNL     1      -3.614  -4.675  -2.707  0.00  0.00    -0.005 A 
ATOM      7  S   UNL     1      -1.989  -5.322  -2.426  0.00  0.00    -0.078 S 
ATOM      8  C   UNL     1      -4.653  -5.167  -3.666  0.00  0.00    +0.043 C 
ATOM      9  C   UNL     1      -6.001  -4.538  -3.284  0.00  0.00    +0.005 C 
ATOM     10  C   UNL     1      -5.803  -3.034  -3.072  0.00  0.00    +0.005 C 
ATOM     11  C   UNL     1      -4.991  -2.791  -1.798  0.00  0.00    +0.037 C 
ATOM     12  C   UNL     1      -2.373  -2.328  -0.024  0.00  0.00    +0.248 C 
ATOM     13  O   UNL     1      -3.312  -1.645   0.343  0.00  0.00    -0.270 OA
ATOM     14  N   UNL     1      -1.135  -2.151   0.481  0.00  0.00    -0.289 N 
ATOM     15  H   UNL     1       0.304  -4.920  -0.449  0.00  0.00    +0.149 HD
ATOM     16  H   UNL     1      -1.028  -1.541   1.227  0.00  0.00    +0.151 HD
ENDROOT
BRANCH   1  22
ATOM     17  C   UNL     1       0.606  -0.607  -1.056  0.00  0.00    +0.127 A 
ATOM     18  C   UNL     1       1.173   0.161  -2.063  0.00  0.00    +0.046 A 
ATOM     19  C   UNL     1       1.786  -0.455  -3.136  0.00  0.00    +0.004 A 
ATOM     20  C   UNL     1       1.836  -1.835  -3.208  0.00  0.00    +0.001 A 
ATOM     21  C   UNL     1       1.271  -2.602  -2.207  0.00  0.00    +0.011 A 
ATOM     22  C   UNL     1       0.661  -1.991  -1.128  0.00  0.00    +0.032 A 
BRANCH  17  24
ATOM     23  C   UNL     1      -0.017   1.425   0.010  0.00  0.00    +0.277 C 
ATOM     24  O   UNL     1       0.002  -0.004   0.002  0.00  0.00    -0.495 OA
ENDBRANCH  17  24
ENDBRANCH   1  22
TORSDOF 2
