REMARK  Name = ZINC59121878
REMARK  11 active torsions:
REMARK  status: ('A' for Active; 'I' for Inactive)
REMARK    1  A    between atoms: C_1  and  C_2
REMARK    2  A    between atoms: C_3  and  C_30
REMARK    3  A    between atoms: N_6  and  C_7
REMARK    4  A    between atoms: C_7  and  C_8
REMARK    5  A    between atoms: N_14  and  C_22
REMARK    6  A    between atoms: C_16  and  C_18
REMARK    7  A    between atoms: C_18  and  O_20
REMARK    8  A    between atoms: O_20  and  C_21
REMARK    9  A    between atoms: C_25  and  O_28
REMARK   10  A    between atoms: O_28  and  C_29
REMARK   11  A    between atoms: C_30  and  C_32
REMARK                            x       y       z     vdW  Elec       q    Type
REMARK                         _______ _______ _______ _____ _____    ______ ____
ROOT
ATOM      1  C   UNL     1      -0.050   2.017   0.128  0.00  0.00    +0.062 C 
ATOM      2  C   UNL     1      -0.060   0.522  -0.065  0.00  0.00    +0.024 C 
ATOM      3  C   UNL     1      -0.182   0.020  -1.325  0.00  0.00    +0.071 C 
ATOM      4  S   UNL     1      -0.145  -1.752  -1.067  0.00  0.00    -0.062 S 
ATOM      5  C   UNL     1       0.034  -1.705   0.748  0.00  0.00    +0.229 C 
ATOM      6  N   UNL     1       0.058  -0.280   1.018  0.00  0.00    -0.288 N 
ATOM      7  N   UNL     1       1.175  -2.468   1.224  0.00  0.00    -0.180 N 
ATOM      8  N   UNL     1       0.854  -3.517   2.072  0.00  0.00    -0.162 NA
ATOM      9  C   UNL     1      -0.377  -3.798   2.417  0.00  0.00    +0.203 C 
ATOM     10  S   UNL     1      -1.354  -2.567   1.560  0.00  0.00    -0.039 S 
ENDROOT
BRANCH   7  11
ATOM     11  C   UNL     1       2.489  -2.169   0.857  0.00  0.00    +0.056 A 
ATOM     12  C   UNL     1       2.748  -1.100   0.008  0.00  0.00    +0.028 A 
ATOM     13  C   UNL     1       4.047  -0.806  -0.354  0.00  0.00    +0.047 A 
ATOM     14  C   UNL     1       5.095  -1.576   0.130  0.00  0.00    +0.120 A 
ATOM     15  C   UNL     1       4.838  -2.644   0.978  0.00  0.00    +0.047 A 
ATOM     16  C   UNL     1       3.539  -2.937   1.346  0.00  0.00    +0.028 A 
BRANCH  14  17
ATOM     17  O   UNL     1       6.374  -1.286  -0.227  0.00  0.00    -0.495 OA
ATOM     18  C   UNL     1       7.403  -2.120   0.308  0.00  0.00    +0.277 C 
ENDBRANCH  14  17
ENDBRANCH   7  11
BRANCH   3  19
ATOM     19  C   UNL     1      -0.306   0.723  -2.537  0.00  0.00    +0.168 C 
ATOM     20  O   UNL     1      -0.217   1.935  -2.548  0.00  0.00    -0.292 OA
ATOM     21  C   UNL     1      -0.551  -0.027  -3.821  0.00  0.00    +0.092 C 
ENDBRANCH   3  19
BRANCH   9  22
ATOM     22  C   UNL     1      -0.847  -4.872   3.299  0.00  0.00    +0.366 C 
ATOM     23  O   UNL     1      -2.035  -5.001   3.520  0.00  0.00    -0.243 OA
BRANCH  22  24
ATOM     24  O   UNL     1       0.041  -5.717   3.864  0.00  0.00    -0.463 OA
ATOM     25  C   UNL     1      -0.487  -6.739   4.712  0.00  0.00    +0.280 C 
ENDBRANCH  22  24
ENDBRANCH   9  22
BRANCH   6  26
ATOM     26  C   UNL     1       0.197   0.256   2.374  0.00  0.00    +0.143 C 
BRANCH  26  27
ATOM     27  C   UNL     1      -1.169   0.440   2.984  0.00  0.00    -0.030 A 
ATOM     28  C   UNL     1      -1.897   1.585   2.717  0.00  0.00    +0.005 A 
ATOM     29  C   UNL     1      -3.150   1.753   3.276  0.00  0.00    +0.000 A 
ATOM     30  C   UNL     1      -3.675   0.777   4.101  0.00  0.00    +0.000 A 
ATOM     31  C   UNL     1      -2.948  -0.368   4.368  0.00  0.00    +0.000 A 
ATOM     32  C   UNL     1      -1.697  -0.539   3.805  0.00  0.00    +0.005 A 
ENDBRANCH  26  27
ENDBRANCH   6  26
TORSDOF 7
