REMARK  Name = ZINC01100727
REMARK  5 active torsions:
REMARK  status: ('A' for Active; 'I' for Inactive)
REMARK    1  A    between atoms: C_10  and  C_11
REMARK    2  A    between atoms: C_11  and  N_12
REMARK    3  A    between atoms: C_15  and  C_20
REMARK    4  A    between atoms: N_24  and  C_28
REMARK    5  A    between atoms: C_28  and  C_29
REMARK                            x       y       z     vdW  Elec       q    Type
REMARK                         _______ _______ _______ _____ _____    ______ ____
ROOT
ATOM      1  N   UNL     1       0.490   4.420   1.296  0.00  0.00    -0.228 N 
ATOM      2  C   UNL     1      -0.778   4.342   1.662  0.00  0.00    +0.238 C 
ATOM      3  O   UNL     1      -1.645   3.942   0.915  0.00  0.00    -0.274 OA
ATOM      4  C   UNL     1      -1.073   4.782   3.089  0.00  0.00    +0.164 C 
ATOM      5  S   UNL     1       0.619   5.253   3.629  0.00  0.00    -0.053 S 
ATOM      6  C   UNL     1       1.468   4.865   2.106  0.00  0.00    +0.282 C 
ATOM      7  O   UNL     1       2.653   4.977   1.859  0.00  0.00    -0.262 OA
ENDROOT
BRANCH   4   8
ATOM      8  C   UNL     1      -1.625   3.629   3.929  0.00  0.00    +0.164 C 
ATOM      9  C   UNL     1      -1.665   3.991   5.407  0.00  0.00    +0.238 C 
ATOM     10  O   UNL     1      -2.342   4.902   5.834  0.00  0.00    -0.274 OA
ATOM     11  N   UNL     1      -0.909   3.243   6.194  0.00  0.00    -0.228 N 
ATOM     12  C   UNL     1      -0.149   2.228   5.743  0.00  0.00    +0.282 C 
ATOM     13  O   UNL     1       0.573   1.490   6.384  0.00  0.00    -0.262 OA
ATOM     14  S   UNL     1      -0.450   2.218   3.982  0.00  0.00    -0.053 S 
BRANCH  11  15
ATOM     15  C   UNL     1      -0.898   3.535   7.629  0.00  0.00    +0.153 C 
BRANCH  15  16
ATOM     16  C   UNL     1       0.247   4.463   7.944  0.00  0.00    -0.022 A 
ATOM     17  C   UNL     1       1.144   4.796   6.976  0.00  0.00    +0.006 A 
ATOM     18  C   UNL     1       2.206   5.657   7.247  0.00  0.00    +0.001 A 
ATOM     19  C   UNL     1       2.384   6.180   8.491  0.00  0.00    +0.008 A 
ATOM     20  C   UNL     1       1.482   5.854   9.518  0.00  0.00    -0.018 A 
ATOM     21  C   UNL     1       0.398   4.984   9.241  0.00  0.00    -0.013 A 
ATOM     22  C   UNL     1      -0.504   4.658  10.268  0.00  0.00    +0.009 A 
ATOM     23  C   UNL     1      -0.326   5.182  11.511  0.00  0.00    +0.001 A 
ATOM     24  C   UNL     1       0.739   6.038  11.784  0.00  0.00    +0.001 A 
ATOM     25  C   UNL     1       1.632   6.376  10.814  0.00  0.00    +0.008 A 
ENDBRANCH  15  16
ENDBRANCH  11  15
ENDBRANCH   4   8
BRANCH   1  26
ATOM     26  C   UNL     1       0.847   4.008  -0.064  0.00  0.00    +0.153 C 
BRANCH  26  36
ATOM     27  C   UNL     1       2.102   0.548  -3.621  0.00  0.00    +0.001 A 
ATOM     28  C   UNL     1       1.708   1.885  -3.649  0.00  0.00    +0.001 A 
ATOM     29  C   UNL     1       1.429   2.557  -2.500  0.00  0.00    +0.009 A 
ATOM     30  C   UNL     1       1.549   1.900  -1.263  0.00  0.00    -0.013 A 
ATOM     31  C   UNL     1       1.950   0.541  -1.234  0.00  0.00    -0.018 A 
ATOM     32  C   UNL     1       2.224  -0.122  -2.443  0.00  0.00    +0.008 A 
ATOM     33  C   UNL     1       2.065  -0.117   0.002  0.00  0.00    +0.008 A 
ATOM     34  C   UNL     1       1.790   0.557   1.152  0.00  0.00    +0.001 A 
ATOM     35  C   UNL     1       1.397   1.893   1.124  0.00  0.00    +0.006 A 
ATOM     36  C   UNL     1       1.275   2.563  -0.055  0.00  0.00    -0.022 A 
ENDBRANCH  26  36
ENDBRANCH   1  26
TORSDOF 5
