REMARK  Name = ZINC42031439
REMARK  4 active torsions:
REMARK  status: ('A' for Active; 'I' for Inactive)
REMARK    1  A    between atoms: C_1  and  C_2
REMARK    2  A    between atoms: C_5  and  C_10
REMARK    3  A    between atoms: N_6  and  C_7
REMARK    4  A    between atoms: C_15  and  N_16
REMARK                            x       y       z     vdW  Elec       q    Type
REMARK                         _______ _______ _______ _____ _____    ______ ____
ROOT
ATOM      1  C   UNL     1       0.332  -3.468   1.140  0.00  0.00    +0.043 A 
ATOM      2  C   UNL     1       0.373  -3.566   2.532  0.00  0.00    +0.033 A 
ATOM      3  C   UNL     1       0.538  -4.798   3.131  0.00  0.00    +0.043 A 
ATOM      4  C   UNL     1       0.665  -5.940   2.357  0.00  0.00    +0.042 A 
ATOM      5  C   UNL     1       0.627  -5.857   0.978  0.00  0.00    +0.064 A 
ATOM      6  C   UNL     1       0.455  -4.625   0.360  0.00  0.00    +0.054 A 
ATOM      7 CL   UNL     1       0.787  -7.294   0.018  0.00  0.00    -0.082 Cl
ATOM      8 CL   UNL     1       0.589  -4.917   4.862  0.00  0.00    -0.083 Cl
ENDROOT
BRANCH   1  13
ATOM      9  C   UNL     1      -0.117   1.482   0.303  0.00  0.00    +0.088 C 
ATOM     10  C   UNL     1      -0.040  -0.013   0.128  0.00  0.00    +0.131 A 
ATOM     11  N   UNL     1      -0.149  -0.666  -0.998  0.00  0.00    -0.134 NA
ATOM     12  N   UNL     1      -0.035  -1.929  -0.789  0.00  0.00    -0.129 NA
ATOM     13  C   UNL     1       0.155  -2.151   0.493  0.00  0.00    +0.166 A 
ATOM     14  N   UNL     1       0.162  -0.931   1.114  0.00  0.00    -0.308 N 
BRANCH  14  15
ATOM     15  C   UNL     1       0.345  -0.667   2.543  0.00  0.00    +0.091 C 
ATOM     16  C   UNL     1       1.283   0.476   2.936  0.00  0.00    +0.027 C 
ATOM     17  C   UNL     1       1.716  -0.976   3.148  0.00  0.00    +0.027 C 
ENDBRANCH  14  15
ENDBRANCH   1  13
BRANCH   6  18
ATOM     18  N   UNL     1       0.410  -4.540  -1.032  0.00  0.00    -0.356 N 
ATOM     19  H   UNL     1       0.294  -3.678  -1.461  0.00  0.00    +0.142 HD
ATOM     20  H   UNL     1       0.495  -5.343  -1.570  0.00  0.00    +0.142 HD
ENDBRANCH   6  18
TORSDOF 3
