REMARK  Name = ZINC19776145
REMARK  5 active torsions:
REMARK  status: ('A' for Active; 'I' for Inactive)
REMARK    1  A    between atoms: C_1  and  C_2
REMARK    2  A    between atoms: C_3  and  C_20
REMARK    3  A    between atoms: C_5  and  N_19
REMARK    4  A    between atoms: C_6  and  C_7
REMARK    5  A    between atoms: C_7  and  C_9
REMARK                            x       y       z     vdW  Elec       q    Type
REMARK                         _______ _______ _______ _____ _____    ______ ____
ROOT
ATOM      1  C   UNL     1       3.691  -0.696  -0.048  0.00  0.00    +0.196 C 
ATOM      2  O   UNL     1       4.736  -0.078  -0.148  0.00  0.00    -0.287 OA
ENDROOT
BRANCH   1   3
ATOM      3  C   UNL     1       2.404   0.028  -0.027  0.00  0.00    +0.026 A 
ATOM      4  C   UNL     1       1.201  -0.682  -0.018  0.00  0.00    +0.015 A 
ATOM      5  C   UNL     1       0.002  -0.004  -0.001  0.00  0.00    +0.050 A 
ATOM      6  C   UNL     1      -0.017   1.385   0.008  0.00  0.00    +0.162 A 
ATOM      7  C   UNL     1       1.179   2.099   0.002  0.00  0.00    +0.163 A 
ATOM      8  C   UNL     1       2.386   1.424  -0.017  0.00  0.00    +0.061 A 
ATOM      9  O   UNL     1       1.177   3.461   0.018  0.00  0.00    -0.485 OA
ATOM     10  C   UNL     1      -0.049   4.107  -0.340  0.00  0.00    +0.270 C 
ATOM     11  C   UNL     1      -1.195   3.411   0.407  0.00  0.00    +0.270 C 
ATOM     12  O   UNL     1      -1.213   2.034   0.016  0.00  0.00    -0.485 OA
ENDBRANCH   1   3
BRANCH   1  18
ATOM     13  C   UNL     1       3.630  -2.058   2.624  0.00  0.00    +0.045 C 
ATOM     14  C   UNL     1       3.683  -2.830   1.330  0.00  0.00    -0.028 A 
ATOM     15  C   UNL     1       3.704  -4.173   1.317  0.00  0.00    -0.008 A 
ATOM     16  S   UNL     1       3.764  -4.568  -0.418  0.00  0.00    -0.078 S 
ATOM     17  C   UNL     1       3.753  -2.968  -1.080  0.00  0.00    +0.074 A 
ATOM     18  C   UNL     1       3.711  -2.156   0.052  0.00  0.00    +0.053 A 
ATOM     19  C   UNL     1       3.683  -5.120   2.490  0.00  0.00    +0.052 C 
BRANCH  17  20
ATOM     20  N   UNL     1       3.782  -2.588  -2.407  0.00  0.00    -0.352 N 
ATOM     21  H   UNL     1       3.770  -1.521  -2.674  0.00  0.00    +0.143 HD
ATOM     22  H   UNL     1       3.817  -3.352  -3.197  0.00  0.00    +0.143 HD
ENDBRANCH  17  20
ENDBRANCH   1  18
TORSDOF 3
