REMARK  Name = ZINC09915669
REMARK  13 active torsions:
REMARK  status: ('A' for Active; 'I' for Inactive)
REMARK    1  A    between atoms: C_1  and  C_2
REMARK    2  A    between atoms: C_11  and  O_13
REMARK    3  A    between atoms: O_13  and  C_14
REMARK    4  A    between atoms: C_14  and  C_29
REMARK    5  A    between atoms: C_15  and  C_27
REMARK    6  A    between atoms: C_15  and  O_28
REMARK    7  A    between atoms: C_16  and  C_25
REMARK    8  A    between atoms: C_16  and  O_26
REMARK    9  A    between atoms: C_17  and  C_23
REMARK   10  A    between atoms: C_17  and  O_24
REMARK   11  A    between atoms: C_18  and  C_20
REMARK   12  A    between atoms: C_18  and  C_21
REMARK   13  A    between atoms: C_21  and  O_22
REMARK                            x       y       z     vdW  Elec       q    Type
REMARK                         _______ _______ _______ _____ _____    ______ ____
ROOT
ATOM      1  C   UNL     1      -2.384   8.435  -0.027  0.00  0.00    +0.242 C 
ATOM      2  C   UNL     1      -2.260   9.919  -0.356  0.00  0.00    +0.159 C 
ATOM      3  C   UNL     1      -3.488  10.468  -1.065  0.00  0.00    +0.129 C 
ATOM      4  C   UNL     1      -4.005   9.587  -2.191  0.00  0.00    +0.125 C 
ATOM      5  C   UNL     1      -4.043   8.107  -1.832  0.00  0.00    +0.125 C 
ATOM      6  O   UNL     1      -2.938   7.681  -1.075  0.00  0.00    -0.326 OA
ATOM      7  C   UNL     1      -5.363   7.790  -1.115  0.00  0.00    +0.047 C 
ATOM      8  C   UNL     1      -3.190   9.790  -3.473  0.00  0.00    +0.047 C 
ATOM      9  C   UNL     1      -3.127  11.847  -1.657  0.00  0.00    +0.047 C 
ATOM     10  C   UNL     1      -0.987  10.168  -1.168  0.00  0.00    +0.051 C 
ATOM     11  C   UNL     1      -3.168   8.255   1.278  0.00  0.00    +0.092 C 
ENDROOT
BRANCH   4  12
ATOM     12  O   UNL     1      -5.360   9.998  -2.483  0.00  0.00    -0.383 OA
ATOM     13  H   UNL     1      -5.780   9.493  -3.193  0.00  0.00    +0.210 HD
ENDBRANCH   4  12
BRANCH   3  14
ATOM     14  O   UNL     1      -4.538  10.680  -0.107  0.00  0.00    -0.383 OA
ATOM     15  H   UNL     1      -4.310  11.305   0.595  0.00  0.00    +0.210 HD
ENDBRANCH   3  14
BRANCH   2  16
ATOM     16  O   UNL     1      -2.118  10.631   0.893  0.00  0.00    -0.379 OA
ATOM     17  H   UNL     1      -1.343  10.370   1.409  0.00  0.00    +0.211 HD
ENDBRANCH   2  16
BRANCH   1  18
ATOM     18  O   UNL     1      -1.046   7.938   0.216  0.00  0.00    -0.458 OA
BRANCH  18  29
ATOM     19  C   UNL     1      -1.712   1.546   1.208  0.00  0.00    +0.045 C 
ATOM     20  C   UNL     1      -0.532   2.479   1.294  0.00  0.00    -0.033 A 
ATOM     21  C   UNL     1       0.699   2.019   1.639  0.00  0.00    +0.096 A 
ATOM     22  C   UNL     1       1.788   2.912   1.707  0.00  0.00    +0.337 A 
ATOM     23  O   UNL     1       2.887   2.485   2.013  0.00  0.00    -0.245 OA
ATOM     24  O   UNL     1       1.645   4.220   1.444  0.00  0.00    -0.422 OA
ATOM     25  C   UNL     1       0.448   4.743   1.100  0.00  0.00    +0.143 A 
ATOM     26  C   UNL     1      -0.682   3.909   1.013  0.00  0.00    +0.021 A 
ATOM     27  C   UNL     1      -1.924   4.447   0.657  0.00  0.00    +0.015 A 
ATOM     28  C   UNL     1      -2.035   5.782   0.395  0.00  0.00    +0.046 A 
ATOM     29  C   UNL     1      -0.920   6.612   0.480  0.00  0.00    +0.128 A 
ATOM     30  C   UNL     1       0.318   6.097   0.831  0.00  0.00    +0.092 A 
ENDBRANCH  18  29
ENDBRANCH   1  18
BRANCH   5  31
ATOM     31  C   UNL     1      -4.049   7.309  -3.157  0.00  0.00    +0.193 C 
BRANCH  31  32
ATOM     32  O   UNL     1      -4.201   5.916  -2.873  0.00  0.00    -0.392 OA
ATOM     33  H   UNL     1      -4.213   5.354  -3.660  0.00  0.00    +0.210 HD
ENDBRANCH  31  32
ENDBRANCH   5  31
TORSDOF 7
