REMARK  Name = ZINC64869414
REMARK  11 active torsions:
REMARK  status: ('A' for Active; 'I' for Inactive)
REMARK    1  A    between atoms: C_1  and  C_2
REMARK    2  A    between atoms: C_7  and  C_8
REMARK    3  A    between atoms: N_9  and  C_20
REMARK    4  A    between atoms: C_13  and  C_15
REMARK    5  A    between atoms: C_15  and  C_16
REMARK    6  A    between atoms: C_16  and  O_18
REMARK    7  A    between atoms: O_18  and  C_19
REMARK    8  A    between atoms: C_20  and  C_21
REMARK    9  A    between atoms: N_23  and  C_24
REMARK   10  A    between atoms: C_29  and  O_30
REMARK   11  A    between atoms: O_30  and  C_31
REMARK                            x       y       z     vdW  Elec       q    Type
REMARK                         _______ _______ _______ _____ _____    ______ ____
ROOT
ATOM      1  C   UNL     1       1.051   1.486   0.164  0.00  0.00    +0.044 C 
ATOM      2  C   UNL     1       0.783   0.003   0.122  0.00  0.00    -0.046 A 
ATOM      3  C   UNL     1       0.581  -0.628  -1.094  0.00  0.00    +0.028 A 
ATOM      4  C   UNL     1       0.335  -1.989  -1.132  0.00  0.00    +0.053 A 
ATOM      5  C   UNL     1       0.291  -2.721   0.054  0.00  0.00    +0.058 A 
ATOM      6  C   UNL     1       0.494  -2.085   1.266  0.00  0.00    +0.029 A 
ATOM      7  C   UNL     1       0.745  -0.723   1.296  0.00  0.00    -0.046 A 
ATOM      8  C   UNL     1       0.972  -0.030   2.615  0.00  0.00    +0.044 C 
ATOM      9  N   UNL     1       0.058  -4.097   0.219  0.00  0.00    -0.257 N 
ATOM     10  C   UNL     1      -0.177  -5.021  -0.735  0.00  0.00    +0.246 C 
ATOM     11  O   UNL     1      -0.350  -6.158  -0.335  0.00  0.00    -0.270 OA
ATOM     12  C   UNL     1      -0.249  -4.850  -2.137  0.00  0.00    +0.087 C 
ATOM     13  C   UNL     1      -0.103  -3.728  -2.869  0.00  0.00    +0.024 C 
ATOM     14  N   UNL     1       0.156  -2.451  -2.446  0.00  0.00    -0.316 N 
ATOM     15  H   UNL     1       0.225  -1.780  -3.143  0.00  0.00    +0.152 HD
ENDROOT
BRANCH  13  16
ATOM     16  C   UNL     1      -0.243  -3.903  -4.359  0.00  0.00    +0.171 C 
BRANCH  16  17
ATOM     17  C   UNL     1      -1.659  -3.593  -4.771  0.00  0.00    +0.312 C 
ATOM     18  O   UNL     1      -2.471  -3.264  -3.939  0.00  0.00    -0.250 OA
BRANCH  17  19
ATOM     19  O   UNL     1      -2.018  -3.682  -6.061  0.00  0.00    -0.468 OA
ATOM     20  C   UNL     1      -3.376  -3.373  -6.380  0.00  0.00    +0.280 C 
ENDBRANCH  17  19
ENDBRANCH  16  17
ENDBRANCH  13  16
BRANCH   9  21
ATOM     21  C   UNL     1       0.072  -4.589   1.599  0.00  0.00    +0.210 C 
BRANCH  21  22
ATOM     22  C   UNL     1       1.495  -4.835   2.030  0.00  0.00    +0.235 C 
ATOM     23  O   UNL     1       2.408  -4.619   1.261  0.00  0.00    -0.274 OA
ATOM     24  N   UNL     1       1.753  -5.293   3.271  0.00  0.00    -0.281 N 
ATOM     25  H   UNL     1       1.022  -5.529   3.863  0.00  0.00    +0.155 HD
BRANCH  24  26
ATOM     26  C   UNL     1       3.078  -5.427   3.707  0.00  0.00    +0.077 A 
ATOM     27  C   UNL     1       4.048  -4.539   3.266  0.00  0.00    +0.047 A 
ATOM     28  C   UNL     1       5.356  -4.674   3.697  0.00  0.00    +0.043 A 
ATOM     29  C   UNL     1       5.698  -5.693   4.568  0.00  0.00    +0.024 A 
ATOM     30  C   UNL     1       4.736  -6.582   5.010  0.00  0.00    +0.049 A 
ATOM     31  C   UNL     1       3.423  -6.450   4.587  0.00  0.00    +0.141 A 
ATOM     32 CL   UNL     1       6.569  -3.562   3.145  0.00  0.00    -0.083 Cl
BRANCH  31  33
ATOM     33  O   UNL     1       2.475  -7.320   5.027  0.00  0.00    -0.493 OA
ATOM     34  C   UNL     1       2.901  -8.343   5.929  0.00  0.00    +0.277 C 
ENDBRANCH  31  33
ENDBRANCH  24  26
ENDBRANCH  21  22
ENDBRANCH   9  21
TORSDOF 7
