REMARK  Name = ZINC07177520
REMARK  8 active torsions:
REMARK  status: ('A' for Active; 'I' for Inactive)
REMARK    1  A    between atoms: C_1  and  C_2
REMARK    2  A    between atoms: C_4  and  N_27
REMARK    3  A    between atoms: C_6  and  S_8
REMARK    4  A    between atoms: S_8  and  C_9
REMARK    5  A    between atoms: C_9  and  C_11
REMARK    6  A    between atoms: C_9  and  C_12
REMARK    7  A    between atoms: C_24  and  C_25
REMARK    8  A    between atoms: C_24  and  C_26
REMARK                            x       y       z     vdW  Elec       q    Type
REMARK                         _______ _______ _______ _____ _____    ______ ____
ROOT
ATOM      1  C   UNL     1      -4.159   4.412  -0.697  0.00  0.00    +0.234 C 
ATOM      2  O   UNL     1      -4.514   3.747  -1.647  0.00  0.00    -0.274 OA
ATOM      3  N   UNL     1      -3.166   3.971   0.100  0.00  0.00    -0.255 N 
ATOM      4  C   UNL     1      -2.687   2.655   0.001  0.00  0.00    +0.059 A 
ATOM      5  C   UNL     1      -3.510   1.625  -0.418  0.00  0.00    +0.025 A 
ATOM      6  C   UNL     1      -3.012   0.337  -0.495  0.00  0.00    +0.002 A 
ATOM      7  C   UNL     1      -1.694   0.080  -0.164  0.00  0.00    +0.002 A 
ATOM      8  C   UNL     1      -0.864   1.107   0.248  0.00  0.00    +0.025 A 
ATOM      9  C   UNL     1      -1.355   2.400   0.333  0.00  0.00    +0.055 A 
ATOM     10  N   UNL     1      -0.531   3.453   0.742  0.00  0.00    -0.282 N 
ATOM     11  C   UNL     1      -1.057   4.643   1.091  0.00  0.00    +0.241 C 
ATOM     12  O   UNL     1      -0.321   5.556   1.401  0.00  0.00    -0.273 OA
ATOM     13  C   UNL     1      -2.549   4.853   1.103  0.00  0.00    +0.113 C 
ATOM     14  C   UNL     1      -3.103   4.518   2.489  0.00  0.00    +0.042 C 
ATOM     15  C   UNL     1      -2.863   6.312   0.763  0.00  0.00    +0.042 C 
ATOM     16  H   UNL     1       0.430   3.326   0.775  0.00  0.00    +0.155 HD
ENDROOT
BRANCH   1  17
ATOM     17  C   UNL     1      -4.828   5.731  -0.408  0.00  0.00    +0.137 C 
ATOM     18  C   UNL     1      -5.591   5.637   0.915  0.00  0.00    +0.029 C 
BRANCH  17  19
ATOM     19  S   UNL     1      -5.983   6.127  -1.744  0.00  0.00    -0.073 S 
BRANCH  19  25
ATOM     20  C   UNL     1      -8.775  10.351  -2.490  0.00  0.00    +0.066 C 
ATOM     21  C   UNL     1      -7.776   9.611  -1.638  0.00  0.00    +0.044 A 
ATOM     22  C   UNL     1      -7.274  10.190  -0.488  0.00  0.00    +0.066 A 
ATOM     23  C   UNL     1      -6.351   9.470   0.273  0.00  0.00    +0.121 A 
ATOM     24  N   UNL     1      -5.991   8.255  -0.130  0.00  0.00    -0.207 NA
ATOM     25  C   UNL     1      -6.492   7.737  -1.242  0.00  0.00    +0.191 A 
ATOM     26  N   UNL     1      -7.370   8.398  -1.983  0.00  0.00    -0.227 NA
BRANCH  23  27
ATOM     27  N   UNL     1      -5.822  10.011   1.433  0.00  0.00    -0.343 N 
ATOM     28  H   UNL     1      -6.093  10.896   1.723  0.00  0.00    +0.144 HD
ATOM     29  H   UNL     1      -5.181   9.504   1.956  0.00  0.00    +0.144 HD
ENDBRANCH  23  27
ENDBRANCH  19  25
ENDBRANCH  17  19
ENDBRANCH   1  17
TORSDOF 4
