REMARK  Name = ZINC61328493
REMARK  5 active torsions:
REMARK  status: ('A' for Active; 'I' for Inactive)
REMARK    1  A    between atoms: C_1  and  C_2
REMARK    2  A    between atoms: C_3  and  N_12
REMARK    3  A    between atoms: C_7  and  S_8
REMARK    4  A    between atoms: S_8  and  N_11
REMARK    5  A    between atoms: N_12  and  C_13
REMARK                            x       y       z     vdW  Elec       q    Type
REMARK                         _______ _______ _______ _____ _____    ______ ____
ROOT
ATOM      1  C   UNL     1      -0.018   1.503   0.010  0.00  0.00    +0.048 C 
ATOM      2  C   UNL     1       0.002  -0.004   0.002  0.00  0.00    -0.003 A 
ATOM      3  C   UNL     1       0.006  -0.693  -1.204  0.00  0.00    +0.032 A 
ATOM      4  C   UNL     1       0.025  -2.082  -1.208  0.00  0.00    +0.023 A 
ATOM      5  C   UNL     1       0.041  -2.773  -0.012  0.00  0.00    +0.004 A 
ATOM      6  C   UNL     1       0.037  -2.085   1.187  0.00  0.00    +0.029 A 
ATOM      7  C   UNL     1       0.023  -0.702   1.194  0.00  0.00    +0.110 A 
ENDROOT
BRANCH   7   8
ATOM      8  S   UNL     1       0.025   0.171   2.724  0.00  0.00    +0.056 S 
ATOM      9  O   UNL     1      -1.015   1.136   2.643  0.00  0.00    -0.153 OA
ATOM     10  O   UNL     1       0.075  -0.810   3.751  0.00  0.00    -0.153 OA
BRANCH   8  11
ATOM     11  N   UNL     1       1.448   1.014   2.805  0.00  0.00    -0.204 NA
ATOM     12  H   UNL     1       2.087   0.958   2.078  0.00  0.00    +0.144 HD
ATOM     13  H   UNL     1       1.642   1.565   3.580  0.00  0.00    +0.144 HD
ENDBRANCH   8  11
ENDBRANCH   7   8
BRANCH   3  14
ATOM     14  N   UNL     1      -0.010   0.010  -2.412  0.00  0.00    -0.337 N 
ATOM     15  H   UNL     1      -0.024   0.980  -2.408  0.00  0.00    +0.147 HD
BRANCH  14  16
ATOM     16  C   UNL     1      -0.006  -0.718  -3.683  0.00  0.00    +0.101 C 
ATOM     17  C   UNL     1      -0.627   0.154  -4.775  0.00  0.00    +0.027 C 
ATOM     18  C   UNL     1      -0.463  -0.520  -6.140  0.00  0.00    +0.007 C 
ATOM     19  C   UNL     1       1.020  -0.473  -6.538  0.00  0.00    +0.043 C 
ATOM     20  C   UNL     1       1.834  -0.923  -5.369  0.00  0.00    -0.005 A 
ATOM     21  C   UNL     1       1.429  -1.055  -4.075  0.00  0.00    -0.017 A 
ATOM     22  C   UNL     1       2.385  -1.501  -3.163  0.00  0.00    +0.013 A 
ATOM     23  C   UNL     1       3.641  -1.780  -3.579  0.00  0.00    +0.046 A 
ATOM     24  S   UNL     1       3.538  -1.410  -5.330  0.00  0.00    -0.101 S 
ENDBRANCH  14  16
ENDBRANCH   3  14
TORSDOF 4
