REMARK  Name = ZINC32871563
REMARK  7 active torsions:
REMARK  status: ('A' for Active; 'I' for Inactive)
REMARK    1  A    between atoms: C_1  and  C_2
REMARK    2  A    between atoms: C_12  and  S_15
REMARK    3  A    between atoms: S_15  and  C_16
REMARK    4  A    between atoms: C_16  and  C_18
REMARK    5  A    between atoms: C_16  and  C_19
REMARK    6  A    between atoms: C_31  and  C_32
REMARK    7  A    between atoms: C_31  and  C_33
REMARK                            x       y       z     vdW  Elec       q    Type
REMARK                         _______ _______ _______ _____ _____    ______ ____
ROOT
ATOM      1  C   UNL     1      -0.483   1.086   1.650  0.00  0.00    +0.137 C 
ATOM      2  C   UNL     1       0.032   0.961   0.215  0.00  0.00    +0.029 C 
ENDROOT
BRANCH   1   3
ATOM      3  C   UNL     1      -0.692   2.541   1.984  0.00  0.00    +0.234 C 
ATOM      4  O   UNL     1      -1.805   2.951   2.236  0.00  0.00    -0.274 OA
ATOM      5  N   UNL     1       0.358   3.386   2.001  0.00  0.00    -0.255 N 
ATOM      6  C   UNL     1       0.170   4.773   2.103  0.00  0.00    +0.059 A 
ATOM      7  C   UNL     1      -0.972   5.379   1.617  0.00  0.00    +0.025 A 
ATOM      8  C   UNL     1      -1.127   6.749   1.735  0.00  0.00    +0.002 A 
ATOM      9  C   UNL     1      -0.144   7.510   2.342  0.00  0.00    +0.002 A 
ATOM     10  C   UNL     1       0.999   6.910   2.837  0.00  0.00    +0.025 A 
ATOM     11  C   UNL     1       1.161   5.538   2.725  0.00  0.00    +0.055 A 
ATOM     12  N   UNL     1       2.308   4.910   3.224  0.00  0.00    -0.282 N 
ATOM     13  C   UNL     1       2.603   3.642   2.880  0.00  0.00    +0.241 C 
ATOM     14  O   UNL     1       3.578   3.103   3.360  0.00  0.00    -0.273 OA
ATOM     15  C   UNL     1       1.737   2.885   1.906  0.00  0.00    +0.113 C 
ATOM     16  C   UNL     1       1.764   1.394   2.250  0.00  0.00    +0.042 C 
ATOM     17  C   UNL     1       2.262   3.094   0.484  0.00  0.00    +0.042 C 
ATOM     18  H   UNL     1       2.979   5.452   3.906  0.00  0.00    +0.155 HD
ENDBRANCH   1   3
BRANCH   1  19
ATOM     19  S   UNL     1      -2.053   0.200   1.808  0.00  0.00    -0.073 S 
BRANCH  19  31
ATOM     20  C   UNL     1      -5.569  -4.283   1.886  0.00  0.00    +0.090 C 
ATOM     21  C   UNL     1      -4.164  -3.768   1.706  0.00  0.00    +0.149 A 
ATOM     22  N   UNL     1      -3.102  -4.518   1.425  0.00  0.00    -0.211 NA
ATOM     23  C   UNL     1      -2.032  -3.756   1.337  0.00  0.00    +0.168 A 
ATOM     24  C   UNL     1      -0.611  -4.004   1.071  0.00  0.00    +0.045 A 
ATOM     25  C   UNL     1      -0.116  -5.285   0.838  0.00  0.00    +0.014 A 
ATOM     26  C   UNL     1       1.228  -5.461   0.594  0.00  0.00    +0.001 A 
ATOM     27  C   UNL     1       2.091  -4.373   0.578  0.00  0.00    +0.002 A 
ATOM     28  C   UNL     1       1.624  -3.099   0.805  0.00  0.00    +0.028 A 
ATOM     29  C   UNL     1       0.264  -2.894   1.056  0.00  0.00    +0.077 A 
ATOM     30  N   UNL     1      -0.232  -1.655   1.285  0.00  0.00    -0.222 NA
ATOM     31  C   UNL     1      -1.503  -1.450   1.521  0.00  0.00    +0.193 A 
ATOM     32  N   UNL     1      -2.422  -2.463   1.560  0.00  0.00    -0.188 N 
ATOM     33  N   UNL     1      -3.803  -2.512   1.791  0.00  0.00    -0.148 NA
ENDBRANCH  19  31
ENDBRANCH   1  19
TORSDOF 3
