REMARK  Name = ZINC31807133
REMARK  7 active torsions:
REMARK  status: ('A' for Active; 'I' for Inactive)
REMARK    1  A    between atoms: C_1  and  O_2
REMARK    2  A    between atoms: O_2  and  C_3
REMARK    3  A    between atoms: C_9  and  C_13
REMARK    4  A    between atoms: C_13  and  C_14
REMARK    5  A    between atoms: C_14  and  N_15
REMARK    6  A    between atoms: C_16  and  C_31
REMARK    7  A    between atoms: C_19  and  C_26
REMARK                            x       y       z     vdW  Elec       q    Type
REMARK                         _______ _______ _______ _____ _____    ______ ____
ROOT
ATOM      1  N   UNL     1      -0.018   1.464   0.010  0.00  0.00    -0.285 N 
ATOM      2  C   UNL     1       0.002  -0.004   0.002  0.00  0.00    +0.141 C 
ATOM      3  C   UNL     1       1.453  -0.401  -0.014  0.00  0.00    +0.038 A 
ATOM      4  C   UNL     1       2.393  -1.439  -0.029  0.00  0.00    +0.133 A 
ATOM      5  N   UNL     1       3.591  -0.885  -0.037  0.00  0.00    -0.170 NA
ATOM      6  N   UNL     1       3.500   0.397  -0.029  0.00  0.00    -0.272 N 
ATOM      7  H   UNL     1       4.410   1.013  -0.035  0.00  0.00    +0.189 HD
ATOM      8  C   UNL     1       2.185   0.770  -0.015  0.00  0.00    +0.126 A 
ATOM      9  C   UNL     1       1.254   1.903   0.000  0.00  0.00    +0.265 C 
ATOM     10  O   UNL     1       1.584   3.074   0.003  0.00  0.00    -0.268 OA
ENDROOT
BRANCH   2  11
ATOM     11  C   UNL     1      -0.693  -0.525  -1.229  0.00  0.00    -0.022 A 
ATOM     12  C   UNL     1      -0.517   0.110  -2.444  0.00  0.00    +0.006 A 
ATOM     13  C   UNL     1      -1.152  -0.370  -3.574  0.00  0.00    +0.000 A 
ATOM     14  C   UNL     1      -1.970  -1.482  -3.487  0.00  0.00    +0.000 A 
ATOM     15  C   UNL     1      -2.150  -2.114  -2.272  0.00  0.00    +0.000 A 
ATOM     16  C   UNL     1      -1.512  -1.636  -1.143  0.00  0.00    +0.006 A 
ENDBRANCH   2  11
BRANCH   4  17
ATOM     17  C   UNL     1       2.098  -2.889  -0.034  0.00  0.00    +0.155 A 
ATOM     18  C   UNL     1       2.812  -3.846  -0.681  0.00  0.00    +0.051 A 
ATOM     19  C   UNL     1       2.180  -5.077  -0.411  0.00  0.00    +0.042 A 
ATOM     20  C   UNL     1       1.117  -4.811   0.372  0.00  0.00    +0.196 A 
ATOM     21  O   UNL     1       1.070  -3.488   0.598  0.00  0.00    -0.461 OA
ENDBRANCH   4  17
BRANCH   1  22
ATOM     22  C   UNL     1      -1.217   2.307   0.021  0.00  0.00    +0.114 C 
BRANCH  22  23
ATOM     23  C   UNL     1      -1.627   2.592   1.467  0.00  0.00    +0.056 C 
BRANCH  23  30
ATOM     24  C   UNL     1      -6.222   1.649   1.187  0.00  0.00    +0.121 A 
ATOM     25  C   UNL     1      -7.009   2.796   1.240  0.00  0.00    +0.047 A 
ATOM     26  C   UNL     1      -6.429   4.039   1.361  0.00  0.00    +0.030 A 
ATOM     27  C   UNL     1      -5.045   4.157   1.432  0.00  0.00    +0.047 A 
ATOM     28  C   UNL     1      -4.248   2.999   1.379  0.00  0.00    +0.006 A 
ATOM     29  C   UNL     1      -4.847   1.744   1.256  0.00  0.00    +0.056 A 
ATOM     30  C   UNL     1      -2.860   3.458   1.478  0.00  0.00    -0.021 A 
ATOM     31  C   UNL     1      -2.895   4.796   1.585  0.00  0.00    +0.087 A 
ATOM     32  N   UNL     1      -4.191   5.232   1.554  0.00  0.00    -0.360 N 
ATOM     33  H   UNL     1      -4.597   6.253   1.610  0.00  0.00    +0.165 HD
BRANCH  24  35
ATOM     34  C   UNL     1      -8.239   0.401   1.000  0.00  0.00    +0.277 C 
ATOM     35  O   UNL     1      -6.811   0.429   1.066  0.00  0.00    -0.495 OA
ENDBRANCH  24  35
ENDBRANCH  23  30
ENDBRANCH  22  23
ENDBRANCH   1  22
TORSDOF 6
