REMARK  Name = ZINC25108222
REMARK  12 active torsions:
REMARK  status: ('A' for Active; 'I' for Inactive)
REMARK    1  A    between atoms: C_1  and  C_2
REMARK    2  A    between atoms: C_2  and  C_37
REMARK    3  A    between atoms: C_8  and  O_22
REMARK    4  A    between atoms: C_15  and  C_16
REMARK    5  A    between atoms: O_22  and  C_23
REMARK    6  A    between atoms: C_23  and  C_24
REMARK    7  A    between atoms: N_26  and  CA_27
REMARK    8  A    between atoms: CA_27  and  CB_29
REMARK    9  A    between atoms: CA_27  and  C_33
REMARK   10  A    between atoms: CB_29  and  CG_30
REMARK   11  A    between atoms: CG_30  and  SD_31
REMARK   12  A    between atoms: SD_31  and  CE_32
REMARK                            x       y       z     vdW  Elec       q    Type
REMARK                         _______ _______ _______ _____ _____    ______ ____
ROOT
ATOM      1  C   UNK A   0       4.689   9.804  -4.502  0.00  0.00    +0.055 C 
ATOM      2  C   UNK A   0       4.512   8.798  -3.363  0.00  0.00    +0.105 C 
ATOM      3  C   UNK A   0       5.800   7.982  -3.189  0.00  0.00    +0.052 C 
ATOM      4  C   UNK A   0       5.627   7.067  -1.975  0.00  0.00    +0.046 C 
ATOM      5  C   UNK A   0       4.299   6.356  -2.054  0.00  0.00    +0.038 A 
ATOM      6  C   UNK A   0       3.292   6.800  -2.893  0.00  0.00    +0.131 A 
ATOM      7  C   UNK A   0       2.072   6.124  -2.946  0.00  0.00    +0.092 A 
ATOM      8  C   UNK A   0       1.859   5.000  -2.174  0.00  0.00    +0.136 A 
ATOM      9  C   UNK A   0       2.881   4.537  -1.333  0.00  0.00    +0.067 A 
ATOM     10  C   UNK A   0       4.106   5.221  -1.276  0.00  0.00    +0.150 A 
ATOM     11  O   UNK A   0       5.093   4.771  -0.470  0.00  0.00    -0.422 OA
ATOM     12  C   UNK A   0       4.940   3.680   0.296  0.00  0.00    +0.338 A 
ATOM     13  O   UNK A   0       5.864   3.320   1.005  0.00  0.00    -0.245 OA
ATOM     14  C   UNK A   0       3.745   2.942   0.305  0.00  0.00    +0.101 A 
ATOM     15  C   UNK A   0       2.691   3.344  -0.496  0.00  0.00    +0.003 A 
ATOM     16  O   UNK A   0       3.449   7.898  -3.677  0.00  0.00    -0.486 OA
ATOM     17  C   UNK A   0       4.192   9.540  -2.064  0.00  0.00    +0.055 C 
ENDROOT
BRANCH  15  18
ATOM     18  C   UNK A   0       1.417   2.592  -0.514  0.00  0.00    -0.017 A 
ATOM     19  C   UNK A   0       0.676   2.439   0.658  0.00  0.00    +0.008 A 
ATOM     20  C   UNK A   0      -0.511   1.737   0.634  0.00  0.00    +0.001 A 
ATOM     21  C   UNK A   0      -0.966   1.180  -0.548  0.00  0.00    +0.000 A 
ATOM     22  C   UNK A   0      -0.238   1.332  -1.715  0.00  0.00    +0.001 A 
ATOM     23  C   UNK A   0       0.950   2.032  -1.705  0.00  0.00    +0.008 A 
ENDBRANCH  15  18
BRANCH   8  24
ATOM     24  O   UNK A   0       0.670   4.348  -2.229  0.00  0.00    -0.482 OA
BRANCH  24  25
ATOM     25  C   UNK A   0      -0.277   4.805  -3.197  0.00  0.00    +0.324 C 
BRANCH  25  26
ATOM     26  C   UNK A   0      -1.581   4.075  -3.008  0.00  0.00    +0.251 C 
ATOM     27  O   UNK A   0      -1.728   3.332  -2.061  0.00  0.00    -0.272 OA
ATOM     28  N   MET A   1      -2.584   4.247  -3.891  0.00  0.00    -0.299 N 
ATOM     29  H   MET A   1      -2.451   4.921  -4.750  0.00  0.00    +0.150 HD
BRANCH  28  30
ATOM     30  CA  MET A   1      -3.853   3.537  -3.707  0.00  0.00    +0.187 C 
BRANCH  30  31
ATOM     31  C   MET A   1      -4.736   4.321  -2.771  0.00  0.00    +0.376 C 
ATOM     32  O   MET A   1      -4.346   5.365  -2.305  0.00  0.00    -0.244 OA
ATOM     33  OXT MET A   1      -5.956   3.858  -2.454  0.00  0.00    -0.244 OA
ENDBRANCH  30  31
BRANCH  30  34
ATOM     34  CB  MET A   1      -4.552   3.384  -5.059  0.00  0.00    +0.044 C 
BRANCH  34  35
ATOM     35  CG  MET A   1      -3.712   2.485  -5.969  0.00  0.00    +0.071 C 
BRANCH  35  36
ATOM     36  SD  MET A   1      -4.542   2.303  -7.572  0.00  0.00    -0.164 S 
ATOM     37  CE  MET A   1      -3.433   1.224  -8.519  0.00  0.00    +0.084 C 
ENDBRANCH  35  36
ENDBRANCH  34  35
ENDBRANCH  30  34
ENDBRANCH  28  30
ENDBRANCH  25  26
ENDBRANCH  24  25
ENDBRANCH   8  24
TORSDOF 9
