REMARK  Name = ZINC00893793
REMARK  6 active torsions:
REMARK  status: ('A' for Active; 'I' for Inactive)
REMARK    1  A    between atoms: C_1  and  C_2
REMARK    2  A    between atoms: C_6  and  C_15
REMARK    3  A    between atoms: C_13  and  C_14
REMARK    4  A    between atoms: C_15  and  C_17
REMARK    5  A    between atoms: C_15  and  N_61
REMARK    6  A    between atoms: N_21  and  C_22
REMARK                            x       y       z     vdW  Elec       q    Type
REMARK                         _______ _______ _______ _____ _____    ______ ____
ROOT
ATOM      1  C   UNL     1      -4.986   3.843   0.044  0.00  0.00    +0.039 C 
ENDROOT
BRANCH   1   7
ATOM      2  C   UNL     1       2.433   4.478   0.460  0.00  0.00    +0.044 C 
ATOM      3  C   UNL     1       1.188   3.631   0.396  0.00  0.00    -0.047 A 
ATOM      4  C   UNL     1      -0.037   4.232   0.330  0.00  0.00    +0.013 A 
ATOM      5  C   UNL     1      -1.192   3.447   0.271  0.00  0.00    -0.001 A 
ATOM      6  C   UNL     1      -2.521   4.058   0.199  0.00  0.00    +0.017 A 
ATOM      7  C   UNL     1      -3.604   3.246   0.126  0.00  0.00    +0.011 A 
ATOM      8  C   UNL     1      -3.444   1.844   0.138  0.00  0.00    +0.251 A 
ATOM      9  O   UNL     1      -4.432   1.133   0.082  0.00  0.00    -0.268 OA
ATOM     10  N   UNL     1      -2.229   1.273   0.208  0.00  0.00    -0.322 N 
ATOM     11  H   UNL     1      -2.152   0.276   0.214  0.00  0.00    +0.169 HD
ATOM     12  C   UNL     1      -1.087   2.043   0.273  0.00  0.00    +0.049 A 
ATOM     13  C   UNL     1       0.171   1.453   0.347  0.00  0.00    +0.030 A 
ATOM     14  C   UNL     1       1.296   2.247   0.405  0.00  0.00    -0.046 A 
ATOM     15  C   UNL     1       2.658   1.606   0.478  0.00  0.00    +0.044 C 
ENDBRANCH   1   7
BRANCH   1  21
ATOM     16  C   UNL     1      -7.204   3.785   1.016  0.00  0.00    -0.049 C 
ATOM     17  C   UNL     1      -8.059   3.125   2.101  0.00  0.00    +0.141 C 
ATOM     18  O   UNL     1      -7.472   3.375   3.381  0.00  0.00    -0.383 OA
ATOM     19  C   UNL     1      -6.131   2.891   3.504  0.00  0.00    +0.141 C 
ATOM     20  C   UNL     1      -5.257   3.549   2.433  0.00  0.00    -0.049 C 
ATOM     21  N   UNL     1      -5.830   3.249   1.104  0.00  0.00    +0.392 N 
ATOM     22  H   UNL     1      -5.859   2.231   0.975  0.00  0.00    -0.080 HD
ENDBRANCH   1  21
BRANCH   1  23
ATOM     23  C   UNL     1      -5.591   3.527  -1.299  0.00  0.00    +0.143 A 
ATOM     24  N   UNL     1      -6.067   2.371  -1.690  0.00  0.00    -0.115 NA
ATOM     25  N   UNL     1      -6.496   2.505  -2.898  0.00  0.00    -0.023 NA
ATOM     26  N   UNL     1      -6.299   3.715  -3.290  0.00  0.00    -0.044 NA
ATOM     27  N   UNL     1      -5.743   4.377  -2.332  0.00  0.00    -0.227 N 
BRANCH  27  28
ATOM     28  C   UNL     1      -5.351   5.788  -2.362  0.00  0.00    +0.111 C 
ATOM     29  C   UNL     1      -6.585   6.655  -2.619  0.00  0.00    +0.027 C 
ATOM     30  C   UNL     1      -6.176   8.129  -2.651  0.00  0.00    +0.002 C 
ATOM     31  C   UNL     1      -5.155   8.351  -3.769  0.00  0.00    +0.000 C 
ATOM     32  C   UNL     1      -3.921   7.484  -3.513  0.00  0.00    +0.002 C 
ATOM     33  C   UNL     1      -4.331   6.010  -3.481  0.00  0.00    +0.027 C 
ENDBRANCH  27  28
ENDBRANCH   1  23
TORSDOF 4
