REMARK  Name = ZINC12659591
REMARK  9 active torsions:
REMARK  status: ('A' for Active; 'I' for Inactive)
REMARK    1  A    between atoms: C_1  and  C_2
REMARK    2  A    between atoms: C_4  and  C_8
REMARK    3  A    between atoms: C_5  and  C_7
REMARK    4  A    between atoms: C_8  and  C_11
REMARK    5  A    between atoms: N_9  and  O_10
REMARK    6  A    between atoms: C_11  and  C_12
REMARK    7  A    between atoms: C_19  and  O_20
REMARK    8  A    between atoms: O_20  and  C_21
REMARK    9  A    between atoms: C_27  and  N_51
REMARK                            x       y       z     vdW  Elec       q    Type
REMARK                         _______ _______ _______ _____ _____    ______ ____
ROOT
ATOM      1  C   UNL     1       1.296  -2.197  -0.010  0.00  0.00    -0.028 C 
ATOM      2  C   UNL     1       1.256  -0.691  -0.051  0.00  0.00    -0.012 A 
ATOM      3  C   UNL     1       0.066   0.005  -0.051  0.00  0.00    -0.040 A 
ATOM      4  C   UNL     1       0.074   1.391  -0.097  0.00  0.00    +0.053 A 
ATOM      5  C   UNL     1       1.271   2.086  -0.138  0.00  0.00    +0.170 A 
ATOM      6  C   UNL     1       2.474   1.388  -0.134  0.00  0.00    +0.208 A 
ATOM      7  C   UNL     1       2.462   0.001  -0.091  0.00  0.00    +0.167 A 
ATOM      8  O   UNL     1       3.502   2.287  -0.176  0.00  0.00    -0.449 OA
ATOM      9  C   UNL     1       2.924   3.549   0.205  0.00  0.00    +0.467 C 
ATOM     10  O   UNL     1       1.543   3.423  -0.183  0.00  0.00    -0.452 OA
ATOM     11  C   UNL     1      -1.264  -0.702   0.004  0.00  0.00    +0.017 C 
ATOM     12  C   UNL     1      -1.088  -2.175  -0.365  0.00  0.00    -0.074 C 
ATOM     13  C   UNL     1       0.003  -4.200   0.399  0.00  0.00    -0.095 C 
ATOM     14  N   UNL     1       0.005  -2.721   0.465  0.00  0.00    +0.383 N 
ATOM     15  H   UNL     1      -0.138  -2.430   1.440  0.00  0.00    -0.081 HD
ENDROOT
BRANCH   7  16
ATOM     16  O   UNL     1       3.636  -0.686  -0.088  0.00  0.00    -0.491 OA
ATOM     17  C   UNL     1       4.177  -1.053  -1.359  0.00  0.00    +0.277 C 
ENDBRANCH   7  16
BRANCH   1  18
ATOM     18  C   UNL     1       2.398  -2.647   0.951  0.00  0.00    +0.049 C 
BRANCH  18  19
ATOM     19  C   UNL     1       2.194  -1.991   2.292  0.00  0.00    +0.089 C 
ATOM     20  N   UNL     1       1.139  -1.272   2.507  0.00  0.00    -0.091 NA
BRANCH  19  24
ATOM     21  C   UNL     1       5.830  -1.092   5.759  0.00  0.00    +0.086 C 
ATOM     22  C   UNL     1       4.798  -1.752   4.880  0.00  0.00    +0.103 A 
ATOM     23  C   UNL     1       4.050  -1.129   3.956  0.00  0.00    +0.054 A 
ATOM     24  C   UNL     1       3.197  -2.166   3.359  0.00  0.00    +0.040 A 
ATOM     25  C   UNL     1       3.522  -3.324   4.001  0.00  0.00    +0.111 A 
ATOM     26  O   UNL     1       4.480  -3.055   4.898  0.00  0.00    -0.464 OA
ATOM     27  C   UNL     1       2.910  -4.676   3.743  0.00  0.00    +0.087 C 
ENDBRANCH  19  24
BRANCH  20  28
ATOM     28  O   UNL     1       0.999  -0.570   3.729  0.00  0.00    -0.409 OA
ATOM     29  H   UNL     1       0.146  -0.124   3.830  0.00  0.00    +0.328 HD
ENDBRANCH  20  28
ENDBRANCH  18  19
ENDBRANCH   1  18
TORSDOF 5
