REMARK  Name = ZINC39698202
REMARK  8 active torsions:
REMARK  status: ('A' for Active; 'I' for Inactive)
REMARK    1  A    between atoms: C_1  and  C_2
REMARK    2  A    between atoms: C_5  and  N_9
REMARK    3  A    between atoms: C_7  and  C_8
REMARK    4  A    between atoms: C_10  and  O_29
REMARK    5  A    between atoms: C_12  and  C_16
REMARK    6  A    between atoms: C_13  and  C_15
REMARK    7  A    between atoms: C_17  and  C_18
REMARK    8  A    between atoms: C_17  and  C_20
REMARK                            x       y       z     vdW  Elec       q    Type
REMARK                         _______ _______ _______ _____ _____    ______ ____
ROOT
ATOM      1  N   UNL     1      -0.297  -4.172   0.235  0.00  0.00    -0.221 N 
ATOM      2  C   UNL     1       0.110  -5.075  -0.854  0.00  0.00    +0.253 C 
ATOM      3  C   UNL     1      -0.019  -6.461  -0.261  0.00  0.00    +0.019 C 
ATOM      4  C   UNL     1      -0.450  -6.307   1.008  0.00  0.00    +0.026 C 
ATOM      5  N   UNL     1      -0.614  -4.992   1.325  0.00  0.00    -0.266 N 
ATOM      6  C   UNL     1      -0.711  -7.447   1.958  0.00  0.00    +0.062 C 
ATOM      7  H   UNL     1      -0.913  -4.668   2.189  0.00  0.00    +0.170 HD
ENDROOT
BRANCH   1  12
ATOM      8  C   UNL     1      -0.513   1.492   0.059  0.00  0.00    +0.044 C 
ATOM      9  C   UNL     1      -0.456  -0.013   0.106  0.00  0.00    -0.047 A 
ATOM     10  C   UNL     1      -0.054  -0.723  -1.011  0.00  0.00    +0.005 A 
ATOM     11  C   UNL     1      -0.001  -2.102  -0.972  0.00  0.00    +0.025 A 
ATOM     12  C   UNL     1      -0.350  -2.777   0.192  0.00  0.00    +0.051 A 
ATOM     13  C   UNL     1      -0.752  -2.060   1.312  0.00  0.00    +0.028 A 
ATOM     14  C   UNL     1      -0.798  -0.681   1.267  0.00  0.00    -0.046 A 
ATOM     15  C   UNL     1      -1.229   0.098   2.483  0.00  0.00    +0.044 C 
ENDBRANCH   1  12
BRANCH   3  16
ATOM     16  C   UNL     1       0.256  -7.681  -0.911  0.00  0.00    +0.027 C 
ATOM     17  C   UNL     1       1.144  -8.555  -0.368  0.00  0.00    +0.072 C 
BRANCH  17  18
ATOM     18  C   UNL     1       1.334  -9.917  -0.984  0.00  0.00    +0.216 C 
ATOM     19  N   UNL     1       1.077 -10.963   0.014  0.00  0.00    -0.359 N 
ATOM     20  C   UNL     1       2.174 -11.650   0.151  0.00  0.00    +0.060 A 
ATOM     21  C   UNL     1       2.532 -12.803   0.989  0.00  0.00    +0.027 A 
ATOM     22  C   UNL     1       3.776 -13.316   0.917  0.00  0.00    +0.002 A 
ATOM     23  C   UNL     1       4.764 -12.792   0.065  0.00  0.00    +0.002 A 
ATOM     24  C   UNL     1       4.541 -11.737  -0.744  0.00  0.00    +0.027 A 
ATOM     25  C   UNL     1       3.219 -11.096  -0.751  0.00  0.00    +0.060 A 
ATOM     26  N   UNL     1       2.729 -10.087  -1.411  0.00  0.00    -0.359 N 
ATOM     27  H   UNL     1       0.242 -11.113   0.485  0.00  0.00    +0.162 HD
ATOM     28  H   UNL     1       3.198  -9.546  -2.066  0.00  0.00    +0.162 HD
ENDBRANCH  17  18
BRANCH  17  29
ATOM     29  C   UNL     1       1.899  -8.182   0.791  0.00  0.00    +0.099 C 
ATOM     30  N   UNL     1       2.497  -7.886   1.710  0.00  0.00    -0.191 NA
ENDBRANCH  17  29
ENDBRANCH   3  16
BRANCH   2  31
ATOM     31  O   UNL     1       1.463  -4.818  -1.237  0.00  0.00    -0.369 OA
ATOM     32  H   UNL     1       1.757  -5.325  -2.006  0.00  0.00    +0.212 HD
ENDBRANCH   2  31
TORSDOF 5
