REMARK  Name = ZINC30575417
REMARK  7 active torsions:
REMARK  status: ('A' for Active; 'I' for Inactive)
REMARK    1  A    between atoms: C_1  and  C_2
REMARK    2  A    between atoms: C_5  and  N_9
REMARK    3  A    between atoms: C_10  and  C_12
REMARK    4  A    between atoms: C_12  and  C_14
REMARK    5  A    between atoms: C_12  and  N_15
REMARK    6  A    between atoms: N_18  and  S_21
REMARK    7  A    between atoms: S_21  and  C_24
REMARK                            x       y       z     vdW  Elec       q    Type
REMARK                         _______ _______ _______ _____ _____    ______ ____
ROOT
ATOM      1  N   UNL     1      -0.471   1.285   1.403  0.00  0.00    +0.389 N 
ATOM      2  C   UNL     1       0.551   0.843   2.362  0.00  0.00    -0.060 C 
ATOM      3  C   UNL     1       0.139   1.269   3.775  0.00  0.00    +0.091 C 
ATOM      4  N   UNL     1      -1.218   0.767   4.037  0.00  0.00    -0.180 NA
ATOM      5  C   UNL     1      -2.269   1.054   3.049  0.00  0.00    +0.091 C 
ATOM      6  C   UNL     1      -1.763   0.636   1.665  0.00  0.00    -0.060 C 
ATOM      7  H   UNL     1      -0.608   2.368   1.536  0.00  0.00    -0.081 HD
ENDROOT
BRANCH   4   8
ATOM      8  S   UNL     1      -1.554  -0.097   5.409  0.00  0.00    +0.061 S 
ATOM      9  O   UNL     1      -0.570   0.264   6.368  0.00  0.00    -0.153 OA
ATOM     10  O   UNL     1      -2.946   0.052   5.653  0.00  0.00    -0.153 OA
BRANCH   8  11
ATOM     11  C   UNL     1      -1.289  -1.798   5.032  0.00  0.00    +0.105 A 
ATOM     12  C   UNL     1      -2.329  -2.568   4.545  0.00  0.00    +0.028 A 
ATOM     13  C   UNL     1      -2.119  -3.901   4.244  0.00  0.00    +0.002 A 
ATOM     14  C   UNL     1      -0.873  -4.466   4.440  0.00  0.00    +0.000 A 
ATOM     15  C   UNL     1       0.165  -3.697   4.932  0.00  0.00    +0.002 A 
ATOM     16  C   UNL     1      -0.043  -2.363   5.228  0.00  0.00    +0.028 A 
ENDBRANCH   8  11
ENDBRANCH   4   8
BRANCH   1  17
ATOM     17  C   UNL     1      -0.034   1.048   0.021  0.00  0.00    +0.017 C 
ATOM     18  C   UNL     1      -0.144  -0.443  -0.301  0.00  0.00    -0.004 C 
BRANCH  17  20
ATOM     19  N   UNL     1      -0.608   1.879  -2.237  0.00  0.00    -0.286 N 
ATOM     20  C   UNL     1      -0.907   1.833  -0.924  0.00  0.00    +0.203 C 
ATOM     21  O   UNL     1      -1.880   2.422  -0.502  0.00  0.00    -0.277 OA
ATOM     22  H   UNL     1       0.227   1.282  -2.632  0.00  0.00    +0.155 HD
BRANCH  19  27
ATOM     23  C   UNL     1      -3.656   5.155  -5.726  0.00  0.00    +0.044 C 
ATOM     24  C   UNL     1      -2.846   4.285  -4.799  0.00  0.00    -0.049 A 
ATOM     25  C   UNL     1      -3.457   3.668  -3.723  0.00  0.00    +0.005 A 
ATOM     26  C   UNL     1      -2.718   2.870  -2.872  0.00  0.00    +0.024 A 
ATOM     27  C   UNL     1      -1.360   2.687  -3.098  0.00  0.00    +0.047 A 
ATOM     28  C   UNL     1      -0.748   3.313  -4.177  0.00  0.00    +0.039 A 
ATOM     29  C   UNL     1      -1.494   4.106  -5.027  0.00  0.00    +0.020 A 
ATOM     30 BR   UNL     1       1.103   3.074  -4.485  0.00  0.00    -0.048 Br
ENDBRANCH  19  27
ENDBRANCH  17  20
ENDBRANCH   1  17
TORSDOF 5
