REMARK  Name = ZINC66119503
REMARK  7 active torsions:
REMARK  status: ('A' for Active; 'I' for Inactive)
REMARK    1  A    between atoms: C_1  and  C_2
REMARK    2  A    between atoms: C_2  and  C_26
REMARK    3  A    between atoms: C_4  and  N_10
REMARK    4  A    between atoms: C_6  and  C_8
REMARK    5  A    between atoms: C_6  and  C_9
REMARK    6  A    between atoms: C_16  and  N_19
REMARK    7  A    between atoms: C_20  and  C_22
REMARK                            x       y       z     vdW  Elec       q    Type
REMARK                         _______ _______ _______ _____ _____    ______ ____
ROOT
ATOM      1  N   UNL     1       2.616  -0.820  -2.625  0.00  0.00    -0.296 N 
ATOM      2  C   UNL     1       3.770  -0.334  -3.123  0.00  0.00    +0.302 C 
ATOM      3  O   UNL     1       4.328   0.595  -2.571  0.00  0.00    -0.253 OA
ATOM      4  N   UNL     1       4.307  -0.878  -4.234  0.00  0.00    -0.286 N 
ATOM      5  C   UNL     1       3.588  -1.921  -4.978  0.00  0.00    +0.111 C 
ATOM      6  C   UNL     1       4.511  -3.133  -5.143  0.00  0.00    +0.041 C 
ATOM      7  C   UNL     1       5.822  -2.687  -5.794  0.00  0.00    +0.076 C 
ATOM      8  C   UNL     1       6.520  -1.667  -4.891  0.00  0.00    +0.041 C 
ATOM      9  C   UNL     1       5.618  -0.435  -4.726  0.00  0.00    +0.111 C 
ATOM     10  H   UNL     1       2.133  -1.510  -3.106  0.00  0.00    +0.151 HD
ENDROOT
BRANCH   1  14
ATOM     11  C   UNL     1      -0.017   1.525   0.015  0.00  0.00    -0.010 C 
ATOM     12  C   UNL     1       0.004  -0.007   0.005  0.00  0.00    -0.072 C 
ATOM     13  C   UNL     1       0.575  -0.507  -1.318  0.00  0.00    +0.009 C 
ATOM     14  C   UNL     1       2.090  -0.303  -1.356  0.00  0.00    +0.072 C 
ATOM     15  C   UNL     1       2.705  -1.088  -0.198  0.00  0.00    +0.009 C 
ATOM     16  C   UNL     1       2.151  -0.594   1.134  0.00  0.00    -0.072 C 
ATOM     17  N   UNL     1       0.700  -0.533   1.167  0.00  0.00    +0.386 N 
ATOM     18  C   UNL     1       2.773   0.762   1.483  0.00  0.00    -0.010 C 
ATOM     19  C   UNL     1       2.604  -1.594   2.223  0.00  0.00    -0.010 C 
ATOM     20  C   UNL     1      -1.465  -0.481   0.083  0.00  0.00    -0.010 C 
ATOM     21  H   UNL     1       0.420   0.017   1.985  0.00  0.00    -0.084 HD
ATOM     22  H   UNL     1       0.344  -1.476   1.353  0.00  0.00    -0.084 HD
ENDBRANCH   1  14
BRANCH   7  23
ATOM     23  N   UNL     1       6.693  -3.849  -5.984  0.00  0.00    -0.312 N 
ATOM     24  C   UNL     1       7.637  -3.834  -6.946  0.00  0.00    +0.216 C 
ATOM     25  O   UNL     1       7.764  -2.858  -7.655  0.00  0.00    -0.276 OA
ATOM     26  H   UNL     1       6.591  -4.629  -5.417  0.00  0.00    +0.149 HD
BRANCH  24  27
ATOM     27  C   UNL     1       8.533  -5.029  -7.141  0.00  0.00    +0.075 C 
ATOM     28  C   UNL     1       7.898  -6.144  -7.989  0.00  0.00    +0.013 C 
ATOM     29  C   UNL     1       8.487  -5.434  -9.220  0.00  0.00    +0.001 C 
ATOM     30  C   UNL     1       9.555  -4.854  -8.277  0.00  0.00    +0.013 C 
ENDBRANCH  24  27
ENDBRANCH   7  23
TORSDOF 3
