REMARK  Name = ZINC14737904
REMARK  6 active torsions:
REMARK  status: ('A' for Active; 'I' for Inactive)
REMARK    1  A    between atoms: C_3  and  O_10
REMARK    2  A    between atoms: C_6  and  N_7
REMARK    3  A    between atoms: O_10  and  C_11
REMARK    4  A    between atoms: C_11  and  C_12
REMARK    5  A    between atoms: N_14  and  C_15
REMARK    6  A    between atoms: C_16  and  C_25
REMARK                            x       y       z     vdW  Elec       q    Type
REMARK                         _______ _______ _______ _____ _____    ______ ____
ROOT
ATOM      1  C   UNL     1       2.211   5.600   0.012  0.00  0.00    +0.255 C 
ATOM      2  O   UNL     1       1.085   6.051   0.025  0.00  0.00    -0.272 OA
ATOM      3  N   UNL     1       3.270   6.433   0.006  0.00  0.00    -0.276 N 
ATOM      4  H   UNL     1       4.171   6.073  -0.004  0.00  0.00    +0.155 HD
ENDROOT
BRANCH   3   5
ATOM      5  C   UNL     1       3.072   7.807   0.016  0.00  0.00    +0.090 A 
ATOM      6  C   UNL     1       4.024   8.814   0.018  0.00  0.00    +0.084 A 
ATOM      7  C   UNL     1       3.553  10.192   0.022  0.00  0.00    -0.018 A 
ATOM      8  C   UNL     1       2.209  10.334   0.041  0.00  0.00    -0.004 A 
ATOM      9  S   UNL     1       1.576   8.679   0.036  0.00  0.00    -0.077 S 
ATOM     10  C   UNL     1       1.425  11.608   0.074  0.00  0.00    +0.043 C 
ATOM     11  C   UNL     1       1.960  12.561  -1.004  0.00  0.00    +0.005 C 
ATOM     12  C   UNL     1       3.075  13.403  -0.393  0.00  0.00    +0.001 C 
ATOM     13  C   UNL     1       3.835  12.591   0.654  0.00  0.00    +0.005 C 
ATOM     14  C   UNL     1       4.503  11.383   0.007  0.00  0.00    +0.037 C 
BRANCH   6  15
ATOM     15  C   UNL     1       5.423   8.510   0.013  0.00  0.00    +0.102 C 
ATOM     16  N   UNL     1       6.533   8.269   0.009  0.00  0.00    -0.191 NA
ENDBRANCH   6  15
ENDBRANCH   3   5
BRANCH   1  17
ATOM     17  C   UNL     1       2.426   4.108   0.001  0.00  0.00    +0.324 C 
BRANCH  17  18
ATOM     18  O   UNL     1       1.160   3.445   0.010  0.00  0.00    -0.483 OA
BRANCH  18  21
ATOM     19  C   UNL     1       0.002  -0.004   0.002  0.00  0.00    +0.036 A 
ATOM     20  C   UNL     1      -0.017   1.377   0.010  0.00  0.00    +0.048 A 
ATOM     21  C   UNL     1       1.176   2.086   0.002  0.00  0.00    +0.121 A 
ATOM     22  C   UNL     1       2.385   1.405  -0.012  0.00  0.00    +0.048 A 
ATOM     23  C   UNL     1       2.398   0.024  -0.020  0.00  0.00    +0.036 A 
ATOM     24  C   UNL     1       1.208  -0.680  -0.013  0.00  0.00    +0.126 A 
BRANCH  24  25
ATOM     25  N   UNL     1       1.225  -2.160  -0.021  0.00  0.00    +0.056 N 
ATOM     26  O   UNL     1       0.178  -2.781  -0.015  0.00  0.00    -0.126 OA
ATOM     27  O   UNL     1       2.287  -2.757  -0.035  0.00  0.00    -0.126 OA
ENDBRANCH  24  25
ENDBRANCH  18  21
ENDBRANCH  17  18
ENDBRANCH   1  17
TORSDOF 6
