REMARK  Name = ZINC10014881
REMARK  7 active torsions:
REMARK  status: ('A' for Active; 'I' for Inactive)
REMARK    1  A    between atoms: C_1  and  C_2
REMARK    2  A    between atoms: C_3  and  O_31
REMARK    3  A    between atoms: C_12  and  C_13
REMARK    4  A    between atoms: C_13  and  S_14
REMARK    5  A    between atoms: S_14  and  C_15
REMARK    6  A    between atoms: C_18  and  C_26
REMARK    7  A    between atoms: N_19  and  C_20
REMARK                            x       y       z     vdW  Elec       q    Type
REMARK                         _______ _______ _______ _____ _____    ______ ____
ROOT
ATOM      1  S   UNL     1       1.241  -2.764  -1.731  0.00  0.00    -0.081 S 
ENDROOT
BRANCH   1   2
ATOM      2  C   UNL     1       1.300  -4.503  -1.450  0.00  0.00    +0.193 A 
ATOM      3  N   UNL     1       1.336  -5.103  -0.281  0.00  0.00    -0.122 NA
ATOM      4  N   UNL     1       1.371  -6.377  -0.439  0.00  0.00    -0.125 NA
ATOM      5  C   UNL     1       1.368  -6.671  -1.721  0.00  0.00    +0.201 A 
ATOM      6  N   UNL     1       1.322  -5.478  -2.408  0.00  0.00    -0.297 N 
BRANCH   6   7
ATOM      7  C   UNL     1       1.301  -5.293  -3.861  0.00  0.00    +0.091 C 
ATOM      8  C   UNL     1       2.520  -4.473  -4.288  0.00  0.00    +0.025 C 
ATOM      9  C   UNL     1       2.498  -4.279  -5.805  0.00  0.00    +0.002 C 
ATOM     10  C   UNL     1       1.220  -3.540  -6.207  0.00  0.00    +0.000 C 
ATOM     11  C   UNL     1       0.002  -4.360  -5.780  0.00  0.00    +0.002 C 
ATOM     12  C   UNL     1       0.023  -4.554  -4.262  0.00  0.00    +0.025 C 
ENDBRANCH   6   7
BRANCH   5  13
ATOM     13  C   UNL     1       1.407  -8.019  -2.310  0.00  0.00    +0.172 A 
ATOM     14  C   UNL     1       1.736  -9.168  -1.656  0.00  0.00    +0.053 A 
ATOM     15  C   UNL     1       1.641 -10.211  -2.598  0.00  0.00    +0.042 A 
ATOM     16  C   UNL     1       1.263  -9.656  -3.767  0.00  0.00    +0.196 A 
ATOM     17  O   UNL     1       1.117  -8.333  -3.588  0.00  0.00    -0.460 OA
ENDBRANCH   5  13
ENDBRANCH   1   2
BRANCH   1  18
ATOM     18  C   UNL     1       1.238  -2.170  -0.021  0.00  0.00    +0.113 C 
BRANCH  18  30
ATOM     19  C   UNL     1       3.407   3.797  -0.011  0.00  0.00    +0.051 C 
ATOM     20  C   UNL     1       3.488   2.292  -0.019  0.00  0.00    +0.034 A 
ATOM     21  C   UNL     1       4.723   1.663  -0.034  0.00  0.00    +0.123 A 
ATOM     22  C   UNL     1       4.808   0.272  -0.043  0.00  0.00    +0.046 A 
ATOM     23  C   UNL     1       3.676  -0.490  -0.036  0.00  0.00    +0.015 A 
ATOM     24  C   UNL     1       2.421   0.129  -0.021  0.00  0.00    +0.022 A 
ATOM     25  C   UNL     1       2.328   1.533  -0.012  0.00  0.00    +0.146 A 
ATOM     26  O   UNL     1       1.115   2.126   0.003  0.00  0.00    -0.422 OA
ATOM     27  C   UNL     1      -0.017   1.406   0.010  0.00  0.00    +0.338 A 
ATOM     28  O   UNL     1      -1.089   1.985   0.018  0.00  0.00    -0.245 OA
ATOM     29  C   UNL     1       0.002  -0.004   0.002  0.00  0.00    +0.097 A 
ATOM     30  C   UNL     1       1.190  -0.664  -0.013  0.00  0.00    -0.020 A 
BRANCH  21  31
ATOM     31  O   UNL     1       5.858   2.407  -0.042  0.00  0.00    -0.506 OA
ATOM     32  H   UNL     1       6.195   2.618   0.840  0.00  0.00    +0.292 HD
ENDBRANCH  21  31
ENDBRANCH  18  30
ENDBRANCH   1  18
TORSDOF 6
