REMARK  Name = ZINC65266017
REMARK  7 active torsions:
REMARK  status: ('A' for Active; 'I' for Inactive)
REMARK    1  A    between atoms: C_1  and  C_2
REMARK    2  A    between atoms: C_2  and  N_3
REMARK    3  A    between atoms: C_6  and  C_8
REMARK    4  A    between atoms: N_25  and  C_26
REMARK    5  A    between atoms: C_26  and  C_27
REMARK    6  A    between atoms: C_26  and  C_28
REMARK    7  A    between atoms: C_26  and  C_29
REMARK                            x       y       z     vdW  Elec       q    Type
REMARK                         _______ _______ _______ _____ _____    ______ ____
ROOT
ATOM      1  C   UNL     1       0.627  -0.702  -4.322  0.00  0.00    +0.267 C 
ATOM      2  O   UNL     1       1.307  -1.541  -4.880  0.00  0.00    -0.268 OA
ATOM      3  N   UNL     1      -0.132   0.143  -5.048  0.00  0.00    -0.294 N 
ATOM      4  C   UNL     1      -0.992   1.205  -4.504  0.00  0.00    +0.110 C 
ATOM      5  C   UNL     1      -1.646   1.928  -5.703  0.00  0.00    +0.050 C 
ATOM      6  C   UNL     1      -0.706   1.575  -6.868  0.00  0.00    +0.091 C 
ATOM      7  C   UNL     1      -0.231   0.159  -6.521  0.00  0.00    +0.138 C 
ATOM      8  C   UNL     1      -1.397   1.633  -8.187  0.00  0.00    +0.095 C 
ATOM      9  N   UNL     1      -0.611   1.907  -9.280  0.00  0.00    -0.303 N 
ATOM     10  C   UNL     1      -0.410   3.233  -9.650  0.00  0.00    +0.037 A 
ATOM     11  C   UNL     1      -0.511   3.605 -10.983  0.00  0.00    +0.023 A 
ATOM     12  C   UNL     1      -0.297   4.917 -11.355  0.00  0.00    +0.002 A 
ATOM     13  C   UNL     1       0.019   5.855 -10.389  0.00  0.00    +0.000 A 
ATOM     14  C   UNL     1       0.113   5.487  -9.064  0.00  0.00    +0.007 A 
ATOM     15  C   UNL     1      -0.107   4.170  -8.670  0.00  0.00    -0.012 A 
ATOM     16  C   UNL     1      -0.015   3.878  -7.194  0.00  0.00    +0.119 C 
ATOM     17  N   UNL     1       0.441   2.509  -6.915  0.00  0.00    -0.299 NA
ATOM     18  N   UNL     1      -2.671   1.437  -8.297  0.00  0.00    -0.370 N 
ATOM     19  H   UNL     1       0.972   2.472  -6.058  0.00  0.00    +0.123 HD
ATOM     20  H   UNL     1      -3.183   1.138  -7.529  0.00  0.00    +0.161 HD
ATOM     21  H   UNL     1      -0.202   1.187  -9.786  0.00  0.00    +0.153 HD
ENDROOT
BRANCH   1  25
ATOM     22  N   UNL     1       0.192   0.051  -0.868  0.00  0.00    -0.271 N 
ATOM     23  C   UNL     1       1.065  -0.968  -0.717  0.00  0.00    +0.109 A 
ATOM     24  C   UNL     1       1.374  -1.418  -1.956  0.00  0.00    +0.054 A 
ATOM     25  C   UNL     1       0.634  -0.607  -2.848  0.00  0.00    +0.147 A 
ATOM     26  N   UNL     1      -0.053   0.245  -2.114  0.00  0.00    -0.167 NA
BRANCH  22  28
ATOM     27  C   UNL     1      -0.128   2.310   0.013  0.00  0.00    +0.029 C 
ATOM     28  C   UNL     1      -0.397   0.820   0.232  0.00  0.00    +0.140 C 
ENDBRANCH  22  28
ENDBRANCH   1  25
BRANCH  18  29
ATOM     29  C   UNL     1      -3.339   1.666  -9.580  0.00  0.00    +0.031 C 
ATOM     30  C   UNL     1      -2.606   0.898 -10.681  0.00  0.00    +0.033 C 
ATOM     31  C   UNL     1      -4.787   1.179  -9.495  0.00  0.00    +0.033 C 
ATOM     32  C   UNL     1      -3.323   3.162  -9.903  0.00  0.00    +0.033 C 
ENDBRANCH  18  29
TORSDOF 3
