REMARK  Name = ZINC40151213
REMARK  9 active torsions:
REMARK  status: ('A' for Active; 'I' for Inactive)
REMARK    1  A    between atoms: C_8  and  C_13
REMARK    2  A    between atoms: C_13  and  C_25
REMARK    3  A    between atoms: N_14  and  N_15
REMARK    4  A    between atoms: C_16  and  C_18
REMARK    5  A    between atoms: C_25  and  C_27
REMARK    6  A    between atoms: C_25  and  O_32
REMARK    7  A    between atoms: C_27  and  C_29
REMARK    8  A    between atoms: C_27  and  O_31
REMARK    9  A    between atoms: C_29  and  O_30
REMARK                            x       y       z     vdW  Elec       q    Type
REMARK                         _______ _______ _______ _____ _____    ______ ____
ROOT
ATOM      1  C   UNL     1       2.797  -3.506   1.253  0.00  0.00    +0.099 C 
ATOM      2  N   UNL     1       2.187  -3.022   2.269  0.00  0.00    -0.184 NA
ENDROOT
BRANCH   1  10
ATOM      3  C   UNL     1       5.943  -3.976  -3.526  0.00  0.00    +0.002 A 
ATOM      4  C   UNL     1       4.830  -4.336  -4.303  0.00  0.00    +0.002 A 
ATOM      5  C   UNL     1       3.557  -4.213  -3.859  0.00  0.00    +0.025 A 
ATOM      6  C   UNL     1       3.295  -3.706  -2.567  0.00  0.00    +0.057 A 
ATOM      7  N   UNL     1       2.050  -3.589  -2.139  0.00  0.00    -0.282 N 
ATOM      8  C   UNL     1       1.769  -3.113  -0.923  0.00  0.00    +0.245 C 
ATOM      9  O   UNL     1       0.617  -3.015  -0.552  0.00  0.00    -0.273 OA
ATOM     10  C   UNL     1       2.905  -2.699  -0.016  0.00  0.00    +0.215 C 
ATOM     11  N   UNL     1       4.279  -2.842  -0.522  0.00  0.00    -0.368 N 
ATOM     12  C   UNL     1       4.452  -3.317  -1.722  0.00  0.00    +0.058 A 
ATOM     13  C   UNL     1       5.806  -3.480  -2.276  0.00  0.00    +0.027 A 
ATOM     14  H   UNL     1       1.322  -3.854  -2.722  0.00  0.00    +0.155 HD
ATOM     15  H   UNL     1       5.038  -2.589   0.026  0.00  0.00    +0.161 HD
ENDBRANCH   1  10
BRANCH   2  16
ATOM     16  N   UNL     1       1.514  -1.798   2.165  0.00  0.00    -0.203 N 
ATOM     17  C   UNL     1       0.792  -1.335   3.205  0.00  0.00    +0.263 C 
ATOM     18  O   UNL     1       0.800  -1.932   4.264  0.00  0.00    -0.268 OA
ATOM     19  H   UNL     1       1.567  -1.284   1.344  0.00  0.00    +0.178 HD
BRANCH  17  20
ATOM     20  C   UNL     1      -0.007  -0.101   3.058  0.00  0.00    +0.038 A 
ATOM     21  C   UNL     1      -0.109   0.524   1.814  0.00  0.00    +0.014 A 
ATOM     22  C   UNL     1      -0.858   1.675   1.683  0.00  0.00    +0.021 A 
ATOM     23  C   UNL     1      -1.507   2.211   2.783  0.00  0.00    +0.041 A 
ATOM     24  C   UNL     1      -1.409   1.596   4.020  0.00  0.00    +0.021 A 
ATOM     25  C   UNL     1      -0.668   0.441   4.162  0.00  0.00    +0.014 A 
ATOM     26 CL   UNL     1      -2.446   3.661   2.611  0.00  0.00    -0.084 Cl
ENDBRANCH  17  20
ENDBRANCH   2  16
BRANCH   1  27
ATOM     27  C   UNL     1       3.407  -4.882   1.325  0.00  0.00    +0.193 C 
BRANCH  27  28
ATOM     28  O   UNL     1       4.620  -4.905   0.570  0.00  0.00    -0.383 OA
ATOM     29  H   UNL     1       5.318  -4.340   0.930  0.00  0.00    +0.210 HD
ENDBRANCH  27  28
BRANCH  27  30
ATOM     30  C   UNL     1       2.427  -5.904   0.746  0.00  0.00    +0.174 C 
BRANCH  30  31
ATOM     31  O   UNL     1       1.214  -5.881   1.500  0.00  0.00    -0.387 OA
ATOM     32  H   UNL     1       1.328  -6.094   2.436  0.00  0.00    +0.210 HD
ENDBRANCH  30  31
BRANCH  30  33
ATOM     33  C   UNL     1       3.046  -7.302   0.819  0.00  0.00    +0.190 C 
BRANCH  33  34
ATOM     34  O   UNL     1       2.183  -8.240   0.174  0.00  0.00    -0.392 OA
ATOM     35  H   UNL     1       2.513  -9.149   0.182  0.00  0.00    +0.210 HD
ENDBRANCH  33  34
ENDBRANCH  30  33
ENDBRANCH  27  30
ENDBRANCH   1  27
TORSDOF 9
