REMARK  Name = ZINC39981270
REMARK  5 active torsions:
REMARK  status: ('A' for Active; 'I' for Inactive)
REMARK    1  A    between atoms: C_4  and  C_7
REMARK    2  A    between atoms: N_9  and  N_10
REMARK    3  A    between atoms: C_11  and  C_13
REMARK    4  A    between atoms: C_13  and  S_14
REMARK    5  A    between atoms: S_14  and  C_15
REMARK                            x       y       z     vdW  Elec       q    Type
REMARK                         _______ _______ _______ _____ _____    ______ ____
ROOT
ATOM      1  S   UNL     1       5.978  -6.582  -0.091  0.00  0.00    -0.075 S 
ENDROOT
BRANCH   1   2
ATOM      2  C   UNL     1       7.592  -7.287  -0.111  0.00  0.00    +0.208 C 
ATOM      3  N   UNL     1       8.622  -6.474  -0.112  0.00  0.00    -0.227 NA
ATOM      4  C   UNL     1       9.954  -7.066  -0.207  0.00  0.00    +0.252 C 
ATOM      5  C   UNL     1       9.853  -8.452   0.414  0.00  0.00    +0.117 C 
ATOM      6  C   UNL     1      10.896  -8.539   1.286  0.00  0.00    +0.028 A 
ATOM      7  C   UNL     1      11.390  -9.607   2.072  0.00  0.00    +0.050 A 
ATOM      8  C   UNL     1      12.467  -9.353   2.869  0.00  0.00    +0.124 A 
ATOM      9  C   UNL     1      13.107  -8.109   2.953  0.00  0.00    +0.040 A 
ATOM     10  C   UNL     1      12.721  -7.019   2.239  0.00  0.00    +0.029 A 
ATOM     11  C   UNL     1      11.566  -7.203   1.343  0.00  0.00    +0.046 A 
ATOM     12  N   UNL     1      10.992  -6.365   0.536  0.00  0.00    -0.358 N 
ATOM     13  F   UNL     1      12.947 -10.364   3.624  0.00  0.00    -0.205 F 
ATOM     14  N   UNL     1       8.808  -9.246   0.167  0.00  0.00    -0.147 NA
ATOM     15  N   UNL     1       7.699  -8.638  -0.119  0.00  0.00    -0.122 NA
ATOM     16  H   UNL     1      11.216  -5.426   0.443  0.00  0.00    +0.162 HD
ENDBRANCH   1   2
BRANCH   1  17
ATOM     17  C   UNL     1       6.280  -4.793  -0.085  0.00  0.00    +0.174 C 
BRANCH  17  19
ATOM     18  N   UNL     1       4.942  -2.713  -0.060  0.00  0.00    -0.233 N 
ATOM     19  C   UNL     1       4.963  -4.061  -0.068  0.00  0.00    +0.239 C 
ATOM     20  O   UNL     1       3.923  -4.684  -0.061  0.00  0.00    -0.273 OA
ATOM     21  H   UNL     1       5.774  -2.215  -0.066  0.00  0.00    +0.173 HD
BRANCH  18  24
ATOM     22  C   UNL     1       3.696  -0.685  -0.037  0.00  0.00    +0.260 C 
ATOM     23  O   UNL     1       4.738  -0.060  -0.044  0.00  0.00    -0.269 OA
ATOM     24  N   UNL     1       3.717  -2.032  -0.045  0.00  0.00    -0.230 N 
ATOM     25  H   UNL     1       2.885  -2.531  -0.039  0.00  0.00    +0.173 HD
BRANCH  22  29
ATOM     26  C   UNL     1      -0.017   1.379   0.010  0.00  0.00    +0.000 A 
ATOM     27  C   UNL     1       1.168   2.094   0.002  0.00  0.00    +0.001 A 
ATOM     28  C   UNL     1       2.377   1.429  -0.013  0.00  0.00    +0.013 A 
ATOM     29  C   UNL     1       2.403   0.034  -0.021  0.00  0.00    +0.038 A 
ATOM     30  C   UNL     1       1.204  -0.681  -0.013  0.00  0.00    +0.013 A 
ATOM     31  C   UNL     1       0.002  -0.004   0.002  0.00  0.00    +0.001 A 
ENDBRANCH  22  29
ENDBRANCH  18  24
ENDBRANCH  17  19
ENDBRANCH   1  17
TORSDOF 5
