REMARK  Name = ZINC03620817
REMARK  5 active torsions:
REMARK  status: ('A' for Active; 'I' for Inactive)
REMARK    1  A    between atoms: C_4  and  N_7
REMARK    2  A    between atoms: C_8  and  C_26
REMARK    3  A    between atoms: C_11  and  S_12
REMARK    4  A    between atoms: S_12  and  C_13
REMARK    5  A    between atoms: C_13  and  C_14
REMARK                            x       y       z     vdW  Elec       q    Type
REMARK                         _______ _______ _______ _____ _____    ______ ____
ROOT
ATOM      1  N   UNL     1      -7.383   6.075   2.393  0.00  0.00    -0.270 N 
ATOM      2  C   UNL     1      -8.506   6.530   1.733  0.00  0.00    +0.176 A 
ATOM      3  N   UNL     1      -8.425   6.098   0.494  0.00  0.00    -0.127 NA
ATOM      4  N   UNL     1      -7.346   5.419   0.334  0.00  0.00    -0.122 NA
ATOM      5  C   UNL     1      -6.672   5.367   1.461  0.00  0.00    +0.197 A 
ENDROOT
BRANCH   1   9
ATOM      6  C   UNL     1      -6.369   6.721   6.384  0.00  0.00    +0.000 A 
ATOM      7  C   UNL     1      -5.581   7.248   5.378  0.00  0.00    +0.002 A 
ATOM      8  C   UNL     1      -5.914   7.036   4.054  0.00  0.00    +0.026 A 
ATOM      9  C   UNL     1      -7.042   6.292   3.735  0.00  0.00    +0.051 A 
ATOM     10  C   UNL     1      -7.834   5.768   4.747  0.00  0.00    +0.026 A 
ATOM     11  C   UNL     1      -7.493   5.979   6.069  0.00  0.00    +0.002 A 
ENDBRANCH   1   9
BRANCH   2  12
ATOM     12  C   UNL     1      -9.588   7.345   2.307  0.00  0.00    +0.057 A 
ATOM     13  C   UNL     1     -10.571   8.054   1.664  0.00  0.00    +0.019 A 
ATOM     14  C   UNL     1     -11.487   8.750   2.421  0.00  0.00    +0.008 A 
ATOM     15  C   UNL     1     -11.391   8.713   3.775  0.00  0.00    +0.046 A 
ATOM     16  S   UNL     1      -9.970   7.662   4.022  0.00  0.00    -0.094 S 
ENDBRANCH   2  12
BRANCH   5  17
ATOM     17  S   UNL     1      -5.135   4.545   1.722  0.00  0.00    -0.079 S 
BRANCH  17  18
ATOM     18  C   UNL     1      -4.856   3.867   0.068  0.00  0.00    +0.133 C 
BRANCH  18  19
ATOM     19  C   UNL     1      -3.559   3.099   0.051  0.00  0.00    +0.059 A 
ATOM     20  C   UNL     1      -3.574   1.718   0.044  0.00  0.00    +0.094 A 
ATOM     21  C   UNL     1      -2.357   1.028   0.029  0.00  0.00    +0.259 A 
ATOM     22  O   UNL     1      -2.336  -0.193   0.022  0.00  0.00    -0.267 OA
ATOM     23  N   UNL     1      -1.206   1.733   0.017  0.00  0.00    -0.267 N 
ATOM     24  C   UNL     1      -0.013   1.076   0.008  0.00  0.00    +0.111 A 
ATOM     25  C   UNL     1       1.154   1.761   0.001  0.00  0.00    +0.035 A 
ATOM     26  C   UNL     1       1.147   3.163   0.008  0.00  0.00    +0.020 A 
ATOM     27  C   UNL     1      -0.041   3.830   0.022  0.00  0.00    +0.048 A 
ATOM     28  C   UNL     1      -1.244   3.099   0.030  0.00  0.00    +0.141 A 
ATOM     29  N   UNL     1      -2.406   3.750   0.044  0.00  0.00    -0.233 NA
ATOM     30 BR   UNL     1       2.797   0.825  -0.019  0.00  0.00    -0.049 Br
ENDBRANCH  18  19
ENDBRANCH  17  18
ENDBRANCH   5  17
TORSDOF 5
