REMARK  Name = ZINC38103330
REMARK  3 active torsions:
REMARK  status: ('A' for Active; 'I' for Inactive)
REMARK    1  A    between atoms: C_3  and  N_21
REMARK    2  A    between atoms: C_4  and  C_8
REMARK    3  A    between atoms: N_10  and  C_11
REMARK                            x       y       z     vdW  Elec       q    Type
REMARK                         _______ _______ _______ _____ _____    ______ ____
ROOT
ATOM      1  C   UNL     1       3.706  -0.662  -0.124  0.00  0.00    +0.246 C 
ATOM      2  O   UNL     1       4.744  -0.035  -0.041  0.00  0.00    -0.270 OA
ATOM      3  N   UNL     1       3.737  -2.001  -0.271  0.00  0.00    -0.310 N 
ATOM      4  H   UNL     1       2.909  -2.502  -0.337  0.00  0.00    +0.149 HD
ENDROOT
BRANCH   3   5
ATOM      5  C   UNL     1       5.023  -2.701  -0.332  0.00  0.00    +0.058 C 
ATOM      6  C   UNL     1       5.536  -2.764  -1.785  0.00  0.00    +0.002 C 
ATOM      7  C   UNL     1       6.254  -4.120  -1.883  0.00  0.00    -0.077 C 
ATOM      8  N   UNL     1       5.790  -4.955  -0.767  0.00  0.00    +0.383 N 
ATOM      9  C   UNL     1       4.853  -4.178   0.073  0.00  0.00    -0.048 C 
ATOM     10  C   UNL     1       3.441  -4.644  -0.360  0.00  0.00    -0.015 C 
ATOM     11  C   UNL     1       3.677  -6.145  -0.671  0.00  0.00    -0.020 C 
ATOM     12  C   UNL     1       5.102  -6.153  -1.274  0.00  0.00    -0.078 C 
ATOM     13  H   UNL     1       6.579  -5.232  -0.202  0.00  0.00    -0.081 HD
ENDBRANCH   3   5
BRANCH   1  17
ATOM     14  C   UNL     1      -0.021   1.370   0.053  0.00  0.00    +0.022 A 
ATOM     15  C   UNL     1       0.900   1.529   1.073  0.00  0.00    +0.035 A 
ATOM     16  C   UNL     1       2.111   0.872   1.022  0.00  0.00    +0.138 A 
ATOM     17  C   UNL     1       2.409   0.045  -0.062  0.00  0.00    +0.068 A 
ATOM     18  C   UNL     1       1.476  -0.112  -1.089  0.00  0.00    +0.035 A 
ATOM     19  C   UNL     1       0.267   0.551  -1.026  0.00  0.00    +0.042 A 
ATOM     20 CL   UNL     1      -0.895   0.358  -2.301  0.00  0.00    -0.084 Cl
BRANCH  16  21
ATOM     21  N   UNL     1       3.095   1.044   2.115  0.00  0.00    +0.057 N 
ATOM     22  O   UNL     1       2.889   1.849   2.993  0.00  0.00    -0.126 OA
ATOM     23  O   UNL     1       4.105   0.379   2.129  0.00  0.00    -0.126 OA
ENDBRANCH  16  21
ENDBRANCH   1  17
TORSDOF 3
