REMARK  Name = ZINC25500447
REMARK  5 active torsions:
REMARK  status: ('A' for Active; 'I' for Inactive)
REMARK    1  A    between atoms: C_4  and  C_7
REMARK    2  A    between atoms: N_11  and  O_12
REMARK    3  A    between atoms: C_14  and  C_25
REMARK    4  A    between atoms: C_16  and  C_17
REMARK    5  A    between atoms: C_16  and  C_19
REMARK                            x       y       z     vdW  Elec       q    Type
REMARK                         _______ _______ _______ _____ _____    ______ ____
ROOT
ATOM      1  C   UNL     1      -2.091   6.038  -1.788  0.00  0.00    +0.050 C 
ATOM      2  C   UNL     1      -2.755   6.294  -0.431  0.00  0.00    +0.064 C 
ATOM      3  C   UNL     1      -2.291   5.231   0.540  0.00  0.00    +0.059 C 
ATOM      4  N   UNL     1      -3.135   4.555   1.225  0.00  0.00    -0.096 NA
ATOM      5  C   UNL     1      -0.805   4.987   0.680  0.00  0.00    +0.064 C 
ATOM      6  C   UNL     1      -0.211   4.778  -0.717  0.00  0.00    +0.050 C 
ATOM      7  C   UNL     1      -0.573   5.968  -1.606  0.00  0.00    +0.096 C 
ENDROOT
BRANCH   1  11
ATOM      8  C   UNL     1      -3.505   2.339  -3.390  0.00  0.00    +0.000 A 
ATOM      9  C   UNL     1      -3.803   2.687  -2.086  0.00  0.00    +0.000 A 
ATOM     10  C   UNL     1      -3.346   3.884  -1.567  0.00  0.00    +0.004 A 
ATOM     11  C   UNL     1      -2.589   4.733  -2.353  0.00  0.00    -0.042 A 
ATOM     12  C   UNL     1      -2.295   4.388  -3.659  0.00  0.00    +0.004 A 
ATOM     13  C   UNL     1      -2.748   3.188  -4.176  0.00  0.00    +0.000 A 
ENDBRANCH   1  11
BRANCH   7  14
ATOM     14  C   UNL     1       0.084   5.806  -2.953  0.00  0.00    -0.026 A 
ATOM     15  C   UNL     1       1.283   5.126  -3.059  0.00  0.00    +0.005 A 
ATOM     16  C   UNL     1       1.884   4.974  -4.295  0.00  0.00    +0.000 A 
ATOM     17  C   UNL     1       1.291   5.510  -5.422  0.00  0.00    +0.000 A 
ATOM     18  C   UNL     1       0.095   6.194  -5.315  0.00  0.00    +0.000 A 
ATOM     19  C   UNL     1      -0.509   6.343  -4.080  0.00  0.00    +0.005 A 
ENDBRANCH   7  14
BRANCH   6  20
ATOM     20  C   UNL     1      -0.772   3.514  -1.317  0.00  0.00    -0.042 A 
ATOM     21  C   UNL     1      -0.547   3.223  -2.650  0.00  0.00    +0.004 A 
ATOM     22  C   UNL     1      -1.061   2.064  -3.200  0.00  0.00    +0.000 A 
ATOM     23  C   UNL     1      -1.799   1.195  -2.418  0.00  0.00    +0.000 A 
ATOM     24  C   UNL     1      -2.027   1.488  -1.087  0.00  0.00    +0.000 A 
ATOM     25  C   UNL     1      -1.510   2.645  -0.535  0.00  0.00    +0.004 A 
ENDBRANCH   6  20
BRANCH   4  26
ATOM     26  O   UNL     1      -2.681   3.564   2.128  0.00  0.00    -0.409 OA
ATOM     27  H   UNL     1      -3.406   2.983   2.717  0.00  0.00    +0.328 HD
ENDBRANCH   4  26
BRANCH   7  28
ATOM     28  C   UNL     1      -0.099   7.211  -0.977  0.00  0.00    +0.075 C 
ATOM     29  N   UNL     1       0.268   8.171  -0.490  0.00  0.00    -0.196 NA
ENDBRANCH   7  28
TORSDOF 5
