REMARK  Name = ZINC05275630
REMARK  4 active torsions:
REMARK  status: ('A' for Active; 'I' for Inactive)
REMARK    1  A    between atoms: C_1  and  C_2
REMARK    2  A    between atoms: C_17  and  C_28
REMARK    3  A    between atoms: C_22  and  C_24
REMARK    4  A    between atoms: N_26  and  N_27
REMARK                            x       y       z     vdW  Elec       q    Type
REMARK                         _______ _______ _______ _____ _____    ______ ____
ROOT
ATOM      1  C   UNL     1       0.062  -0.368   4.445  0.00  0.00    +0.012 C 
ATOM      2  C   UNL     1      -0.288  -0.284   2.939  0.00  0.00    -0.026 C 
ATOM      3  C   UNL     1       0.627  -1.245   2.190  0.00  0.00    +0.007 C 
ATOM      4  C   UNL     1       0.342  -2.702   2.551  0.00  0.00    +0.001 C 
ATOM      5  C   UNL     1      -1.123  -3.025   2.258  0.00  0.00    +0.000 C 
ATOM      6  C   UNL     1      -2.005  -2.135   3.135  0.00  0.00    +0.004 C 
ATOM      7  C   UNL     1      -1.756  -0.667   2.804  0.00  0.00    -0.005 C 
ATOM      8  C   UNL     1      -2.263  -0.369   1.392  0.00  0.00    +0.004 C 
ATOM      9  C   UNL     1      -2.204   1.148   1.198  0.00  0.00    +0.004 C 
ATOM     10  C   UNL     1      -0.741   1.594   1.228  0.00  0.00    -0.004 C 
ATOM     11  C   UNL     1      -0.034   1.156   2.502  0.00  0.00    -0.001 C 
ATOM     12  C   UNL     1       1.459   1.464   2.476  0.00  0.00    +0.005 C 
ATOM     13  C   UNL     1       2.163   1.055   1.177  0.00  0.00    +0.008 C 
ATOM     14  C   UNL     1       1.431   1.648  -0.003  0.00  0.00    -0.018 C 
ATOM     15  C   UNL     1      -0.012   1.092   0.009  0.00  0.00    -0.001 C 
ATOM     16  C   UNL     1      -0.543   1.568  -1.352  0.00  0.00    +0.005 C 
ATOM     17  C   UNL     1       0.661   1.303  -2.297  0.00  0.00    +0.013 C 
ATOM     18  C   UNL     1       1.926   1.276  -1.401  0.00  0.00    +0.082 C 
ATOM     19  C   UNL     1       1.440   3.177   0.100  0.00  0.00    +0.012 C 
ENDROOT
BRANCH  18  20
ATOM     20  C   UNL     1       2.555  -0.088  -1.428  0.00  0.00    +0.230 C 
ATOM     21  O   UNL     1       1.861  -1.073  -1.567  0.00  0.00    -0.274 OA
ATOM     22  N   UNL     1       3.890  -0.217  -1.299  0.00  0.00    -0.253 N 
ATOM     23  H   UNL     1       4.445   0.571  -1.188  0.00  0.00    +0.169 HD
BRANCH  22  24
ATOM     24  N   UNL     1       4.462  -1.457  -1.323  0.00  0.00    -0.254 NA
ATOM     25  H   UNL     1       5.464  -1.396  -1.215  0.00  0.00    +0.140 HD
ATOM     26  H   UNL     1       4.059  -2.056  -0.618  0.00  0.00    +0.140 HD
ENDBRANCH  22  24
ENDBRANCH  18  20
TORSDOF 2
