REMARK  Name = ZINC63350895
REMARK  4 active torsions:
REMARK  status: ('A' for Active; 'I' for Inactive)
REMARK    1  A    between atoms: C_1  and  O_2
REMARK    2  A    between atoms: O_2  and  C_3
REMARK    3  A    between atoms: C_12  and  C_13
REMARK    4  A    between atoms: N_14  and  N_15
REMARK                            x       y       z     vdW  Elec       q    Type
REMARK                         _______ _______ _______ _____ _____    ______ ____
ROOT
ATOM      1  N   UNL     1      -1.169  -3.041   1.916  0.00  0.00    -0.183 N 
ATOM      2  C   UNL     1      -1.126  -4.514   1.872  0.00  0.00    +0.230 C 
ATOM      3  C   UNL     1      -0.827  -5.030   3.263  0.00  0.00    +0.236 C 
ATOM      4  O   UNL     1      -0.036  -5.931   3.450  0.00  0.00    -0.274 OA
ATOM      5  N   UNL     1      -1.493  -4.431   4.304  0.00  0.00    -0.286 N 
ATOM      6  C   UNL     1      -1.084  -4.800   5.651  0.00  0.00    +0.137 C 
ATOM      7  C   UNL     1      -2.171  -4.492   6.681  0.00  0.00    +0.124 C 
ATOM      8  C   UNL     1      -2.671  -3.087   6.353  0.00  0.00    -0.035 C 
ATOM      9  C   UNL     1      -2.432  -2.338   7.421  0.00  0.00    -0.001 A 
ATOM     10  C   UNL     1      -2.716  -0.923   7.708  0.00  0.00    +0.010 A 
ATOM     11  C   UNL     1      -2.325  -0.468   8.928  0.00  0.00    +0.001 A 
ATOM     12  C   UNL     1      -1.687  -1.270   9.880  0.00  0.00    +0.002 A 
ATOM     13  C   UNL     1      -1.387  -2.581   9.700  0.00  0.00    +0.026 A 
ATOM     14  C   UNL     1      -1.751  -3.174   8.456  0.00  0.00    +0.043 A 
ATOM     15  N   UNL     1      -1.596  -4.411   8.030  0.00  0.00    -0.376 N 
ATOM     16  C   UNL     1      -3.270  -2.766   5.012  0.00  0.00    +0.065 C 
ATOM     17  C   UNL     1      -2.485  -3.448   3.922  0.00  0.00    +0.168 C 
ATOM     18  C   UNL     1      -1.874  -2.478   2.942  0.00  0.00    +0.256 C 
ATOM     19  O   UNL     1      -2.003  -1.277   3.054  0.00  0.00    -0.272 OA
ATOM     20  H   UNL     1      -1.176  -5.141   8.510  0.00  0.00    +0.160 HD
ENDROOT
BRANCH   1  22
ATOM     21  C   UNL     1       0.058  -2.823  -0.064  0.00  0.00    +0.142 C 
ATOM     22  N   UNL     1      -0.514  -2.258   0.957  0.00  0.00    -0.184 NA
BRANCH  21  32
ATOM     23  C   UNL     1       0.609  -0.605  -1.051  0.00  0.00    +0.129 A 
ATOM     24  C   UNL     1       1.179   0.173  -2.058  0.00  0.00    +0.047 A 
ATOM     25  C   UNL     1       1.785  -0.387  -3.139  0.00  0.00    +0.012 A 
ATOM     26  C   UNL     1       1.858  -1.784  -3.279  0.00  0.00    -0.017 A 
ATOM     27  C   UNL     1       2.482  -2.373  -4.392  0.00  0.00    +0.008 A 
ATOM     28  C   UNL     1       2.535  -3.730  -4.495  0.00  0.00    +0.001 A 
ATOM     29  C   UNL     1       1.979  -4.546  -3.513  0.00  0.00    +0.001 A 
ATOM     30  C   UNL     1       1.365  -4.008  -2.421  0.00  0.00    +0.009 A 
ATOM     31  C   UNL     1       1.294  -2.616  -2.282  0.00  0.00    -0.006 A 
ATOM     32  C   UNL     1       0.651  -1.997  -1.125  0.00  0.00    +0.044 A 
BRANCH  23  34
ATOM     33  C   UNL     1       0.006   1.426   0.026  0.00  0.00    +0.277 C 
ATOM     34  O   UNL     1       0.015  -0.003   0.011  0.00  0.00    -0.494 OA
ENDBRANCH  23  34
ENDBRANCH  21  32
ENDBRANCH   1  22
TORSDOF 3
