REMARK  Name = ZINC47516550
REMARK  8 active torsions:
REMARK  status: ('A' for Active; 'I' for Inactive)
REMARK    1  A    between atoms: C_1  and  C_2
REMARK    2  A    between atoms: C_10  and  C_11
REMARK    3  A    between atoms: C_11  and  C_13
REMARK    4  A    between atoms: C_11  and  N_14
REMARK    5  A    between atoms: N_17  and  C_18
REMARK    6  A    between atoms: C_23  and  S_24
REMARK    7  A    between atoms: S_24  and  C_25
REMARK    8  A    between atoms: C_25  and  C_26
REMARK                            x       y       z     vdW  Elec       q    Type
REMARK                         _______ _______ _______ _____ _____    ______ ____
ROOT
ATOM      1  N   UNL     1      -0.941  -1.138   3.268  0.00  0.00    -0.290 N 
ATOM      2  C   UNL     1      -1.478  -0.633   4.396  0.00  0.00    +0.304 C 
ATOM      3  O   UNL     1      -1.172   0.483   4.769  0.00  0.00    -0.252 OA
ATOM      4  N   UNL     1      -2.355  -1.366   5.111  0.00  0.00    -0.268 N 
ATOM      5  H   UNL     1      -1.185  -2.028   2.970  0.00  0.00    +0.151 HD
ATOM      6  H   UNL     1      -2.649  -2.229   4.780  0.00  0.00    +0.156 HD
ENDROOT
BRANCH   4   7
ATOM      7  C   UNL     1      -2.842  -0.880   6.333  0.00  0.00    +0.048 A 
ATOM      8  C   UNL     1      -3.059   0.478   6.504  0.00  0.00    +0.024 A 
ATOM      9  C   UNL     1      -3.539   0.955   7.710  0.00  0.00    +0.002 A 
ATOM     10  C   UNL     1      -3.805   0.081   8.748  0.00  0.00    +0.001 A 
ATOM     11  C   UNL     1      -3.592  -1.275   8.586  0.00  0.00    +0.016 A 
ATOM     12  C   UNL     1      -3.116  -1.764   7.377  0.00  0.00    +0.030 A 
BRANCH  12  13
ATOM     13  S   UNL     1      -2.852  -3.493   7.165  0.00  0.00    -0.114 S 
BRANCH  13  14
ATOM     14  C   UNL     1      -3.339  -4.210   8.758  0.00  0.00    +0.169 C 
BRANCH  14  15
ATOM     15  C   UNL     1      -3.159  -5.705   8.712  0.00  0.00    +0.221 C 
ATOM     16  O   UNL     1      -2.743  -6.235   7.703  0.00  0.00    -0.275 OA
ATOM     17  N   UNL     1      -3.460  -6.454   9.791  0.00  0.00    -0.329 N 
ATOM     18  H   UNL     1      -3.792  -6.030  10.598  0.00  0.00    +0.145 HD
ATOM     19  H   UNL     1      -3.344  -7.417   9.761  0.00  0.00    +0.145 HD
ENDBRANCH  14  15
ENDBRANCH  13  14
ENDBRANCH  12  13
ENDBRANCH   4   7
BRANCH   1  20
ATOM     20  C   UNL     1       0.012  -0.342   2.491  0.00  0.00    +0.138 C 
ATOM     21  C   UNL     1       1.418  -0.524   3.067  0.00  0.00    +0.036 C 
BRANCH  20  31
ATOM     22  C   UNL     1      -0.054   1.523   0.006  0.00  0.00    +0.048 C 
ATOM     23  C   UNL     1      -0.033   0.017  -0.009  0.00  0.00    +0.000 A 
ATOM     24  C   UNL     1      -0.034  -0.854  -1.191  0.00  0.00    +0.023 A 
ATOM     25  C   UNL     1      -0.053  -0.629  -2.567  0.00  0.00    +0.012 A 
ATOM     26  C   UNL     1      -0.048  -1.692  -3.427  0.00  0.00    +0.001 A 
ATOM     27  C   UNL     1      -0.025  -2.991  -2.939  0.00  0.00    +0.004 A 
ATOM     28  C   UNL     1      -0.006  -3.232  -1.582  0.00  0.00    +0.047 A 
ATOM     29  C   UNL     1      -0.011  -2.166  -0.690  0.00  0.00    +0.136 A 
ATOM     30  O   UNL     1       0.003  -2.082   0.655  0.00  0.00    -0.458 OA
ATOM     31  C   UNL     1      -0.005  -0.798   1.055  0.00  0.00    +0.129 A 
ENDBRANCH  20  31
ENDBRANCH   1  20
TORSDOF 6
