REMARK  Name = ZINC06732665
REMARK  7 active torsions:
REMARK  status: ('A' for Active; 'I' for Inactive)
REMARK    1  A    between atoms: C_1  and  C_2
REMARK    2  A    between atoms: C_2  and  O_3
REMARK    3  A    between atoms: O_3  and  C_4
REMARK    4  A    between atoms: C_17  and  C_20
REMARK    5  A    between atoms: C_23  and  C_26
REMARK    6  A    between atoms: C_26  and  O_28
REMARK    7  A    between atoms: O_28  and  C_29
REMARK                            x       y       z     vdW  Elec       q    Type
REMARK                         _______ _______ _______ _____ _____    ______ ____
ROOT
ATOM      1  C   UNL     1      -1.497  -1.836   0.006  0.00  0.00    +0.403 C 
ATOM      2  O   UNL     1      -0.523  -2.563  -0.007  0.00  0.00    -0.226 OA
ATOM      3  N   UNL     1      -2.735  -2.368   0.015  0.00  0.00    -0.262 N 
ATOM      4  C   UNL     1      -2.939  -3.824   0.016  0.00  0.00    +0.116 C 
ATOM      5  C   UNL     1      -3.619  -4.246   1.320  0.00  0.00    +0.056 C 
ATOM      6  C   UNL     1      -4.802  -3.328   1.588  0.00  0.00    -0.020 A 
ATOM      7  C   UNL     1      -4.905  -2.118   0.995  0.00  0.00    +0.013 A 
ATOM      8  S   UNL     1      -6.418  -1.433   1.610  0.00  0.00    -0.076 S 
ATOM      9  C   UNL     1      -6.898  -2.674   2.602  0.00  0.00    +0.080 A 
ATOM     10  C   UNL     1      -5.903  -3.654   2.481  0.00  0.00    +0.068 A 
ATOM     11  C   UNL     1      -6.072  -4.905   3.255  0.00  0.00    +0.248 C 
ATOM     12  O   UNL     1      -5.351  -5.869   3.069  0.00  0.00    -0.270 OA
ATOM     13  N   UNL     1      -7.058  -4.932   4.177  0.00  0.00    -0.289 N 
ATOM     14  C   UNL     1      -7.844  -3.761   4.550  0.00  0.00    +0.190 C 
ATOM     15  N   UNL     1      -7.992  -2.831   3.417  0.00  0.00    -0.316 N 
ATOM     16  C   UNL     1      -3.937  -1.510   0.032  0.00  0.00    +0.153 C 
ATOM     17  H   UNL     1      -7.255  -5.776   4.614  0.00  0.00    +0.151 HD
ATOM     18  H   UNL     1      -8.821  -2.355   3.254  0.00  0.00    +0.149 HD
ENDROOT
BRANCH  14  19
ATOM     19  C   UNL     1      -7.156  -3.047   5.685  0.00  0.00    -0.009 A 
ATOM     20  C   UNL     1      -7.296  -1.678   5.823  0.00  0.00    +0.008 A 
ATOM     21  C   UNL     1      -6.669  -1.018   6.860  0.00  0.00    +0.015 A 
ATOM     22  C   UNL     1      -5.892  -1.735   7.771  0.00  0.00    +0.059 A 
ATOM     23  C   UNL     1      -5.755  -3.117   7.627  0.00  0.00    +0.015 A 
ATOM     24  C   UNL     1      -6.392  -3.765   6.588  0.00  0.00    +0.008 A 
BRANCH  22  25
ATOM     25  C   UNL     1      -5.218  -1.035   8.884  0.00  0.00    +0.339 C 
ATOM     26  O   UNL     1      -5.338   0.167   9.007  0.00  0.00    -0.245 OA
BRANCH  25  27
ATOM     27  O   UNL     1      -4.468  -1.731   9.761  0.00  0.00    -0.464 OA
ATOM     28  C   UNL     1      -3.845  -0.990  10.812  0.00  0.00    +0.280 C 
ENDBRANCH  25  27
ENDBRANCH  22  25
ENDBRANCH  14  19
BRANCH   1  29
ATOM     29  O   UNL     1      -1.339  -0.499   0.012  0.00  0.00    -0.451 OA
BRANCH  29  31
ATOM     30  C   UNL     1      -0.019   1.526   0.010  0.00  0.00    +0.048 C 
ATOM     31  C   UNL     1       0.002  -0.004   0.002  0.00  0.00    +0.230 C 
ENDBRANCH  29  31
ENDBRANCH   1  29
TORSDOF 5
