REMARK  Name = ZINC05480345
REMARK  4 active torsions:
REMARK  status: ('A' for Active; 'I' for Inactive)
REMARK    1  A    between atoms: N_8  and  N_9
REMARK    2  A    between atoms: C_10  and  C_12
REMARK    3  A    between atoms: N_14  and  C_15
REMARK    4  A    between atoms: C_15  and  C_16
REMARK                            x       y       z     vdW  Elec       q    Type
REMARK                         _______ _______ _______ _____ _____    ______ ____
ROOT
ATOM      1  N   UNL     1      -0.421   0.332   5.785  0.00  0.00    -0.199 N 
ATOM      2  C   UNL     1      -1.290   0.924   6.629  0.00  0.00    +0.318 C 
ATOM      3  O   UNL     1      -1.088   2.058   7.010  0.00  0.00    -0.263 OA
ATOM      4  H   UNL     1      -0.582  -0.575   5.480  0.00  0.00    +0.178 HD
ENDROOT
BRANCH   1  12
ATOM      5  C   UNL     1      -0.019   1.526   0.010  0.00  0.00    +0.000 C 
ATOM      6  C   UNL     1       1.417   2.055  -0.000  0.00  0.00    +0.000 C 
ATOM      7  C   UNL     1       1.601   3.054   1.144  0.00  0.00    +0.000 C 
ATOM      8  C   UNL     1       2.782   2.620   2.014  0.00  0.00    +0.000 C 
ATOM      9  C   UNL     1       2.340   2.554   3.478  0.00  0.00    +0.006 C 
ATOM     10  C   UNL     1       2.762   1.211   4.077  0.00  0.00    +0.052 C 
ATOM     11  C   UNL     1       1.540   0.464   4.547  0.00  0.00    +0.037 C 
ATOM     12  N   UNL     1       0.715   1.026   5.348  0.00  0.00    -0.189 NA
ATOM     13  C   UNL     1       1.290  -0.944   4.073  0.00  0.00    +0.052 C 
ATOM     14  C   UNL     1      -0.118  -1.041   3.482  0.00  0.00    +0.006 C 
ATOM     15  C   UNL     1      -0.028  -1.479   2.019  0.00  0.00    +0.000 C 
ATOM     16  C   UNL     1      -0.860  -0.532   1.151  0.00  0.00    +0.000 C 
ATOM     17  C   UNL     1       0.002  -0.004   0.002  0.00  0.00    +0.000 C 
ENDBRANCH   1  12
BRANCH   2  18
ATOM     18  C   UNL     1      -2.500   0.184   7.094  0.00  0.00    +0.301 C 
ATOM     19  O   UNL     1      -2.701  -0.951   6.713  0.00  0.00    -0.265 OA
ATOM     20  N   UNL     1      -3.369   0.776   7.937  0.00  0.00    -0.305 N 
ATOM     21  H   UNL     1      -3.208   1.682   8.242  0.00  0.00    +0.149 HD
BRANCH  20  22
ATOM     22  C   UNL     1      -4.556   0.050   8.394  0.00  0.00    +0.136 C 
BRANCH  22  23
ATOM     23  C   UNL     1      -5.368   0.941   9.336  0.00  0.00    +0.135 C 
ATOM     24  C   UNL     1      -6.612   0.179   9.858  0.00  0.00    +0.035 C 
ATOM     25  C   UNL     1      -6.883   0.933  11.188  0.00  0.00    +0.031 C 
ATOM     26  C   UNL     1      -5.457   1.294  11.657  0.00  0.00    +0.160 C 
ATOM     27  O   UNL     1      -4.600   1.258  10.508  0.00  0.00    -0.375 OA
ENDBRANCH  22  23
ENDBRANCH  20  22
ENDBRANCH   2  18
TORSDOF 4
