REMARK  Name = ZINC02105020
REMARK  8 active torsions:
REMARK  status: ('A' for Active; 'I' for Inactive)
REMARK    1  A    between atoms: C_1  and  O_2
REMARK    2  A    between atoms: O_2  and  C_3
REMARK    3  A    between atoms: C_7  and  C_11
REMARK    4  A    between atoms: C_8  and  O_9
REMARK    5  A    between atoms: O_9  and  C_10
REMARK    6  A    between atoms: N_30  and  C_33
REMARK    7  A    between atoms: C_33  and  C_34
REMARK    8  A    between atoms: C_34  and  C_35
REMARK                            x       y       z     vdW  Elec       q    Type
REMARK                         _______ _______ _______ _____ _____    ______ ____
ROOT
ATOM      1  C   UNL     1       0.222   9.925   1.812  0.00  0.00    +0.158 C 
ATOM      2  C   UNL     1      -0.719   9.805   0.635  0.00  0.00    +0.046 A 
ATOM      3  C   UNL     1      -1.312   8.648   0.269  0.00  0.00    -0.015 A 
ATOM      4  C   UNL     1      -2.133   8.940  -0.888  0.00  0.00    +0.003 A 
ATOM      5  C   UNL     1      -2.965   8.147  -1.685  0.00  0.00    +0.010 A 
ATOM      6  C   UNL     1      -3.608   8.772  -2.725  0.00  0.00    +0.001 A 
ATOM      7  C   UNL     1      -3.449  10.124  -2.982  0.00  0.00    +0.002 A 
ATOM      8  C   UNL     1      -2.631  10.932  -2.211  0.00  0.00    +0.026 A 
ATOM      9  C   UNL     1      -1.966  10.325  -1.148  0.00  0.00    +0.047 A 
ATOM     10  N   UNL     1      -1.103  10.813  -0.209  0.00  0.00    -0.356 N 
ATOM     11  H   UNL     1      -0.807  11.734  -0.149  0.00  0.00    +0.166 HD
ATOM     12  C   UNL     1      -1.119   7.326   0.968  0.00  0.00    +0.069 C 
ATOM     13  C   UNL     1      -0.534   7.586   2.363  0.00  0.00    +0.167 C 
ATOM     14  N   UNL     1       0.557   8.554   2.253  0.00  0.00    -0.276 N 
ATOM     15  C   UNL     1       1.827   8.257   2.538  0.00  0.00    +0.234 C 
ATOM     16  O   UNL     1       2.664   9.114   2.347  0.00  0.00    -0.274 OA
ATOM     17  C   UNL     1       2.285   6.944   3.081  0.00  0.00    +0.203 C 
ATOM     18  N   UNL     1       1.181   6.019   3.281  0.00  0.00    -0.291 N 
ATOM     19  C   UNL     1      -0.083   6.296   2.968  0.00  0.00    +0.237 C 
ATOM     20  O   UNL     1      -0.921   5.448   3.187  0.00  0.00    -0.274 OA
ENDROOT
BRANCH   1  25
ATOM     21  C   UNL     1       3.266  12.174   1.889  0.00  0.00    +0.162 A 
ATOM     22  C   UNL     1       3.781  11.976   0.618  0.00  0.00    +0.049 A 
ATOM     23  C   UNL     1       3.145  11.118  -0.260  0.00  0.00    +0.004 A 
ATOM     24  C   UNL     1       1.998  10.452   0.129  0.00  0.00    +0.010 A 
ATOM     25  C   UNL     1       1.476  10.649   1.393  0.00  0.00    +0.024 A 
ATOM     26  C   UNL     1       2.108  11.507   2.278  0.00  0.00    +0.167 A 
BRANCH  21  28
ATOM     27  C   UNL     1       5.074  13.667   2.285  0.00  0.00    +0.277 C 
ATOM     28  O   UNL     1       3.890  13.017   2.753  0.00  0.00    -0.491 OA
ENDBRANCH  21  28
BRANCH  26  29
ATOM     29  O   UNL     1       1.599  11.698   3.525  0.00  0.00    -0.491 OA
ATOM     30  C   UNL     1       2.059  10.821   4.555  0.00  0.00    +0.277 C 
ENDBRANCH  26  29
ENDBRANCH   1  25
BRANCH  18  31
ATOM     31  C   UNL     1       1.476   4.709   3.866  0.00  0.00    +0.112 C 
BRANCH  31  32
ATOM     32  C   UNL     1       1.787   3.710   2.750  0.00  0.00    +0.049 C 
BRANCH  32  33
ATOM     33  C   UNL     1       2.090   2.362   3.352  0.00  0.00    -0.072 C 
ATOM     34  C   UNL     1       1.122   1.506   3.443  0.00  0.00    -0.028 C 
ATOM     35  C   UNL     1       1.268   0.132   4.027  0.00  0.00    +0.027 C 
ATOM     36  C   UNL     1       2.746  -0.259   4.095  0.00  0.00    +0.004 C 
ATOM     37  C   UNL     1       3.521   0.890   4.752  0.00  0.00    +0.005 C 
ATOM     38  C   UNL     1       3.494   2.095   3.809  0.00  0.00    +0.030 C 
ENDBRANCH  32  33
ENDBRANCH  31  32
ENDBRANCH  18  31
TORSDOF 6
