REMARK  Name = ZINC09769062
REMARK  8 active torsions:
REMARK  status: ('A' for Active; 'I' for Inactive)
REMARK    1  A    between atoms: C_1  and  C_2
REMARK    2  A    between atoms: C_2  and  C_3
REMARK    3  A    between atoms: C_2  and  C_4
REMARK    4  A    between atoms: C_4  and  N_5
REMARK    5  A    between atoms: C_9  and  C_10
REMARK    6  A    between atoms: C_9  and  N_11
REMARK    7  A    between atoms: N_11  and  C_12
REMARK    8  A    between atoms: C_17  and  C_18
REMARK                            x       y       z     vdW  Elec       q    Type
REMARK                         _______ _______ _______ _____ _____    ______ ____
ROOT
ATOM      1  N   UNL     1      -0.880  -2.118  -0.104  0.00  0.00    -0.249 N 
ATOM      2  C   UNL     1      -1.069  -2.636  -1.336  0.00  0.00    +0.259 C 
ATOM      3  O   UNL     1      -1.055  -1.924  -2.322  0.00  0.00    -0.269 OA
ATOM      4  C   UNL     1      -1.293  -4.089  -1.454  0.00  0.00    +0.116 C 
ATOM      5  C   UNL     1      -1.494  -4.690  -2.681  0.00  0.00    +0.022 C 
ATOM      6  C   UNL     1      -1.587  -6.191  -2.779  0.00  0.00    +0.061 C 
ATOM      7  C   UNL     1      -1.293  -4.871  -0.204  0.00  0.00    +0.256 C 
ATOM      8  O   UNL     1      -1.471  -6.075  -0.221  0.00  0.00    -0.270 OA
ATOM      9  N   UNL     1      -1.090  -4.217   0.958  0.00  0.00    -0.263 N 
ATOM     10  C   UNL     1      -0.887  -2.892   0.990  0.00  0.00    +0.146 C 
ATOM     11  S   UNL     1      -0.631  -2.148   2.510  0.00  0.00    -0.018 S 
ATOM     12  H   UNL     1      -1.087  -4.717   1.789  0.00  0.00    +0.157 HD
ENDROOT
BRANCH   5  13
ATOM     13  N   UNL     1      -1.608  -3.933  -3.794  0.00  0.00    -0.317 N 
ATOM     14  H   UNL     1      -2.303  -3.259  -3.853  0.00  0.00    +0.152 HD
BRANCH  13  15
ATOM     15  C   UNL     1      -0.727  -4.119  -4.855  0.00  0.00    +0.043 A 
ATOM     16  C   UNL     1       0.350  -4.985  -4.724  0.00  0.00    +0.024 A 
ATOM     17  C   UNL     1       1.223  -5.168  -5.778  0.00  0.00    +0.002 A 
ATOM     18  C   UNL     1       1.031  -4.491  -6.972  0.00  0.00    +0.001 A 
ATOM     19  C   UNL     1      -0.033  -3.628  -7.120  0.00  0.00    +0.015 A 
ATOM     20  C   UNL     1      -0.927  -3.437  -6.065  0.00  0.00    +0.058 A 
BRANCH  20  21
ATOM     21  C   UNL     1      -2.072  -2.519  -6.219  0.00  0.00    +0.243 C 
ATOM     22  O   UNL     1      -2.790  -2.278  -5.268  0.00  0.00    -0.270 OA
ATOM     23  N   UNL     1      -2.321  -1.947  -7.414  0.00  0.00    -0.325 N 
ATOM     24  H   UNL     1      -1.748  -2.139  -8.172  0.00  0.00    +0.145 HD
ATOM     25  H   UNL     1      -3.074  -1.344  -7.515  0.00  0.00    +0.145 HD
ENDBRANCH  20  21
ENDBRANCH  13  15
ENDBRANCH   5  13
BRANCH   1  26
ATOM     26  C   UNL     1      -0.655  -0.678   0.039  0.00  0.00    +0.118 C 
BRANCH  26  28
ATOM     27  C   UNL     1       1.070   1.129  -0.024  0.00  0.00    +0.009 C 
ATOM     28  C   UNL     1       0.844  -0.385  -0.048  0.00  0.00    +0.001 C 
ATOM     29  C   UNL     1       1.560  -1.027   1.142  0.00  0.00    +0.009 C 
ENDBRANCH  26  28
ENDBRANCH   1  26
TORSDOF 5
