REMARK  Name = ZINC21737378
REMARK  6 active torsions:
REMARK  status: ('A' for Active; 'I' for Inactive)
REMARK    1  A    between atoms: C_1  and  C_2
REMARK    2  A    between atoms: C_3  and  C_12
REMARK    3  A    between atoms: C_12  and  O_14
REMARK    4  A    between atoms: O_14  and  C_15
REMARK    5  A    between atoms: C_15  and  C_16
REMARK    6  A    between atoms: C_18  and  N_26
REMARK                            x       y       z     vdW  Elec       q    Type
REMARK                         _______ _______ _______ _____ _____    ______ ____
ROOT
ATOM      1  O   UNL     1       4.323   3.899   1.150  0.00  0.00    -0.456 OA
ENDROOT
BRANCH   1   2
ATOM      2  C   UNL     1       3.645   4.002  -0.011  0.00  0.00    +0.342 C 
ATOM      3  O   UNL     1       4.237   3.920  -1.070  0.00  0.00    -0.245 OA
BRANCH   2   6
ATOM      4  C   UNL     1       2.210   6.762   0.017  0.00  0.00    +0.064 C 
ATOM      5  C   UNL     1       1.541   5.411   0.016  0.00  0.00    +0.028 A 
ATOM      6  C   UNL     1       2.193   4.212   0.004  0.00  0.00    +0.087 A 
ATOM      7  C   UNL     1       1.149   3.170   0.008  0.00  0.00    +0.014 A 
ATOM      8  C   UNL     1       1.173   1.778   0.000  0.00  0.00    +0.011 A 
ATOM      9  C   UNL     1      -0.013   1.076   0.008  0.00  0.00    +0.001 A 
ATOM     10  C   UNL     1      -1.225   1.750   0.017  0.00  0.00    +0.002 A 
ATOM     11  C   UNL     1      -1.263   3.127   0.032  0.00  0.00    +0.026 A 
ATOM     12  C   UNL     1      -0.076   3.854   0.024  0.00  0.00    +0.047 A 
ATOM     13  N   UNL     1       0.203   5.205   0.028  0.00  0.00    -0.357 N 
ATOM     14  H   UNL     1      -0.485   6.063   0.039  0.00  0.00    +0.166 HD
ENDBRANCH   2   6
ENDBRANCH   1   2
BRANCH   1  15
ATOM     15  C   UNL     1       5.757   3.691   1.060  0.00  0.00    +0.271 C 
BRANCH  15  16
ATOM     16  C   UNL     1       6.340   3.601   2.447  0.00  0.00    +0.034 A 
ATOM     17  C   UNL     1       5.518   3.716   3.550  0.00  0.00    +0.043 A 
ATOM     18  C   UNL     1       6.052   3.634   4.823  0.00  0.00    +0.127 A 
ATOM     19  C   UNL     1       7.410   3.437   4.993  0.00  0.00    +0.042 A 
ATOM     20  C   UNL     1       8.237   3.322   3.892  0.00  0.00    +0.022 A 
ATOM     21  C   UNL     1       7.703   3.397   2.615  0.00  0.00    +0.135 A 
ATOM     22  O   UNL     1       8.503   3.273   1.523  0.00  0.00    -0.465 OA
ATOM     23  C   UNL     1       9.909   3.432   1.731  0.00  0.00    +0.394 C 
ATOM     24  O   UNL     1      10.295   2.645   2.864  0.00  0.00    -0.339 OA
ATOM     25  C   UNL     1       9.718   3.115   4.089  0.00  0.00    +0.202 C 
BRANCH  18  26
ATOM     26  N   UNL     1       5.169   3.756   6.004  0.00  0.00    +0.056 N 
ATOM     27  O   UNL     1       3.973   3.930   5.855  0.00  0.00    -0.126 OA
ATOM     28  O   UNL     1       5.639   3.683   7.126  0.00  0.00    -0.126 OA
ENDBRANCH  18  26
ENDBRANCH  15  16
ENDBRANCH   1  15
TORSDOF 5
