REMARK  Name = ZINC39729393
REMARK  3 active torsions:
REMARK  status: ('A' for Active; 'I' for Inactive)
REMARK    1  A    between atoms: C_4  and  C_7
REMARK    2  A    between atoms: N_16  and  C_17
REMARK    3  A    between atoms: C_17  and  C_18
REMARK                            x       y       z     vdW  Elec       q    Type
REMARK                         _______ _______ _______ _____ _____    ______ ____
ROOT
ATOM      1  C   UNL     1       3.498  -0.772   0.018  0.00  0.00    -0.005 C 
ATOM      2  C   UNL     1       3.876  -1.257   1.414  0.00  0.00    -0.047 A 
ATOM      3  C   UNL     1       3.583  -0.565   2.586  0.00  0.00    +0.010 A 
ATOM      4  C   UNL     1       3.955  -1.073   3.784  0.00  0.00    +0.045 A 
ATOM      5  S   UNL     1       4.760  -2.595   3.305  0.00  0.00    -0.101 S 
ATOM      6  C   UNL     1       4.542  -2.438   1.556  0.00  0.00    -0.010 A 
ATOM      7  C   UNL     1       4.970  -3.353   0.455  0.00  0.00    +0.024 C 
ATOM      8  C   UNL     1       4.839  -2.579  -0.868  0.00  0.00    -0.072 C 
ATOM      9  N   UNL     1       3.530  -1.913  -0.905  0.00  0.00    +0.393 N 
ATOM     10  H   UNL     1       2.815  -2.574  -0.640  0.00  0.00    -0.080 HD
ENDROOT
BRANCH   1  14
ATOM     11  C   UNL     1      -0.431   0.900   0.095  0.00  0.00    +0.000 A 
ATOM     12  C   UNL     1       0.673   1.730   0.119  0.00  0.00    +0.000 A 
ATOM     13  C   UNL     1       1.945   1.189   0.095  0.00  0.00    +0.002 A 
ATOM     14  C   UNL     1       2.112  -0.182   0.046  0.00  0.00    -0.057 A 
ATOM     15  C   UNL     1       1.007  -1.012   0.023  0.00  0.00    +0.002 A 
ATOM     16  C   UNL     1      -0.265  -0.471   0.046  0.00  0.00    +0.000 A 
ENDBRANCH   1  14
BRANCH   9  17
ATOM     17  C   UNL     1       3.264  -1.437  -2.269  0.00  0.00    +0.020 C 
BRANCH  17  18
ATOM     18  C   UNL     1       3.173  -2.616  -3.204  0.00  0.00    +0.201 C 
ATOM     19  O   UNL     1       3.315  -3.742  -2.775  0.00  0.00    -0.278 OA
ATOM     20  N   UNL     1       2.934  -2.420  -4.516  0.00  0.00    -0.286 N 
ATOM     21  C   UNL     1       1.908  -3.012  -5.095  0.00  0.00    +0.050 C 
ATOM     22  C   UNL     1       0.942  -3.780  -4.281  0.00  0.00    +0.054 C 
ATOM     23  C   UNL     1      -0.111  -4.385  -4.886  0.00  0.00    +0.097 C 
ATOM     24  N   UNL     1      -1.157  -5.146  -4.454  0.00  0.00    -0.190 NA
ATOM     25  C   UNL     1      -1.887  -5.469  -5.497  0.00  0.00    +0.369 C 
ATOM     26  O   UNL     1      -3.010  -6.224  -5.438  0.00  0.00    -0.243 OA
ATOM     27  N   UNL     1      -1.379  -4.956  -6.631  0.00  0.00    -0.190 NA
ATOM     28  C   UNL     1      -0.286  -4.274  -6.348  0.00  0.00    +0.096 C 
ATOM     29  C   UNL     1       0.678  -3.511  -7.147  0.00  0.00    +0.047 C 
ATOM     30  C   UNL     1       1.721  -2.904  -6.548  0.00  0.00    +0.041 C 
ATOM     31 BR   UNL     1       2.955  -1.914  -7.585  0.00  0.00    -0.048 Br
ATOM     32  H   UNL     1       3.517  -1.843  -5.034  0.00  0.00    +0.155 HD
ENDBRANCH  17  18
ENDBRANCH   9  17
TORSDOF 3
