REMARK  Name = ZINC39674341
REMARK  10 active torsions:
REMARK  status: ('A' for Active; 'I' for Inactive)
REMARK    1  A    between atoms: C_1  and  C_2
REMARK    2  A    between atoms: C_2  and  O_3
REMARK    3  A    between atoms: O_3  and  C_4
REMARK    4  A    between atoms: C_9  and  C_10
REMARK    5  A    between atoms: C_14  and  C_23
REMARK    6  A    between atoms: N_25  and  C_26
REMARK    7  A    between atoms: C_26  and  C_28
REMARK    8  A    between atoms: C_26  and  C_29
REMARK    9  A    between atoms: C_30  and  C_36
REMARK   10  A    between atoms: C_33  and  C_35
REMARK                            x       y       z     vdW  Elec       q    Type
REMARK                         _______ _______ _______ _____ _____    ______ ____
ROOT
ATOM      1  C   UNL     1      -4.634  -0.534   0.558  0.00  0.00    +0.250 C 
ATOM      2  O   UNL     1      -4.850   0.659   0.647  0.00  0.00    -0.270 OA
ATOM      3  N   UNL     1      -5.661  -1.398   0.434  0.00  0.00    -0.296 N 
ATOM      4  C   UNL     1      -5.606  -2.878   0.415  0.00  0.00    +0.121 C 
ATOM      5  C   UNL     1      -6.841  -3.326   1.228  0.00  0.00    +0.100 C 
ATOM      6  C   UNL     1      -7.819  -2.143   1.139  0.00  0.00    -0.004 C 
ATOM      7  C   UNL     1      -7.103  -1.081   0.293  0.00  0.00    +0.115 C 
ATOM      8  C   UNL     1      -9.114  -2.578   0.458  0.00  0.00    -0.010 C 
ATOM      9  C   UNL     1     -10.092  -1.400   0.433  0.00  0.00    -0.082 C 
ATOM     10  N   UNL     1     -10.364  -0.958   1.806  0.00  0.00    +0.379 N 
ATOM     11  C   UNL     1      -9.130  -0.454   2.422  0.00  0.00    -0.082 C 
ATOM     12  C   UNL     1      -8.111  -1.592   2.532  0.00  0.00    -0.010 C 
ATOM     13  H   UNL     1     -11.055  -0.223   1.791  0.00  0.00    -0.086 HD
ATOM     14  H   UNL     1     -10.715  -1.735   2.345  0.00  0.00    -0.086 HD
ENDROOT
BRANCH   1  20
ATOM     15  C   UNL     1      -2.279  -0.392   1.367  0.00  0.00    +0.133 A 
ATOM     16  C   UNL     1      -0.980  -0.877   1.390  0.00  0.00    +0.046 A 
ATOM     17  C   UNL     1      -0.642  -1.986   0.642  0.00  0.00    +0.004 A 
ATOM     18  C   UNL     1      -1.594  -2.624  -0.136  0.00  0.00    +0.001 A 
ATOM     19  C   UNL     1      -2.890  -2.156  -0.171  0.00  0.00    +0.017 A 
ATOM     20  C   UNL     1      -3.247  -1.037   0.586  0.00  0.00    +0.078 A 
BRANCH  15  21
ATOM     21  O   UNL     1      -2.612   0.699   2.101  0.00  0.00    -0.491 OA
BRANCH  21  23
ATOM     22  C   UNL     1      -2.134   2.511   3.628  0.00  0.00    +0.048 C 
ATOM     23  C   UNL     1      -1.573   1.304   2.873  0.00  0.00    +0.226 C 
ENDBRANCH  21  23
ENDBRANCH  15  21
ENDBRANCH   1  20
BRANCH   5  24
ATOM     24  C   UNL     1      -6.458  -3.586   2.663  0.00  0.00    +0.219 C 
ATOM     25  O   UNL     1      -5.563  -2.948   3.177  0.00  0.00    -0.275 OA
ATOM     26  N   UNL     1      -7.110  -4.527   3.374  0.00  0.00    -0.309 N 
ATOM     27  H   UNL     1      -7.825  -5.037   2.963  0.00  0.00    +0.149 HD
BRANCH  26  28
ATOM     28  C   UNL     1      -6.737  -4.780   4.768  0.00  0.00    +0.100 C 
ATOM     29  C   UNL     1      -5.568  -5.765   4.813  0.00  0.00    +0.033 C 
BRANCH  28  30
ATOM     30  C   UNL     1      -7.915  -5.364   5.505  0.00  0.00    -0.001 C 
ATOM     31  C   UNL     1      -8.488  -4.919   6.625  0.00  0.00    +0.063 C 
ATOM     32  N   UNL     1      -9.524  -5.711   6.982  0.00  0.00    -0.159 NA
ATOM     33  N   UNL     1      -9.727  -6.661   6.223  0.00  0.00    -0.180 NA
ATOM     34  C   UNL     1      -8.730  -6.593   5.141  0.00  0.00    +0.154 C 
ATOM     35  C   UNL     1      -7.851  -7.845   5.139  0.00  0.00    +0.039 C 
ATOM     36  C   UNL     1      -8.041  -3.699   7.388  0.00  0.00    +0.067 C 
ENDBRANCH  28  30
ENDBRANCH  26  28
ENDBRANCH   5  24
TORSDOF 6
