REMARK  Name = ZINC10760848
REMARK  7 active torsions:
REMARK  status: ('A' for Active; 'I' for Inactive)
REMARK    1  A    between atoms: C_1  and  C_2
REMARK    2  A    between atoms: N_11  and  C_15
REMARK    3  A    between atoms: C_15  and  C_16
REMARK    4  A    between atoms: C_16  and  O_18
REMARK    5  A    between atoms: O_18  and  C_19
REMARK    6  A    between atoms: C_19  and  C_20
REMARK    7  A    between atoms: C_26  and  C_29
REMARK                            x       y       z     vdW  Elec       q    Type
REMARK                         _______ _______ _______ _____ _____    ______ ____
ROOT
ATOM      1  C   UNL     1      -2.950   1.351   1.441  0.00  0.00    +0.326 C 
ATOM      2  O   UNL     1      -2.206   1.605   2.358  0.00  0.00    -0.249 OA
ENDROOT
BRANCH   1   3
ATOM      3  C   UNL     1      -2.482   1.526   0.020  0.00  0.00    +0.238 C 
BRANCH   3  13
ATOM      4  C   UNL     1       1.115   2.130  -2.491  0.00  0.00    +0.010 C 
ATOM      5  C   UNL     1       2.005   1.934  -1.261  0.00  0.00    +0.018 C 
ATOM      6  C   UNL     1       2.582   0.517  -1.270  0.00  0.00    +0.006 C 
ATOM      7  C   UNL     1       3.455   0.315  -0.029  0.00  0.00    +0.000 C 
ATOM      8  C   UNL     1       2.606   0.503   1.230  0.00  0.00    +0.003 C 
ATOM      9  C   UNL     1       2.028   1.921   1.248  0.00  0.00    +0.035 C 
ATOM     10  C   UNL     1       1.176   2.139   0.002  0.00  0.00    +0.115 C 
ATOM     11  C   UNL     1      -0.014   1.208   0.009  0.00  0.00    +0.247 C 
ATOM     12  O   UNL     1       0.002  -0.004   0.002  0.00  0.00    -0.273 OA
ATOM     13  N   UNL     1      -1.099   2.010   0.017  0.00  0.00    -0.213 N 
ATOM     14  C   UNL     1      -0.755   3.304   0.027  0.00  0.00    +0.310 C 
ATOM     15  O   UNL     1      -1.558   4.216   0.039  0.00  0.00    -0.252 OA
ATOM     16  N   UNL     1       0.580   3.481   0.015  0.00  0.00    -0.285 N 
ATOM     17  H   UNL     1       1.053   4.327   0.016  0.00  0.00    +0.151 HD
ENDBRANCH   3  13
ENDBRANCH   1   3
BRANCH   1  18
ATOM     18  O   UNL     1      -4.195   0.913   1.688  0.00  0.00    -0.454 OA
BRANCH  18  19
ATOM     19  C   UNL     1      -4.578   0.768   3.081  0.00  0.00    +0.328 C 
BRANCH  19  20
ATOM     20  C   UNL     1      -5.998   0.270   3.163  0.00  0.00    +0.256 C 
ATOM     21  O   UNL     1      -6.625   0.057   2.147  0.00  0.00    -0.272 OA
ATOM     22  N   UNL     1      -6.571   0.060   4.364  0.00  0.00    -0.266 N 
ATOM     23  C   UNL     1      -7.885  -0.401   4.439  0.00  0.00    +0.143 A 
ATOM     24  C   UNL     1      -8.469  -0.621   5.683  0.00  0.00    +0.082 A 
ATOM     25  C   UNL     1      -9.776  -1.074   5.743  0.00  0.00    +0.037 A 
ATOM     26  C   UNL     1     -10.452  -1.302   4.552  0.00  0.00    +0.074 A 
ATOM     27  C   UNL     1      -9.809  -1.068   3.353  0.00  0.00    +0.125 A 
ATOM     28  N   UNL     1      -8.564  -0.631   3.327  0.00  0.00    -0.238 NA
ATOM     29 CL   UNL     1      -7.572  -0.325   7.140  0.00  0.00    -0.080 Cl
ATOM     30  H   UNL     1      -6.069   0.230   5.177  0.00  0.00    +0.156 HD
BRANCH  26  31
ATOM     31  C   UNL     1     -11.874  -1.800   4.568  0.00  0.00    +0.419 C 
ATOM     32  F   UNL     1     -12.330  -1.951   3.254  0.00  0.00    -0.166 F 
ATOM     33  F   UNL     1     -11.928  -3.035   5.224  0.00  0.00    -0.166 F 
ATOM     34  F   UNL     1     -12.684  -0.879   5.240  0.00  0.00    -0.166 F 
ENDBRANCH  26  31
ENDBRANCH  19  20
ENDBRANCH  18  19
ENDBRANCH   1  18
TORSDOF 6
