REMARK  Name = ZINC49304603
REMARK  4 active torsions:
REMARK  status: ('A' for Active; 'I' for Inactive)
REMARK    1  A    between atoms: C_5  and  C_6
REMARK    2  A    between atoms: C_6  and  N_7
REMARK    3  A    between atoms: C_8  and  C_10
REMARK    4  A    between atoms: C_10  and  N_11
REMARK                            x       y       z     vdW  Elec       q    Type
REMARK                         _______ _______ _______ _____ _____    ______ ____
ROOT
ATOM      1  N   UNL     1      -1.544  -1.274  -1.371  0.00  0.00    -0.309 N 
ATOM      2  C   UNL     1      -2.564  -2.121  -1.612  0.00  0.00    +0.235 C 
ATOM      3  O   UNL     1      -3.161  -2.630  -0.688  0.00  0.00    -0.274 OA
ATOM      4  H   UNL     1      -1.067  -0.866  -2.111  0.00  0.00    +0.149 HD
ENDROOT
BRANCH   1   5
ATOM      5  C   UNL     1      -1.156  -0.969   0.008  0.00  0.00    +0.146 C 
BRANCH   5  10
ATOM      6  C   UNL     1      -0.016   1.351   0.009  0.00  0.00    +0.014 A 
ATOM      7  C   UNL     1       1.184   2.038   0.002  0.00  0.00    +0.028 A 
ATOM      8  C   UNL     1       2.343   1.335  -0.013  0.00  0.00    +0.078 A 
ATOM      9  S   UNL     1       1.753  -0.350  -0.017  0.00  0.00    -0.080 S 
ATOM     10  C   UNL     1       0.002  -0.004   0.002  0.00  0.00    +0.008 A 
ATOM     11 CL   UNL     1       3.977   1.921  -0.026  0.00  0.00    -0.076 Cl
ENDBRANCH   5  10
ENDBRANCH   1   5
BRANCH   2  12
ATOM     12  C   UNL     1      -2.964  -2.435  -3.031  0.00  0.00    +0.239 C 
BRANCH  12  13
ATOM     13  N   UNL     1      -4.090  -3.372  -3.026  0.00  0.00    -0.260 N 
ATOM     14  C   UNL     1      -5.276  -3.193  -3.644  0.00  0.00    +0.111 A 
ATOM     15  C   UNL     1      -6.038  -4.283  -3.397  0.00  0.00    +0.074 A 
ATOM     16  C   UNL     1      -5.293  -5.159  -2.601  0.00  0.00    +0.235 A 
ATOM     17  N   UNL     1      -4.122  -4.617  -2.382  0.00  0.00    -0.146 NA
ATOM     18  N   UNL     1      -5.748  -6.474  -2.098  0.00  0.00    +0.077 N 
ATOM     19  O   UNL     1      -6.855  -6.876  -2.370  0.00  0.00    -0.125 OA
ATOM     20  O   UNL     1      -5.012  -7.147  -1.414  0.00  0.00    -0.125 OA
ENDBRANCH  12  13
ENDBRANCH   2  12
TORSDOF 4
