REMARK  Name = ZINC65002258
REMARK  6 active torsions:
REMARK  status: ('A' for Active; 'I' for Inactive)
REMARK    1  A    between atoms: C_1  and  C_2
REMARK    2  A    between atoms: C_15  and  C_17
REMARK    3  A    between atoms: C_20  and  C_23
REMARK    4  A    between atoms: C_23  and  C_24
REMARK    5  A    between atoms: C_23  and  C_25
REMARK    6  A    between atoms: C_23  and  C_26
REMARK                            x       y       z     vdW  Elec       q    Type
REMARK                         _______ _______ _______ _____ _____    ______ ____
ROOT
ATOM      1  C   UNL     1      -0.019   1.526   0.010  0.00  0.00    +0.008 C 
ATOM      2  C   UNL     1       0.002  -0.004   0.002  0.00  0.00    -0.009 C 
ATOM      3  C   UNL     1       0.726  -0.501  -1.253  0.00  0.00    +0.008 C 
ATOM      4  C   UNL     1       0.535  -2.011  -1.398  0.00  0.00    +0.037 C 
ATOM      5  C   UNL     1       0.948  -2.689  -0.094  0.00  0.00    -0.023 A 
ATOM      6  C   UNL     1       1.031  -1.976   1.055  0.00  0.00    -0.004 A 
ATOM      7  S   UNL     1       1.536  -3.145   2.292  0.00  0.00    -0.073 S 
ATOM      8  C   UNL     1       1.635  -4.581   1.271  0.00  0.00    +0.116 A 
ATOM      9  C   UNL     1       1.270  -4.101  -0.008  0.00  0.00    +0.075 A 
ATOM     10  C   UNL     1       1.254  -5.051  -1.085  0.00  0.00    +0.260 A 
ATOM     11  O   UNL     1       0.952  -4.734  -2.223  0.00  0.00    -0.267 OA
ATOM     12  N   UNL     1       1.595  -6.320  -0.758  0.00  0.00    -0.306 N 
ATOM     13  H   UNL     1       1.598  -6.993  -1.456  0.00  0.00    +0.170 HD
ATOM     14  C   UNL     1       1.935  -6.693   0.509  0.00  0.00    +0.142 A 
ATOM     15  N   UNL     1       1.959  -5.842   1.524  0.00  0.00    -0.222 NA
ATOM     16  C   UNL     1       0.751  -0.516   1.241  0.00  0.00    +0.046 C 
ENDROOT
BRANCH  14  17
ATOM     17  C   UNL     1       2.290  -8.105   0.760  0.00  0.00    +0.017 A 
ATOM     18  C   UNL     1       2.281  -9.027  -0.288  0.00  0.00    +0.012 A 
ATOM     19  C   UNL     1       2.614 -10.344  -0.046  0.00  0.00    +0.005 A 
ATOM     20  C   UNL     1       2.957 -10.751   1.231  0.00  0.00    -0.042 A 
ATOM     21  C   UNL     1       2.968  -9.842   2.274  0.00  0.00    +0.005 A 
ATOM     22  C   UNL     1       2.643  -8.521   2.045  0.00  0.00    +0.012 A 
BRANCH  20  23
ATOM     23  C   UNL     1       3.319 -12.191   1.487  0.00  0.00    -0.013 C 
ATOM     24  C   UNL     1       4.534 -12.571   0.637  0.00  0.00    +0.015 C 
ATOM     25  C   UNL     1       3.655 -12.377   2.968  0.00  0.00    +0.015 C 
ATOM     26  C   UNL     1       2.137 -13.089   1.115  0.00  0.00    +0.015 C 
ENDBRANCH  20  23
ENDBRANCH  14  17
TORSDOF 2
