REMARK  Name = ZINC35768201
REMARK  8 active torsions:
REMARK  status: ('A' for Active; 'I' for Inactive)
REMARK    1  A    between atoms: C_1  and  O_2
REMARK    2  A    between atoms: O_2  and  C_3
REMARK    3  A    between atoms: C_6  and  S_9
REMARK    4  A    between atoms: S_9  and  N_12
REMARK    5  A    between atoms: N_12  and  C_13
REMARK    6  A    between atoms: N_12  and  C_33
REMARK    7  A    between atoms: C_13  and  C_14
REMARK    8  A    between atoms: C_24  and  C_26
REMARK                            x       y       z     vdW  Elec       q    Type
REMARK                         _______ _______ _______ _____ _____    ______ ____
ROOT
ATOM      1  C   UNL     1       5.168  -4.963  -4.859  0.00  0.00    +0.232 C 
ATOM      2  O   UNL     1       5.155  -4.842  -6.066  0.00  0.00    -0.274 OA
ATOM      3  N   UNL     1       5.614  -6.106  -4.301  0.00  0.00    -0.289 N 
ATOM      4  C   UNL     1       5.630  -6.265  -2.839  0.00  0.00    +0.114 C 
ATOM      5  C   UNL     1       4.648  -7.386  -2.465  0.00  0.00    +0.062 C 
ATOM      6  C   UNL     1       4.825  -8.517  -3.425  0.00  0.00    -0.003 A 
ATOM      7  C   UNL     1       5.452  -8.499  -4.633  0.00  0.00    -0.012 A 
ATOM      8  C   UNL     1       5.473  -9.697  -5.346  0.00  0.00    +0.013 A 
ATOM      9  C   UNL     1       4.893 -10.803  -4.826  0.00  0.00    +0.046 A 
ATOM     10  S   UNL     1       4.272 -10.194  -3.265  0.00  0.00    -0.101 S 
ATOM     11  C   UNL     1       6.087  -7.212  -5.144  0.00  0.00    +0.137 C 
ENDROOT
BRANCH  11  12
ATOM     12  C   UNL     1       7.587  -7.318  -5.055  0.00  0.00    -0.023 A 
ATOM     13  C   UNL     1       8.187  -7.632  -3.849  0.00  0.00    +0.007 A 
ATOM     14  C   UNL     1       9.563  -7.729  -3.767  0.00  0.00    +0.020 A 
ATOM     15  C   UNL     1      10.341  -7.512  -4.890  0.00  0.00    +0.041 A 
ATOM     16  C   UNL     1       9.740  -7.197  -6.096  0.00  0.00    +0.020 A 
ATOM     17  C   UNL     1       8.363  -7.106  -6.179  0.00  0.00    +0.007 A 
ATOM     18 CL   UNL     1      12.069  -7.633  -4.787  0.00  0.00    -0.084 Cl
ENDBRANCH  11  12
BRANCH   1  19
ATOM     19  C   UNL     1       4.687  -3.835  -3.984  0.00  0.00    +0.205 C 
BRANCH  19  20
ATOM     20  N   UNL     1       4.258  -2.714  -4.824  0.00  0.00    -0.165 NA
BRANCH  20  21
ATOM     21  S   UNL     1       2.662  -2.550  -5.235  0.00  0.00    +0.062 S 
ATOM     22  O   UNL     1       2.083  -3.845  -5.140  0.00  0.00    -0.153 OA
ATOM     23  O   UNL     1       2.627  -1.786  -6.432  0.00  0.00    -0.153 OA
BRANCH  21  27
ATOM     24  C   UNL     1       0.705  -0.021  -2.029  0.00  0.00    +0.120 A 
ATOM     25  C   UNL     1       1.267   0.584  -3.144  0.00  0.00    +0.047 A 
ATOM     26  C   UNL     1       1.864  -0.190  -4.120  0.00  0.00    +0.032 A 
ATOM     27  C   UNL     1       1.901  -1.566  -3.987  0.00  0.00    +0.106 A 
ATOM     28  C   UNL     1       1.341  -2.171  -2.877  0.00  0.00    +0.032 A 
ATOM     29  C   UNL     1       0.748  -1.401  -1.895  0.00  0.00    +0.047 A 
BRANCH  24  31
ATOM     30  C   UNL     1       0.111   2.153  -1.270  0.00  0.00    +0.277 C 
ATOM     31  O   UNL     1       0.118   0.738  -1.066  0.00  0.00    -0.495 OA
ENDBRANCH  24  31
ENDBRANCH  21  27
ENDBRANCH  20  21
BRANCH  20  32
ATOM     32  C   UNL     1       5.240  -1.737  -5.300  0.00  0.00    +0.080 C 
ATOM     33  C   UNL     1       6.719  -2.049  -5.060  0.00  0.00    +0.022 C 
ATOM     34  C   UNL     1       6.026  -0.954  -4.247  0.00  0.00    +0.022 C 
ENDBRANCH  20  32
ENDBRANCH  19  20
ENDBRANCH   1  19
TORSDOF 7
