REMARK  Name = ZINC14012268
REMARK  5 active torsions:
REMARK  status: ('A' for Active; 'I' for Inactive)
REMARK    1  A    between atoms: C_4  and  C_7
REMARK    2  A    between atoms: C_7  and  C_8
REMARK    3  A    between atoms: C_14  and  C_16
REMARK    4  A    between atoms: C_16  and  C_17
REMARK    5  A    between atoms: N_28  and  C_31
REMARK                            x       y       z     vdW  Elec       q    Type
REMARK                         _______ _______ _______ _____ _____    ______ ____
ROOT
ATOM      1  C   UNL     1      -3.948   2.091  -0.059  0.00  0.00    +0.112 C 
ATOM      2  C   UNL     1      -4.347   3.116  -1.130  0.00  0.00    +0.103 C 
ATOM      3  S   UNL     1      -5.871   2.353  -1.798  0.00  0.00    -0.085 S 
ATOM      4  C   UNL     1      -5.934   0.893  -0.780  0.00  0.00    +0.174 A 
ATOM      5  N   UNL     1      -4.852   0.946   0.051  0.00  0.00    -0.283 N 
ATOM      6  C   UNL     1      -4.691  -0.085   0.942  0.00  0.00    +0.266 A 
ATOM      7  O   UNL     1      -3.743  -0.088   1.708  0.00  0.00    -0.267 OA
ATOM      8  C   UNL     1      -5.620  -1.146   0.964  0.00  0.00    +0.103 A 
ATOM      9  C   UNL     1      -5.747  -2.328   1.727  0.00  0.00    +0.150 A 
ATOM     10  N   UNL     1      -6.816  -2.962   1.332  0.00  0.00    -0.172 NA
ATOM     11  N   UNL     1      -7.436  -2.241   0.304  0.00  0.00    -0.214 N 
ATOM     12  C   UNL     1      -6.704  -1.117   0.071  0.00  0.00    +0.171 A 
ATOM     13  N   UNL     1      -6.812  -0.085  -0.771  0.00  0.00    -0.203 NA
ENDROOT
BRANCH  11  14
ATOM     14  C   UNL     1      -8.609  -2.611  -0.367  0.00  0.00    +0.068 A 
ATOM     15  C   UNL     1      -9.511  -1.639  -0.779  0.00  0.00    +0.030 A 
ATOM     16  C   UNL     1     -10.664  -2.006  -1.445  0.00  0.00    +0.040 A 
ATOM     17  C   UNL     1     -10.926  -3.343  -1.693  0.00  0.00    +0.124 A 
ATOM     18  C   UNL     1     -10.030  -4.315  -1.279  0.00  0.00    +0.040 A 
ATOM     19  C   UNL     1      -8.873  -3.951  -0.617  0.00  0.00    +0.030 A 
ATOM     20  F   UNL     1     -12.056  -3.701  -2.341  0.00  0.00    -0.205 F 
ENDBRANCH  11  14
BRANCH   1  21
ATOM     21  C   UNL     1      -3.896   2.800   1.296  0.00  0.00    +0.122 C 
BRANCH  21  28
ATOM     22  C   UNL     1      -3.162   7.024   3.892  0.00  0.00    -0.004 C 
ATOM     23  C   UNL     1      -2.400   7.135   2.569  0.00  0.00    +0.023 C 
ATOM     24  C   UNL     1      -1.710   5.800   2.268  0.00  0.00    +0.108 C 
ATOM     25  N   UNL     1      -2.717   4.731   2.297  0.00  0.00    -0.301 N 
ATOM     26  C   UNL     1      -3.572   4.596   3.485  0.00  0.00    +0.108 C 
ATOM     27  C   UNL     1      -4.237   5.941   3.774  0.00  0.00    +0.023 C 
ATOM     28  C   UNL     1      -2.858   3.892   1.251  0.00  0.00    +0.218 C 
ATOM     29  O   UNL     1      -2.151   4.017   0.274  0.00  0.00    -0.276 OA
BRANCH  22  30
ATOM     30  C   UNL     1      -3.824   8.366   4.212  0.00  0.00    +0.038 C 
BRANCH  30  34
ATOM     31  C   UNL     1      -5.657   8.165   8.065  0.00  0.00    +0.000 A 
ATOM     32  C   UNL     1      -4.344   8.578   7.946  0.00  0.00    +0.000 A 
ATOM     33  C   UNL     1      -3.750   8.643   6.699  0.00  0.00    +0.003 A 
ATOM     34  C   UNL     1      -4.471   8.295   5.572  0.00  0.00    -0.047 A 
ATOM     35  C   UNL     1      -5.786   7.886   5.691  0.00  0.00    +0.003 A 
ATOM     36  C   UNL     1      -6.378   7.816   6.938  0.00  0.00    +0.000 A 
ENDBRANCH  30  34
ENDBRANCH  22  30
ENDBRANCH  21  28
ENDBRANCH   1  21
TORSDOF 5
