REMARK  Name = ZINC67184180
REMARK  6 active torsions:
REMARK  status: ('A' for Active; 'I' for Inactive)
REMARK    1  A    between atoms: C_1  and  N_2
REMARK    2  A    between atoms: C_4  and  C_16
REMARK    3  A    between atoms: C_5  and  C_7
REMARK    4  A    between atoms: C_16  and  N_17
REMARK    5  A    between atoms: N_17  and  C_18
REMARK    6  A    between atoms: C_18  and  C_19
REMARK                            x       y       z     vdW  Elec       q    Type
REMARK                         _______ _______ _______ _____ _____    ______ ____
ROOT
ATOM      1  C   UNL     1      -0.018   1.461   0.010  0.00  0.00    +0.172 C 
ATOM      2  N   UNL     1       0.002  -0.004   0.002  0.00  0.00    -0.274 N 
ATOM      3  C   UNL     1       0.008  -0.790  -1.096  0.00  0.00    +0.110 A 
ATOM      4  C   UNL     1       0.028  -2.077  -0.689  0.00  0.00    -0.016 A 
ATOM      5  C   UNL     1       0.034  -2.084   0.721  0.00  0.00    +0.129 A 
ATOM      6  N   UNL     1       0.025  -0.832   1.132  0.00  0.00    -0.168 NA
ENDROOT
BRANCH   5   7
ATOM      7  C   UNL     1       0.055  -3.283   1.586  0.00  0.00    +0.156 A 
ATOM      8  C   UNL     1       0.693  -3.373   2.777  0.00  0.00    +0.060 A 
ATOM      9  C   UNL     1       0.443  -4.729   3.271  0.00  0.00    +0.021 A 
ATOM     10  C   UNL     1       0.817  -5.433   4.417  0.00  0.00    +0.011 A 
ATOM     11  C   UNL     1       0.406  -6.726   4.583  0.00  0.00    +0.001 A 
ATOM     12  C   UNL     1      -0.379  -7.342   3.619  0.00  0.00    +0.004 A 
ATOM     13  C   UNL     1      -0.758  -6.664   2.479  0.00  0.00    +0.047 A 
ATOM     14  C   UNL     1      -0.353  -5.349   2.291  0.00  0.00    +0.136 A 
ATOM     15  O   UNL     1      -0.563  -4.448   1.309  0.00  0.00    -0.453 OA
ENDBRANCH   5   7
BRANCH   4  16
ATOM     16  C   UNL     1       0.040  -3.291  -1.582  0.00  0.00    -0.042 C 
BRANCH  16  17
ATOM     17  N   UNL     1      -1.317  -3.846  -1.673  0.00  0.00    +0.387 N 
ATOM     18  H   UNL     1      -1.634  -4.110  -0.752  0.00  0.00    -0.085 HD
ATOM     19  H   UNL     1      -1.939  -3.152  -2.058  0.00  0.00    -0.085 HD
BRANCH  17  20
ATOM     20  C   UNL     1      -1.304  -5.029  -2.544  0.00  0.00    -0.004 C 
BRANCH  20  21
ATOM     21  C   UNL     1      -2.696  -5.599  -2.637  0.00  0.00    +0.116 A 
ATOM     22  N   UNL     1      -3.220  -6.500  -1.848  0.00  0.00    -0.136 NA
ATOM     23  N   UNL     1      -4.430  -6.746  -2.214  0.00  0.00    -0.134 NA
ATOM     24  C   UNL     1      -4.731  -6.012  -3.247  0.00  0.00    +0.133 A 
ATOM     25  N   UNL     1      -3.639  -5.271  -3.548  0.00  0.00    -0.316 N 
ATOM     26  C   UNL     1      -3.509  -4.319  -4.652  0.00  0.00    +0.124 C 
ATOM     27  C   UNL     1      -4.886  -3.741  -4.989  0.00  0.00    +0.022 C 
ATOM     28  C   UNL     1      -5.573  -4.623  -6.032  0.00  0.00    +0.002 C 
ATOM     29  C   UNL     1      -5.783  -6.032  -5.486  0.00  0.00    +0.008 C 
ATOM     30  C   UNL     1      -6.045  -5.969  -3.983  0.00  0.00    +0.076 C 
ENDBRANCH  20  21
ENDBRANCH  17  20
ENDBRANCH  16  17
ENDBRANCH   4  16
TORSDOF 5
