REMARK  Name = ZINC63385962
REMARK  8 active torsions:
REMARK  status: ('A' for Active; 'I' for Inactive)
REMARK    1  A    between atoms: C_7  and  C_10
REMARK    2  A    between atoms: C_10  and  C_11
REMARK    3  A    between atoms: C_11  and  N_12
REMARK    4  A    between atoms: C_15  and  C_20
REMARK    5  A    between atoms: C_18  and  O_19
REMARK    6  A    between atoms: C_20  and  C_21
REMARK    7  A    between atoms: C_21  and  C_22
REMARK    8  A    between atoms: N_24  and  C_25
REMARK                            x       y       z     vdW  Elec       q    Type
REMARK                         _______ _______ _______ _____ _____    ______ ____
ROOT
ATOM      1  N   UNL     1      -0.457  -4.803  -1.448  0.00  0.00    -0.224 N 
ATOM      2  C   UNL     1      -0.069  -6.094  -1.366  0.00  0.00    +0.248 C 
ATOM      3  O   UNL     1       1.063  -6.520  -1.281  0.00  0.00    -0.273 OA
ATOM      4  C   UNL     1      -1.356  -6.894  -1.403  0.00  0.00    +0.197 C 
ATOM      5  N   UNL     1      -2.406  -5.869  -1.511  0.00  0.00    -0.224 NA
ATOM      6  C   UNL     1      -1.824  -4.713  -1.525  0.00  0.00    +0.285 C 
ENDROOT
BRANCH   6   7
ATOM      7  O   UNL     1      -2.491  -3.542  -1.611  0.00  0.00    -0.481 OA
ATOM      8  H   UNL     1      -3.452  -3.639  -1.658  0.00  0.00    +0.295 HD
ENDBRANCH   6   7
BRANCH   1   9
ATOM      9  C   UNL     1       0.455  -3.657  -1.448  0.00  0.00    +0.122 C 
BRANCH   9  10
ATOM     10  C   UNL     1       0.696  -3.196  -0.009  0.00  0.00    +0.052 C 
BRANCH  10  17
ATOM     11  C   UNL     1      -0.020   1.336   0.050  0.00  0.00    +0.001 A 
ATOM     12  C   UNL     1       1.160   2.091   0.041  0.00  0.00    +0.002 A 
ATOM     13  C   UNL     1       2.386   1.528   0.017  0.00  0.00    +0.026 A 
ATOM     14  C   UNL     1       2.527   0.113  -0.000  0.00  0.00    +0.043 A 
ATOM     15  N   UNL     1       3.586  -0.659  -0.025  0.00  0.00    -0.380 N 
ATOM     16  C   UNL     1       3.146  -2.058  -0.033  0.00  0.00    +0.144 C 
ATOM     17  C   UNL     1       1.634  -2.017  -0.010  0.00  0.00    -0.040 C 
ATOM     18  C   UNL     1       1.295  -0.708   0.009  0.00  0.00    -0.001 A 
ATOM     19  C   UNL     1       0.001  -0.016   0.036  0.00  0.00    +0.010 A 
ATOM     20  H   UNL     1       4.508  -0.356  -0.035  0.00  0.00    +0.160 HD
ENDBRANCH  10  17
ENDBRANCH   9  10
ENDBRANCH   1   9
BRANCH   4  21
ATOM     21  C   UNL     1      -1.378  -7.820  -2.621  0.00  0.00    +0.045 C 
BRANCH  21  22
ATOM     22  C   UNL     1      -2.626  -8.704  -2.568  0.00  0.00    +0.098 C 
BRANCH  22  23
ATOM     23  C   UNL     1      -2.647  -9.615  -3.768  0.00  0.00    +0.217 C 
ATOM     24  O   UNL     1      -1.753  -9.563  -4.585  0.00  0.00    -0.275 OA
ATOM     25  N   UNL     1      -3.661 -10.489  -3.933  0.00  0.00    -0.285 N 
ATOM     26  H   UNL     1      -4.341 -10.578  -3.246  0.00  0.00    +0.155 HD
BRANCH  25  27
ATOM     27  C   UNL     1      -3.732 -11.267  -5.094  0.00  0.00    +0.033 A 
ATOM     28  C   UNL     1      -4.967 -11.576  -5.649  0.00  0.00    +0.025 A 
ATOM     29  C   UNL     1      -5.035 -12.344  -6.795  0.00  0.00    +0.022 A 
ATOM     30  C   UNL     1      -3.874 -12.805  -7.390  0.00  0.00    +0.041 A 
ATOM     31  C   UNL     1      -2.642 -12.498  -6.839  0.00  0.00    +0.022 A 
ATOM     32  C   UNL     1      -2.568 -11.726  -5.696  0.00  0.00    +0.025 A 
ATOM     33 CL   UNL     1      -3.962 -13.771  -8.830  0.00  0.00    -0.084 Cl
ENDBRANCH  25  27
ENDBRANCH  22  23
ENDBRANCH  21  22
ENDBRANCH   4  21
TORSDOF 8
