REMARK  Name = ZINC38598928
REMARK  6 active torsions:
REMARK  status: ('A' for Active; 'I' for Inactive)
REMARK    1  A    between atoms: C_1  and  C_2
REMARK    2  A    between atoms: C_4  and  C_9
REMARK    3  A    between atoms: C_5  and  C_8
REMARK    4  A    between atoms: C_9  and  N_10
REMARK    5  A    between atoms: C_11  and  C_13
REMARK    6  A    between atoms: N_15  and  C_16
REMARK                            x       y       z     vdW  Elec       q    Type
REMARK                         _______ _______ _______ _____ _____    ______ ____
ROOT
ATOM      1  N   UNL     1      -2.986   1.107  -0.846  0.00  0.00    -0.304 N 
ATOM      2  C   UNL     1      -4.078   1.447  -1.559  0.00  0.00    +0.300 C 
ATOM      3  O   UNL     1      -4.489   0.708  -2.429  0.00  0.00    -0.265 OA
ATOM      4  H   UNL     1      -2.658   1.697  -0.150  0.00  0.00    +0.149 HD
ENDROOT
BRANCH   2   5
ATOM      5  C   UNL     1      -4.783   2.734  -1.277  0.00  0.00    +0.303 C 
ATOM      6  O   UNL     1      -4.372   3.473  -0.406  0.00  0.00    -0.265 OA
ATOM      7  N   UNL     1      -5.875   3.074  -1.990  0.00  0.00    -0.278 N 
ATOM      8  H   UNL     1      -6.160   2.521  -2.734  0.00  0.00    +0.155 HD
BRANCH   7   9
ATOM      9  C   UNL     1      -6.595   4.225  -1.658  0.00  0.00    +0.032 C 
ATOM     10  C   UNL     1      -6.772   5.168  -2.600  0.00  0.00    +0.027 C 
ATOM     11  C   UNL     1      -7.590   6.381  -2.271  0.00  0.00    +0.160 C 
ATOM     12  C   UNL     1      -7.483   6.617  -0.776  0.00  0.00    -0.018 C 
ATOM     13  C   UNL     1      -7.184   7.920  -0.638  0.00  0.00    +0.025 C 
ATOM     14  C   UNL     1      -6.933   8.480  -1.911  0.00  0.00    +0.106 C 
ATOM     15  N   UNL     1      -7.120   7.621  -2.873  0.00  0.00    -0.279 NA
ATOM     16  C   UNL     1      -7.549   5.566   0.160  0.00  0.00    +0.008 C 
ATOM     17  C   UNL     1      -7.131   4.349  -0.301  0.00  0.00    +0.023 C 
ENDBRANCH   7   9
ENDBRANCH   2   5
BRANCH   1  18
ATOM     18  C   UNL     1      -2.296  -0.155  -1.122  0.00  0.00    +0.140 C 
BRANCH  18  21
ATOM     19  C   UNL     1       0.196   1.805  -0.497  0.00  0.00    +0.045 C 
ATOM     20  C   UNL     1       0.264   0.279  -0.413  0.00  0.00    +0.175 C 
ATOM     21  C   UNL     1      -1.116  -0.296  -0.194  0.00  0.00    -0.001 C 
ATOM     22  C   UNL     1      -1.103  -0.942   0.953  0.00  0.00    +0.039 C 
ATOM     23  N   UNL     1       0.142  -0.874   1.550  0.00  0.00    -0.269 N 
ATOM     24  O   UNL     1       1.027  -0.124   0.733  0.00  0.00    -0.267 OA
ATOM     25  C   UNL     1      -2.291  -1.661   1.539  0.00  0.00    +0.065 C 
ATOM     26  H   UNL     1       0.376  -1.279   2.399  0.00  0.00    +0.194 HD
ENDBRANCH  18  21
ENDBRANCH   1  18
TORSDOF 4
