REMARK  Name = ZINC41089666
REMARK  6 active torsions:
REMARK  status: ('A' for Active; 'I' for Inactive)
REMARK    1  A    between atoms: C_1  and  C_2
REMARK    2  A    between atoms: C_7  and  N_8
REMARK    3  A    between atoms: C_15  and  S_17
REMARK    4  A    between atoms: S_17  and  C_18
REMARK    5  A    between atoms: C_18  and  C_19
REMARK    6  A    between atoms: C_27  and  C_29
REMARK                            x       y       z     vdW  Elec       q    Type
REMARK                         _______ _______ _______ _____ _____    ______ ____
ROOT
ATOM      1  N   UNL     1       0.025  -0.015   2.417  0.00  0.00    -0.269 N 
ATOM      2  C   UNL     1      -0.056  -0.694   3.578  0.00  0.00    +0.310 C 
ATOM      3  O   UNL     1      -0.040  -1.910   3.573  0.00  0.00    -0.252 OA
ATOM      4  N   UNL     1      -0.156  -0.026   4.744  0.00  0.00    -0.247 N 
ATOM      5  C   UNL     1      -0.240  -0.729   5.944  0.00  0.00    +0.190 A 
ATOM      6  N   UNL     1      -0.233  -2.031   6.152  0.00  0.00    -0.125 NA
ATOM      7  N   UNL     1      -0.328  -2.520   7.434  0.00  0.00    -0.133 NA
ATOM      8  C   UNL     1      -0.425  -1.683   8.451  0.00  0.00    +0.160 A 
ATOM      9  S   UNL     1      -0.378  -0.106   7.613  0.00  0.00    -0.024 S 
ATOM     10  H   UNL     1       0.078   0.954   2.425  0.00  0.00    +0.156 HD
ATOM     11  H   UNL     1      -0.169   0.944   4.748  0.00  0.00    +0.158 HD
ENDROOT
BRANCH   1  18
ATOM     12  C   UNL     1      -1.266   1.183   0.182  0.00  0.00    +0.045 C 
ATOM     13  C   UNL     1      -0.584  -0.158   0.085  0.00  0.00    -0.029 A 
ATOM     14  C   UNL     1      -0.569  -0.841  -1.116  0.00  0.00    +0.005 A 
ATOM     15  C   UNL     1       0.055  -2.071  -1.206  0.00  0.00    +0.000 A 
ATOM     16  C   UNL     1       0.667  -2.622  -0.095  0.00  0.00    +0.002 A 
ATOM     17  C   UNL     1       0.655  -1.945   1.108  0.00  0.00    +0.023 A 
ATOM     18  C   UNL     1       0.034  -0.706   1.200  0.00  0.00    +0.038 A 
ENDBRANCH   1  18
BRANCH   8  19
ATOM     19  S   UNL     1      -0.559  -2.030  10.173  0.00  0.00    -0.091 S 
BRANCH  19  20
ATOM     20  C   UNL     1      -0.533  -3.841  10.260  0.00  0.00    +0.132 C 
BRANCH  20  21
ATOM     21  C   UNL     1      -0.641  -4.277  11.699  0.00  0.00    +0.059 A 
ATOM     22  C   UNL     1      -1.827  -4.798  12.173  0.00  0.00    +0.097 A 
ATOM     23  C   UNL     1      -1.901  -5.195  13.516  0.00  0.00    +0.287 A 
ATOM     24  O   UNL     1      -2.935  -5.662  13.971  0.00  0.00    -0.265 OA
ATOM     25  N   UNL     1      -0.811  -5.054  14.296  0.00  0.00    -0.119 N 
ATOM     26  C   UNL     1       0.335  -4.534  13.780  0.00  0.00    +0.177 A 
ATOM     27  N   UNL     1       0.404  -4.163  12.506  0.00  0.00    -0.230 NA
ATOM     28  C   UNL     1       1.284  -4.513  14.826  0.00  0.00    +0.093 A 
ATOM     29  C   UNL     1       0.705  -5.011  15.934  0.00  0.00    +0.134 A 
ATOM     30  O   UNL     1      -0.562  -5.350  15.657  0.00  0.00    -0.373 OA
ATOM     31  C   UNL     1       1.375  -5.163  17.275  0.00  0.00    +0.089 C 
ENDBRANCH  20  21
ENDBRANCH  19  20
ENDBRANCH   8  19
TORSDOF 4
