REMARK  Name = ZINC50829178
REMARK  4 active torsions:
REMARK  status: ('A' for Active; 'I' for Inactive)
REMARK    1  A    between atoms: C_1  and  C_2
REMARK    2  A    between atoms: C_2  and  C_17
REMARK    3  A    between atoms: N_5  and  C_9
REMARK    4  A    between atoms: C_9  and  C_10
REMARK                            x       y       z     vdW  Elec       q    Type
REMARK                         _______ _______ _______ _____ _____    ______ ____
ROOT
ATOM      1  C   UNL     1      -0.019   1.526   0.010  0.00  0.00    +0.050 C 
ATOM      2  C   UNL     1       0.002  -0.004   0.002  0.00  0.00    +0.168 C 
ATOM      3  C   UNL     1      -1.404  -0.557   0.121  0.00  0.00    +0.254 C 
ATOM      4  O   UNL     1      -2.324  -0.392  -0.652  0.00  0.00    -0.272 OA
ATOM      5  N   UNL     1      -1.419  -1.272   1.263  0.00  0.00    -0.219 N 
ATOM      6  C   UNL     1      -0.231  -1.248   1.876  0.00  0.00    +0.310 C 
ATOM      7  O   UNL     1       0.001  -1.819   2.923  0.00  0.00    -0.252 OA
ATOM      8  N   UNL     1       0.679  -0.520   1.204  0.00  0.00    -0.279 N 
ATOM      9  H   UNL     1       1.602  -0.365   1.461  0.00  0.00    +0.152 HD
ENDROOT
BRANCH   2  10
ATOM     10  C   UNL     1       0.673  -0.517  -1.246  0.00  0.00    +0.137 A 
ATOM     11  C   UNL     1       1.988  -0.767  -1.386  0.00  0.00    +0.047 A 
ATOM     12  C   UNL     1       2.178  -1.229  -2.709  0.00  0.00    +0.041 A 
ATOM     13  C   UNL     1       0.968  -1.234  -3.297  0.00  0.00    +0.195 A 
ATOM     14  O   UNL     1       0.060  -0.807  -2.405  0.00  0.00    -0.465 OA
ENDBRANCH   2  10
BRANCH   5  15
ATOM     15  C   UNL     1      -2.593  -1.987   1.771  0.00  0.00    +0.154 C 
BRANCH  15  16
ATOM     16  C   UNL     1      -2.601  -3.391   1.225  0.00  0.00    -0.011 A 
ATOM     17  C   UNL     1      -3.236  -3.672   0.022  0.00  0.00    +0.010 A 
ATOM     18  C   UNL     1      -3.220  -4.975  -0.444  0.00  0.00    +0.043 A 
ATOM     19  C   UNL     1      -2.572  -5.953   0.304  0.00  0.00    +0.116 A 
ATOM     20  N   UNL     1      -1.979  -5.645   1.447  0.00  0.00    -0.240 NA
ATOM     21  C   UNL     1      -1.973  -4.410   1.913  0.00  0.00    +0.118 A 
ATOM     22  N   UNL     1      -2.549  -7.266  -0.152  0.00  0.00    -0.343 N 
ATOM     23  H   UNL     1      -2.983  -7.497  -0.988  0.00  0.00    +0.144 HD
ATOM     24  H   UNL     1      -2.099  -7.951   0.366  0.00  0.00    +0.144 HD
ENDBRANCH  15  16
ENDBRANCH   5  15
TORSDOF 3
