REMARK  Name = ZINC34747233
REMARK  7 active torsions:
REMARK  status: ('A' for Active; 'I' for Inactive)
REMARK    1  A    between atoms: C_1  and  C_2
REMARK    2  A    between atoms: C_2  and  C_3
REMARK    3  A    between atoms: C_3  and  C_4
REMARK    4  A    between atoms: C_4  and  N_5
REMARK    5  A    between atoms: N_24  and  C_25
REMARK    6  A    between atoms: C_25  and  C_26
REMARK    7  A    between atoms: N_28  and  C_29
REMARK                            x       y       z     vdW  Elec       q    Type
REMARK                         _______ _______ _______ _____ _____    ______ ____
ROOT
ATOM      1  N   UNL     1       1.854  -1.576  -3.543  0.00  0.00    +0.382 N 
ATOM      2  C   UNL     1       2.388  -1.835  -4.886  0.00  0.00    -0.060 C 
ATOM      3  C   UNL     1       2.508  -3.347  -5.104  0.00  0.00    +0.089 C 
ATOM      4  N   UNL     1       3.314  -3.913  -4.011  0.00  0.00    -0.304 N 
ATOM      5  C   UNL     1       2.946  -3.570  -2.629  0.00  0.00    +0.089 C 
ATOM      6  C   UNL     1       2.805  -2.047  -2.528  0.00  0.00    -0.060 C 
ATOM      7  C   UNL     1       4.379  -4.739  -4.274  0.00  0.00    +0.202 A 
ATOM      8  N   UNL     1       5.575  -4.219  -4.451  0.00  0.00    -0.208 NA
ATOM      9  C   UNL     1       6.623  -4.994  -4.706  0.00  0.00    +0.117 A 
ATOM     10  C   UNL     1       6.513  -6.392  -4.799  0.00  0.00    +0.076 A 
ATOM     11  C   UNL     1       7.755  -7.113  -5.086  0.00  0.00    -0.023 A 
ATOM     12  C   UNL     1       8.873  -6.373  -5.231  0.00  0.00    -0.004 A 
ATOM     13  S   UNL     1       8.348  -4.696  -4.998  0.00  0.00    -0.073 S 
ATOM     14  C   UNL     1      10.256  -6.867  -5.526  0.00  0.00    +0.043 C 
ATOM     15  C   UNL     1      10.293  -8.382  -5.276  0.00  0.00    +0.005 C 
ATOM     16  C   UNL     1       9.082  -9.023  -5.960  0.00  0.00    +0.005 C 
ATOM     17  C   UNL     1       7.802  -8.633  -5.220  0.00  0.00    +0.037 C 
ATOM     18  C   UNL     1       5.201  -6.928  -4.602  0.00  0.00    +0.264 A 
ATOM     19  O   UNL     1       5.009  -8.130  -4.664  0.00  0.00    -0.267 OA
ATOM     20  N   UNL     1       4.184  -6.087  -4.342  0.00  0.00    -0.271 N 
ATOM     21  H   UNL     1       0.978  -2.063  -3.433  0.00  0.00    -0.082 HD
ENDROOT
BRANCH   1  22
ATOM     22  C   UNL     1       1.636  -0.134  -3.375  0.00  0.00    -0.079 C 
BRANCH  22  23
ATOM     23  C   UNL     1       0.554   0.336  -4.349  0.00  0.00    -0.019 C 
BRANCH  23  25
ATOM     24  C   UNL     1      -0.756   2.308  -5.148  0.00  0.00    +0.004 C 
ATOM     25  C   UNL     1       0.326   1.838  -4.174  0.00  0.00    -0.005 C 
ENDBRANCH  23  25
ENDBRANCH  22  23
ENDBRANCH   1  22
BRANCH  20  26
ATOM     26  C   UNL     1       2.839  -6.629  -4.134  0.00  0.00    +0.223 C 
BRANCH  26  27
ATOM     27  C   UNL     1       2.151  -6.792  -5.465  0.00  0.00    +0.233 C 
ATOM     28  O   UNL     1       2.728  -6.485  -6.487  0.00  0.00    -0.274 OA
ATOM     29  N   UNL     1       0.895  -7.279  -5.520  0.00  0.00    -0.311 N 
ATOM     30  H   UNL     1       0.434  -7.524  -4.702  0.00  0.00    +0.149 HD
BRANCH  29  31
ATOM     31  C   UNL     1       0.227  -7.436  -6.814  0.00  0.00    +0.073 C 
ATOM     32  C   UNL     1      -0.426  -6.112  -7.216  0.00  0.00    +0.022 C 
ATOM     33  C   UNL     1      -1.124  -6.277  -8.567  0.00  0.00    +0.002 C 
ATOM     34  C   UNL     1      -2.197  -7.362  -8.458  0.00  0.00    +0.000 C 
ATOM     35  C   UNL     1      -1.545  -8.686  -8.056  0.00  0.00    +0.002 C 
ATOM     36  C   UNL     1      -0.847  -8.521  -6.704  0.00  0.00    +0.022 C 
ENDBRANCH  29  31
ENDBRANCH  26  27
ENDBRANCH  20  26
TORSDOF 6
