REMARK  Name = ZINC39634791
REMARK  12 active torsions:
REMARK  status: ('A' for Active; 'I' for Inactive)
REMARK    1  A    between atoms: C_1  and  C_2
REMARK    2  A    between atoms: C_2  and  C_3
REMARK    3  A    between atoms: C_2  and  N_4
REMARK    4  A    between atoms: N_4  and  C_5
REMARK    5  A    between atoms: N_4  and  C_32
REMARK    6  A    between atoms: C_5  and  C_6
REMARK    7  A    between atoms: C_6  and  N_7
REMARK    8  A    between atoms: C_8  and  C_10
REMARK    9  A    between atoms: C_21  and  C_23
REMARK   10  A    between atoms: C_29  and  C_31
REMARK   11  A    between atoms: C_32  and  C_33
REMARK   12  A    between atoms: C_32  and  C_34
REMARK                            x       y       z     vdW  Elec       q    Type
REMARK                         _______ _______ _______ _____ _____    ______ ____
ROOT
ATOM      1  C   UNL     1      -4.114   1.685  -3.833  0.00  0.00    +0.100 C 
ATOM      2  C   UNL     1      -3.231   2.873  -4.275  0.00  0.00    +0.121 C 
ATOM      3  N   UNL     1      -4.193   3.929  -4.669  0.00  0.00    -0.300 N 
ATOM      4  C   UNL     1      -5.278   3.833  -3.663  0.00  0.00    +0.115 C 
ATOM      5  C   UNL     1      -5.456   2.319  -3.431  0.00  0.00    -0.004 C 
ATOM      6  C   UNL     1      -5.752   2.042  -1.960  0.00  0.00    -0.010 C 
ATOM      7  C   UNL     1      -7.118   2.632  -1.598  0.00  0.00    -0.082 C 
ATOM      8  N   UNL     1      -8.153   2.031  -2.447  0.00  0.00    +0.379 N 
ATOM      9  C   UNL     1      -7.913   2.380  -3.853  0.00  0.00    -0.082 C 
ATOM     10  C   UNL     1      -6.580   1.779  -4.310  0.00  0.00    -0.010 C 
ATOM     11  C   UNL     1      -4.103   4.783  -5.707  0.00  0.00    +0.219 C 
ATOM     12  O   UNL     1      -4.979   5.599  -5.899  0.00  0.00    -0.275 OA
ATOM     13  H   UNL     1      -8.131   1.027  -2.343  0.00  0.00    -0.086 HD
ATOM     14  H   UNL     1      -9.059   2.375  -2.167  0.00  0.00    -0.086 HD
ENDROOT
BRANCH  11  15
ATOM     15  C   UNL     1      -2.912   4.726  -6.629  0.00  0.00    +0.078 C 
ATOM     16  C   UNL     1      -1.633   4.979  -5.827  0.00  0.00    +0.032 C 
ATOM     17  C   UNL     1      -0.423   4.885  -6.761  0.00  0.00    +0.108 C 
ATOM     18  N   UNL     1      -0.622   5.808  -7.888  0.00  0.00    -0.302 N 
ATOM     19  C   UNL     1      -1.862   5.710  -8.670  0.00  0.00    +0.108 C 
ATOM     20  C   UNL     1      -3.056   5.795  -7.715  0.00  0.00    +0.032 C 
ATOM     21  C   UNL     1       0.315   6.727  -8.196  0.00  0.00    +0.212 C 
ATOM     22  O   UNL     1       0.100   7.542  -9.068  0.00  0.00    -0.276 OA
ATOM     23  C   UNL     1       1.628   6.741  -7.458  0.00  0.00    +0.109 C 
ENDBRANCH  11  15
BRANCH   1  25
ATOM     24  N   UNL     1      -3.692  -0.342  -2.480  0.00  0.00    -0.317 N 
ATOM     25  C   UNL     1      -3.493   0.979  -2.655  0.00  0.00    +0.218 C 
ATOM     26  O   UNL     1      -2.815   1.600  -1.865  0.00  0.00    -0.275 OA
ATOM     27  H   UNL     1      -4.235  -0.839  -3.112  0.00  0.00    +0.149 HD
BRANCH  24  28
ATOM     28  C   UNL     1      -3.089  -1.028  -1.335  0.00  0.00    +0.085 C 
BRANCH  28  29
ATOM     29  C   UNL     1      -3.468  -2.510  -1.370  0.00  0.00    -0.059 C 
BRANCH  29  30
ATOM     30  N   UNL     1      -2.957  -3.175  -0.164  0.00  0.00    +0.384 N 
ATOM     31  H   UNL     1      -1.964  -3.015  -0.086  0.00  0.00    -0.081 HD
BRANCH  30  33
ATOM     32  C   UNL     1      -2.474  -5.194  -1.463  0.00  0.00    -0.014 C 
ATOM     33  C   UNL     1      -3.215  -4.619  -0.254  0.00  0.00    -0.074 C 
ATOM     34  C   UNL     1      -2.722  -5.306   1.021  0.00  0.00    -0.014 C 
ENDBRANCH  30  33
BRANCH  30  35
ATOM     35  C   UNL     1      -3.635  -2.630   1.020  0.00  0.00    -0.074 C 
ATOM     36  C   UNL     1      -4.985  -3.327   1.201  0.00  0.00    -0.014 C 
ATOM     37  C   UNL     1      -2.768  -2.867   2.258  0.00  0.00    -0.014 C 
ENDBRANCH  30  35
ENDBRANCH  29  30
ENDBRANCH  28  29
ENDBRANCH  24  28
ENDBRANCH   1  25
TORSDOF 7
