REMARK  Name = ZINC46767894
REMARK  9 active torsions:
REMARK  status: ('A' for Active; 'I' for Inactive)
REMARK    1  A    between atoms: C_1  and  C_2
REMARK    2  A    between atoms: C_2  and  C_4
REMARK    3  A    between atoms: C_2  and  O_15
REMARK    4  A    between atoms: N_6  and  C_7
REMARK    5  A    between atoms: N_11  and  C_12
REMARK    6  A    between atoms: C_12  and  C_13
REMARK    7  A    between atoms: C_12  and  C_14
REMARK    8  A    between atoms: O_15  and  C_16
REMARK    9  A    between atoms: C_16  and  C_18
REMARK                            x       y       z     vdW  Elec       q    Type
REMARK                         _______ _______ _______ _____ _____    ______ ____
ROOT
ATOM      1  C   UNL     1      -0.019   1.526   0.010  0.00  0.00    +0.062 C 
ATOM      2  C   UNL     1       0.002  -0.004   0.002  0.00  0.00    +0.259 C 
ENDROOT
BRANCH   2   3
ATOM      3  C   UNL     1       0.707  -0.490  -1.238  0.00  0.00    +0.259 C 
ATOM      4  O   UNL     1       0.095  -1.115  -2.078  0.00  0.00    -0.271 OA
ATOM      5  N   UNL     1       2.018  -0.231  -1.413  0.00  0.00    -0.268 N 
ATOM      6  H   UNL     1       2.508   0.269  -0.741  0.00  0.00    +0.156 HD
BRANCH   5   7
ATOM      7  C   UNL     1       2.671  -0.681  -2.560  0.00  0.00    +0.123 A 
ATOM      8  C   UNL     1       2.110  -1.383  -3.582  0.00  0.00    +0.065 A 
ATOM      9  C   UNL     1       3.107  -1.632  -4.529  0.00  0.00    +0.136 A 
ATOM     10  N   UNL     1       4.224  -1.103  -4.099  0.00  0.00    -0.178 NA
ATOM     11  N   UNL     1       3.976  -0.493  -2.863  0.00  0.00    -0.248 N 
BRANCH  11  12
ATOM     12  C   UNL     1       4.958   0.220  -2.042  0.00  0.00    +0.103 C 
ATOM     13  C   UNL     1       6.097  -0.731  -1.668  0.00  0.00    +0.032 C 
ATOM     14  C   UNL     1       5.520   1.404  -2.831  0.00  0.00    +0.032 C 
ENDBRANCH  11  12
ENDBRANCH   5   7
ENDBRANCH   2   3
BRANCH   2  15
ATOM     15  O   UNL     1      -1.339  -0.499   0.012  0.00  0.00    -0.448 OA
BRANCH  15  16
ATOM     16  C   UNL     1      -1.901  -0.717   1.218  0.00  0.00    +0.357 C 
ATOM     17  O   UNL     1      -1.270  -0.493   2.233  0.00  0.00    -0.243 OA
BRANCH  16  18
ATOM     18  C   UNL     1      -3.276  -1.225   1.305  0.00  0.00    +0.140 A 
ATOM     19  C   UNL     1      -3.952  -1.478   2.459  0.00  0.00    +0.057 A 
ATOM     20  C   UNL     1      -5.240  -1.952   2.107  0.00  0.00    +0.014 A 
ATOM     21  C   UNL     1      -6.350  -2.364   2.856  0.00  0.00    +0.011 A 
ATOM     22  C   UNL     1      -7.482  -2.780   2.219  0.00  0.00    +0.001 A 
ATOM     23  C   UNL     1      -7.546  -2.799   0.831  0.00  0.00    +0.002 A 
ATOM     24  C   UNL     1      -6.469  -2.398   0.073  0.00  0.00    +0.026 A 
ATOM     25  C   UNL     1      -5.302  -1.970   0.701  0.00  0.00    +0.048 A 
ATOM     26  N   UNL     1      -4.093  -1.517   0.228  0.00  0.00    -0.348 N 
ATOM     27  H   UNL     1      -3.852  -1.419  -0.706  0.00  0.00    +0.166 HD
ATOM     28 BR   UNL     1      -3.291  -1.241   4.215  0.00  0.00    -0.047 Br
ENDBRANCH  16  18
ENDBRANCH  15  16
ENDBRANCH   2  15
TORSDOF 6
