REMARK  Name = ZINC44319340
REMARK  11 active torsions:
REMARK  status: ('A' for Active; 'I' for Inactive)
REMARK    1  A    between atoms: C_1  and  C_2
REMARK    2  A    between atoms: C_2  and  C_3
REMARK    3  A    between atoms: C_2  and  C_4
REMARK    4  A    between atoms: C_2  and  O_5
REMARK    5  A    between atoms: O_5  and  C_6
REMARK    6  A    between atoms: N_8  and  CA_9
REMARK    7  A    between atoms: CA_9  and  C_11
REMARK    8  A    between atoms: CA_9  and  C_23
REMARK    9  A    between atoms: C_11  and  C_12
REMARK   10  A    between atoms: C_14  and  N_20
REMARK   11  A    between atoms: C_17  and  O_18
REMARK                            x       y       z     vdW  Elec       q    Type
REMARK                         _______ _______ _______ _____ _____    ______ ____
ROOT
ATOM      1  CA  UNL     1       3.976   0.487  -2.304  0.00  0.00    +0.193 C 
ENDROOT
BRANCH   1   4
ATOM      2  C   UNL     1       2.017   1.332  -1.127  0.00  0.00    +0.401 C 
ATOM      3  O   UNL     1       2.741   2.111  -0.541  0.00  0.00    -0.226 OA
ATOM      4  N   UNL     1       2.537   0.477  -2.030  0.00  0.00    -0.267 N 
ATOM      5  H   UNL     1       1.958  -0.145  -2.498  0.00  0.00    +0.153 HD
BRANCH   2   6
ATOM      6  O   UNL     1       0.694   1.323  -0.876  0.00  0.00    -0.445 OA
BRANCH   6   8
ATOM      7  C   UNL     1       0.532   3.680  -0.367  0.00  0.00    +0.055 C 
ATOM      8  C   UNL     1       0.211   2.256   0.093  0.00  0.00    +0.107 C 
ATOM      9  C   UNL     1       0.888   1.990   1.439  0.00  0.00    +0.055 C 
ATOM     10  C   UNL     1      -1.303   2.098   0.243  0.00  0.00    +0.055 C 
ENDBRANCH   6   8
ENDBRANCH   2   6
ENDBRANCH   1   4
BRANCH   1  11
ATOM     11  C   UNL     1       4.682  -0.405  -1.315  0.00  0.00    +0.376 C 
ATOM     12  O   UNL     1       4.107  -1.373  -0.849  0.00  0.00    -0.244 OA
ATOM     13  OXT UNL     1       5.828  -0.158  -0.982  0.00  0.00    -0.244 OA
ENDBRANCH   1  11
BRANCH   1  14
ATOM     14  C   UNL     1       4.228  -0.025  -3.724  0.00  0.00    +0.073 C 
BRANCH  14  15
ATOM     15  C   UNL     1       3.611   0.925  -4.718  0.00  0.00    -0.001 A 
ATOM     16  C   UNL     1       2.371   0.648  -5.260  0.00  0.00    +0.041 A 
ATOM     17  C   UNL     1       1.804   1.519  -6.172  0.00  0.00    +0.141 A 
ATOM     18  C   UNL     1       2.478   2.670  -6.544  0.00  0.00    +0.051 A 
ATOM     19  C   UNL     1       3.719   2.950  -6.004  0.00  0.00    +0.063 A 
ATOM     20  C   UNL     1       4.286   2.080  -5.084  0.00  0.00    +0.121 A 
ATOM     21 BR   UNL     1       1.700   3.858  -7.792  0.00  0.00    -0.048 Br
BRANCH  17  22
ATOM     22  N   UNL     1       0.476   1.221  -6.752  0.00  0.00    +0.058 N 
ATOM     23  O   UNL     1      -0.113   0.216  -6.427  0.00  0.00    -0.126 OA
ATOM     24  O   UNL     1      -0.021   1.982  -7.549  0.00  0.00    -0.126 OA
ENDBRANCH  17  22
BRANCH  20  25
ATOM     25  O   UNL     1       5.504   2.356  -4.548  0.00  0.00    -0.506 OA
ATOM     26  H   UNL     1       6.249   2.067  -5.093  0.00  0.00    +0.292 HD
ENDBRANCH  20  25
ENDBRANCH  14  15
ENDBRANCH   1  14
TORSDOF 8
