REMARK  Name = ZINC39928889
REMARK  8 active torsions:
REMARK  status: ('A' for Active; 'I' for Inactive)
REMARK    1  A    between atoms: C_1  and  O_2
REMARK    2  A    between atoms: O_2  and  C_3
REMARK    3  A    between atoms: C_8  and  C_15
REMARK    4  A    between atoms: C_15  and  N_16
REMARK    5  A    between atoms: N_16  and  C_17
REMARK    6  A    between atoms: C_22  and  O_23
REMARK    7  A    between atoms: O_23  and  C_24
REMARK    8  A    between atoms: C_25  and  C_27
REMARK                            x       y       z     vdW  Elec       q    Type
REMARK                         _______ _______ _______ _____ _____    ______ ____
ROOT
ATOM      1  N   UNL     1      -5.872  -6.074  -1.148  0.00  0.00    -0.265 N 
ATOM      2  C   UNL     1      -5.033  -6.907  -1.794  0.00  0.00    +0.249 C 
ATOM      3  O   UNL     1      -5.253  -8.100  -1.807  0.00  0.00    -0.272 OA
ENDROOT
BRANCH   1   4
ATOM      4  C   UNL     1      -7.050  -6.572  -0.575  0.00  0.00    +0.078 A 
ATOM      5  C   UNL     1      -8.174  -6.776  -1.362  0.00  0.00    +0.027 A 
ATOM      6  C   UNL     1      -9.334  -7.267  -0.794  0.00  0.00    +0.002 A 
ATOM      7  C   UNL     1      -9.379  -7.556   0.558  0.00  0.00    +0.004 A 
ATOM      8  C   UNL     1      -8.262  -7.354   1.348  0.00  0.00    +0.047 A 
ATOM      9  C   UNL     1      -7.093  -6.868   0.786  0.00  0.00    +0.141 A 
BRANCH   9  10
ATOM     10  O   UNL     1      -5.993  -6.675   1.561  0.00  0.00    -0.493 OA
ATOM     11  C   UNL     1      -6.111  -7.000   2.947  0.00  0.00    +0.277 C 
ENDBRANCH   9  10
ENDBRANCH   1   4
BRANCH   2  12
ATOM     12  C   UNL     1      -3.821  -6.357  -2.501  0.00  0.00    +0.204 C 
ATOM     13  C   UNL     1      -2.808  -5.794  -1.472  0.00  0.00    +0.043 C 
ATOM     14  C   UNL     1      -1.482  -5.903  -2.273  0.00  0.00    +0.031 C 
ATOM     15  C   UNL     1      -1.706  -7.185  -3.104  0.00  0.00    +0.161 C 
ATOM     16  O   UNL     1      -3.120  -7.410  -3.182  0.00  0.00    -0.367 OA
ENDBRANCH   2  12
BRANCH   1  17
ATOM     17  C   UNL     1      -5.553  -4.648  -1.046  0.00  0.00    +0.130 C 
BRANCH  17  23
ATOM     18  C   UNL     1      -9.305  -0.775  -3.792  0.00  0.00    +0.122 A 
ATOM     19  C   UNL     1      -8.380   0.023  -3.103  0.00  0.00    +0.046 A 
ATOM     20  C   UNL     1      -7.249  -0.506  -2.576  0.00  0.00    +0.013 A 
ATOM     21  C   UNL     1      -6.994  -1.940  -2.733  0.00  0.00    -0.007 A 
ATOM     22  C   UNL     1      -5.870  -2.506  -2.217  0.00  0.00    -0.003 C 
ATOM     23  C   UNL     1      -5.682  -3.996  -2.424  0.00  0.00    +0.116 C 
ATOM     24  C   UNL     1      -6.759  -4.734  -3.186  0.00  0.00    +0.226 C 
ATOM     25  O   UNL     1      -6.659  -5.931  -3.380  0.00  0.00    -0.275 OA
ATOM     26  N   UNL     1      -7.810  -4.074  -3.640  0.00  0.00    -0.284 N 
ATOM     27  C   UNL     1      -7.979  -2.762  -3.461  0.00  0.00    +0.044 A 
ATOM     28  C   UNL     1      -9.122  -2.130  -3.967  0.00  0.00    +0.069 A 
ATOM     29  H   UNL     1      -8.490  -4.566  -4.127  0.00  0.00    +0.155 HD
BRANCH  18  31
ATOM     30  C   UNL     1     -10.568   1.211  -4.095  0.00  0.00    +0.277 C 
ATOM     31  O   UNL     1     -10.419  -0.195  -4.299  0.00  0.00    -0.495 OA
ENDBRANCH  18  31
ENDBRANCH  17  23
ENDBRANCH   1  17
TORSDOF 6
