REMARK  Name = ZINC20289206
REMARK  6 active torsions:
REMARK  status: ('A' for Active; 'I' for Inactive)
REMARK    1  A    between atoms: C_1  and  C_2
REMARK    2  A    between atoms: C_2  and  N_19
REMARK    3  A    between atoms: N_9  and  C_12
REMARK    4  A    between atoms: N_19  and  C_20
REMARK    5  A    between atoms: C_20  and  C_21
REMARK    6  A    between atoms: C_21  and  O_22
REMARK                            x       y       z     vdW  Elec       q    Type
REMARK                         _______ _______ _______ _____ _____    ______ ____
ROOT
ATOM      1  C   UNL     1       1.893   1.209   0.218  0.00  0.00    +0.061 C 
ATOM      2  C   UNL     1       1.179  -0.104   0.028  0.00  0.00    +0.018 C 
ATOM      3  C   UNL     1       0.671  -0.779   1.123  0.00  0.00    +0.116 C 
ATOM      4  C   UNL     1       0.089  -2.127   0.993  0.00  0.00    +0.258 C 
ATOM      5  O   UNL     1       0.041  -2.686  -0.087  0.00  0.00    -0.270 OA
ATOM      6  N   UNL     1      -0.388  -2.725   2.104  0.00  0.00    -0.235 N 
ATOM      7  C   UNL     1      -0.341  -2.122   3.300  0.00  0.00    +0.320 C 
ATOM      8  O   UNL     1      -0.788  -2.715   4.262  0.00  0.00    -0.251 OA
ATOM      9  N   UNL     1       0.174  -0.899   3.491  0.00  0.00    -0.190 N 
ATOM     10  C   UNL     1       0.693  -0.185   2.471  0.00  0.00    +0.265 C 
ATOM     11  O   UNL     1       1.161   0.922   2.658  0.00  0.00    -0.269 OA
ATOM     12  H   UNL     1      -0.774  -3.613   2.036  0.00  0.00    +0.159 HD
ENDROOT
BRANCH   9  13
ATOM     13  C   UNL     1       0.178  -0.352   4.782  0.00  0.00    +0.046 A 
ATOM     14  C   UNL     1      -0.862   0.472   5.191  0.00  0.00    +0.025 A 
ATOM     15  C   UNL     1      -0.855   1.010   6.463  0.00  0.00    +0.022 A 
ATOM     16  C   UNL     1       0.187   0.728   7.329  0.00  0.00    +0.041 A 
ATOM     17  C   UNL     1       1.225  -0.092   6.923  0.00  0.00    +0.022 A 
ATOM     18  C   UNL     1       1.219  -0.637   5.654  0.00  0.00    +0.025 A 
ATOM     19 CL   UNL     1       0.192   1.405   8.928  0.00  0.00    -0.084 Cl
ENDBRANCH   9  13
BRANCH   2  20
ATOM     20  N   UNL     1       1.036  -0.621  -1.209  0.00  0.00    -0.344 N 
ATOM     21  H   UNL     1       0.529  -1.438  -1.337  0.00  0.00    +0.146 HD
BRANCH  20  22
ATOM     22  C   UNL     1       1.645   0.051  -2.359  0.00  0.00    +0.129 C 
BRANCH  22  23
ATOM     23  C   UNL     1       1.334  -0.736  -3.633  0.00  0.00    +0.174 C 
BRANCH  23  24
ATOM     24  O   UNL     1      -0.073  -0.705  -3.880  0.00  0.00    -0.393 OA
ATOM     25  H   UNL     1      -0.344  -1.185  -4.675  0.00  0.00    +0.209 HD
ENDBRANCH  23  24
ENDBRANCH  22  23
ENDBRANCH  20  22
ENDBRANCH   2  20
TORSDOF 5
