REMARK  Name = ZINC08986453
REMARK  5 active torsions:
REMARK  status: ('A' for Active; 'I' for Inactive)
REMARK    1  A    between atoms: C_1  and  C_2
REMARK    2  A    between atoms: C_5  and  N_9
REMARK    3  A    between atoms: C_6  and  C_8
REMARK    4  A    between atoms: C_11  and  C_22
REMARK    5  A    between atoms: C_12  and  C_14
REMARK                            x       y       z     vdW  Elec       q    Type
REMARK                         _______ _______ _______ _____ _____    ______ ____
ROOT
ATOM      1  N   UNL     1       1.106   3.442  -0.498  0.00  0.00    -0.149 N 
ATOM      2  N   UNL     1      -0.059   4.207  -0.645  0.00  0.00    -0.152 NA
ATOM      3  C   UNL     1       0.316   5.446  -0.861  0.00  0.00    +0.093 A 
ATOM      4  C   UNL     1       1.722   5.448  -0.858  0.00  0.00    +0.171 A 
ATOM      5  N   UNL     1       2.129   4.211  -0.634  0.00  0.00    -0.142 NA
ATOM      6  C   UNL     1      -0.585   6.635  -1.078  0.00  0.00    +0.070 C 
ENDROOT
BRANCH   4   7
ATOM      7  C   UNL     1       2.591   6.624  -1.068  0.00  0.00    +0.272 C 
ATOM      8  O   UNL     1       2.097   7.716  -1.266  0.00  0.00    -0.268 OA
ATOM      9  N   UNL     1       3.931   6.486  -1.039  0.00  0.00    -0.260 N 
ATOM     10  C   UNL     1       4.743   7.585  -1.236  0.00  0.00    +0.156 C 
ATOM     11  N   UNL     1       6.037   7.608  -1.236  0.00  0.00    -0.262 NA
ATOM     12  C   UNL     1       6.784   8.826  -1.455  0.00  0.00    +0.155 C 
ATOM     13  C   UNL     1       5.872  10.053  -1.679  0.00  0.00    +0.100 C 
ATOM     14  S   UNL     1       4.223   9.261  -1.547  0.00  0.00    -0.089 S 
ATOM     15  H   UNL     1       4.325   5.614  -0.881  0.00  0.00    +0.157 HD
ENDBRANCH   4   7
BRANCH   1  20
ATOM     16  C   UNL     1       1.283  -2.141   0.505  0.00  0.00    +0.044 C 
ATOM     17  C   UNL     1       1.236  -0.658   0.239  0.00  0.00    -0.050 A 
ATOM     18  C   UNL     1       0.024  -0.040  -0.010  0.00  0.00    +0.005 A 
ATOM     19  C   UNL     1      -0.022   1.319  -0.254  0.00  0.00    +0.030 A 
ATOM     20  C   UNL     1       1.149   2.064  -0.250  0.00  0.00    +0.089 A 
ATOM     21  C   UNL     1       2.365   1.440  -0.002  0.00  0.00    -0.023 A 
ATOM     22  C   UNL     1       2.404   0.081   0.242  0.00  0.00    +0.008 A 
ATOM     23  C   UNL     1       3.639   2.245   0.003  0.00  0.00    +0.046 C 
ENDBRANCH   1  20
TORSDOF 2
