REMARK  Name = ZINC67607888
REMARK  6 active torsions:
REMARK  status: ('A' for Active; 'I' for Inactive)
REMARK    1  A    between atoms: C_1  and  C_2
REMARK    2  A    between atoms: C_4  and  C_7
REMARK    3  A    between atoms: C_7  and  N_8
REMARK    4  A    between atoms: N_11  and  N_12
REMARK    5  A    between atoms: C_13  and  C_15
REMARK    6  A    between atoms: N_19  and  C_20
REMARK                            x       y       z     vdW  Elec       q    Type
REMARK                         _______ _______ _______ _____ _____    ______ ____
ROOT
ATOM      1  N   UNL     1      -2.473  -3.231  -1.514  0.00  0.00    -0.293 N 
ATOM      2  C   UNL     1      -3.285  -4.275  -1.773  0.00  0.00    +0.316 C 
ATOM      3  O   UNL     1      -3.979  -4.739  -0.888  0.00  0.00    -0.251 OA
ATOM      4  N   UNL     1      -3.329  -4.805  -3.011  0.00  0.00    -0.218 N 
ATOM      5  H   UNL     1      -1.920  -2.861  -2.220  0.00  0.00    +0.151 HD
ATOM      6  H   UNL     1      -3.913  -5.556  -3.197  0.00  0.00    +0.174 HD
ENDROOT
BRANCH   4   7
ATOM      7  N   UNL     1      -2.530  -4.270  -4.030  0.00  0.00    -0.228 N 
ATOM      8  C   UNL     1      -2.573  -4.800  -5.269  0.00  0.00    +0.277 C 
ATOM      9  O   UNL     1      -3.227  -5.805  -5.478  0.00  0.00    -0.267 OA
ATOM     10  H   UNL     1      -1.945  -3.519  -3.844  0.00  0.00    +0.173 HD
BRANCH   8  11
ATOM     11  C   UNL     1      -1.832  -4.165  -6.364  0.00  0.00    +0.107 A 
ATOM     12  C   UNL     1      -0.989  -3.079  -6.256  0.00  0.00    +0.047 A 
ATOM     13  C   UNL     1      -0.499  -2.810  -7.538  0.00  0.00    +0.036 A 
ATOM     14  C   UNL     1      -1.039  -3.717  -8.388  0.00  0.00    +0.101 A 
ATOM     15  N   UNL     1      -1.847  -4.549  -7.686  0.00  0.00    -0.345 N 
ATOM     16  C   UNL     1      -2.611  -5.669  -8.242  0.00  0.00    +0.149 C 
ATOM     17 BR   UNL     1       0.704  -1.427  -8.003  0.00  0.00    -0.049 Br
ENDBRANCH   8  11
ENDBRANCH   4   7
BRANCH   1  18
ATOM     18  C   UNL     1      -2.426  -2.655  -0.168  0.00  0.00    +0.164 C 
BRANCH  18  22
ATOM     19  C   UNL     1      -0.499   2.057  -0.354  0.00  0.00    +0.089 C 
ATOM     20  C   UNL     1      -0.623   0.560  -0.230  0.00  0.00    +0.135 A 
ATOM     21  C   UNL     1      -1.764  -0.149  -0.315  0.00  0.00    +0.072 A 
ATOM     22  C   UNL     1      -1.448  -1.509  -0.146  0.00  0.00    +0.101 A 
ATOM     23  N   UNL     1      -0.161  -1.605   0.034  0.00  0.00    -0.081 NA
ATOM     24  O   UNL     1       0.386  -0.300  -0.021  0.00  0.00    -0.360 OA
ENDBRANCH  18  22
ENDBRANCH   1  18
TORSDOF 4
