REMARK  Name = ZINC28365180
REMARK  7 active torsions:
REMARK  status: ('A' for Active; 'I' for Inactive)
REMARK    1  A    between atoms: C_10  and  C_12
REMARK    2  A    between atoms: C_12  and  O_13
REMARK    3  A    between atoms: O_13  and  C_14
REMARK    4  A    between atoms: C_14  and  C_16
REMARK    5  A    between atoms: C_17  and  C_18
REMARK    6  A    between atoms: C_21  and  S_24
REMARK    7  A    between atoms: S_24  and  N_27
REMARK                            x       y       z     vdW  Elec       q    Type
REMARK                         _______ _______ _______ _____ _____    ______ ____
ROOT
ATOM      1  C   UNL     1       2.484   5.614   0.009  0.00  0.00    -0.025 A 
ATOM      2  C   UNL     1       1.303   6.363   0.018  0.00  0.00    +0.010 A 
ATOM      3  C   UNL     1       1.365   7.741   0.031  0.00  0.00    +0.029 A 
ATOM      4  C   UNL     1       2.591   8.382   0.022  0.00  0.00    +0.109 A 
ATOM      5  C   UNL     1       3.764   7.648   0.007  0.00  0.00    +0.029 A 
ATOM      6  C   UNL     1       3.719   6.270   0.000  0.00  0.00    +0.010 A 
ENDROOT
BRANCH   4   7
ATOM      7  S   UNL     1       2.659  10.143   0.031  0.00  0.00    +0.075 S 
ATOM      8  O   UNL     1       1.436  10.594   0.596  0.00  0.00    -0.150 OA
ATOM      9  O   UNL     1       3.925  10.498   0.571  0.00  0.00    -0.150 OA
BRANCH   7  10
ATOM     10  N   UNL     1       2.663  10.640  -1.549  0.00  0.00    -0.202 N 
ATOM     11  C   UNL     1       1.465  10.939  -2.338  0.00  0.00    +0.136 C 
ATOM     12  C   UNL     1       1.987  11.353  -3.723  0.00  0.00    +0.058 C 
ATOM     13  C   UNL     1       3.492  11.253  -3.607  0.00  0.00    -0.023 A 
ATOM     14  C   UNL     1       3.808  10.842  -2.321  0.00  0.00    +0.054 A 
ATOM     15  C   UNL     1       5.150  10.671  -1.976  0.00  0.00    +0.025 A 
ATOM     16  C   UNL     1       6.143  10.919  -2.899  0.00  0.00    +0.002 A 
ATOM     17  C   UNL     1       5.817  11.335  -4.177  0.00  0.00    +0.000 A 
ATOM     18  C   UNL     1       4.490  11.502  -4.528  0.00  0.00    +0.005 A 
ENDBRANCH   7  10
ENDBRANCH   4   7
BRANCH   1  20
ATOM     19  C   UNL     1       1.233   3.515   0.009  0.00  0.00    +0.092 C 
ATOM     20  C   UNL     1       2.427   4.144   0.001  0.00  0.00    +0.015 C 
BRANCH  19  21
ATOM     21  C   UNL     1       1.176   2.054   0.002  0.00  0.00    +0.332 C 
ATOM     22  O   UNL     1       2.205   1.405  -0.011  0.00  0.00    -0.246 OA
BRANCH  21  23
ATOM     23  O   UNL     1      -0.017   1.425   0.010  0.00  0.00    -0.452 OA
BRANCH  23  24
ATOM     24  C   UNL     1       0.002  -0.004   0.002  0.00  0.00    +0.328 C 
BRANCH  24  34
ATOM     25  C   UNL     1       1.004  -5.073  -0.035  0.00  0.00    +0.000 A 
ATOM     26  C   UNL     1       1.556  -3.806  -0.033  0.00  0.00    +0.002 A 
ATOM     27  C   UNL     1       0.742  -2.694  -0.019  0.00  0.00    +0.024 A 
ATOM     28  C   UNL     1      -0.647  -2.838  -0.013  0.00  0.00    +0.040 A 
ATOM     29  C   UNL     1      -1.190  -4.112  -0.009  0.00  0.00    -0.024 A 
ATOM     30  C   UNL     1      -0.370  -5.224  -0.022  0.00  0.00    +0.005 A 
ATOM     31  C   UNL     1      -2.698  -3.993   0.006  0.00  0.00    +0.056 C 
ATOM     32  C   UNL     1      -2.966  -2.479   0.017  0.00  0.00    +0.118 C 
ATOM     33  N   UNL     1      -1.640  -1.854   0.008  0.00  0.00    -0.268 N 
ATOM     34  C   UNL     1      -1.412  -0.526   0.013  0.00  0.00    +0.258 C 
ATOM     35  O   UNL     1      -2.344   0.250   0.026  0.00  0.00    -0.272 OA
ENDBRANCH  24  34
ENDBRANCH  23  24
ENDBRANCH  21  23
ENDBRANCH  19  21
ENDBRANCH   1  20
TORSDOF 7
