REMARK  Name = ZINC08588392
REMARK  6 active torsions:
REMARK  status: ('A' for Active; 'I' for Inactive)
REMARK    1  A    between atoms: C_1  and  C_2
REMARK    2  A    between atoms: C_5  and  N_9
REMARK    3  A    between atoms: C_6  and  C_8
REMARK    4  A    between atoms: N_9  and  S_10
REMARK    5  A    between atoms: S_10  and  C_13
REMARK    6  A    between atoms: C_14  and  C_23
REMARK                            x       y       z     vdW  Elec       q    Type
REMARK                         _______ _______ _______ _____ _____    ______ ____
ROOT
ATOM      1  S   UNL     1       0.783  -4.991  -1.292  0.00  0.00    +0.079 S 
ATOM      2  O   UNL     1       0.582  -6.397  -1.236  0.00  0.00    -0.150 OA
ATOM      3  O   UNL     1       0.348  -4.202  -2.391  0.00  0.00    -0.150 OA
ENDROOT
BRANCH   1   4
ATOM      4  C   UNL     1       2.518  -4.724  -1.137  0.00  0.00    +0.191 A 
ATOM      5  C   UNL     1       3.293  -5.621  -0.490  0.00  0.00    +0.049 A 
ATOM      6  N   UNL     1       4.638  -5.398  -0.378  0.00  0.00    -0.310 N 
ATOM      7  H   UNL     1       5.195  -6.042   0.087  0.00  0.00    +0.170 HD
ATOM      8  C   UNL     1       5.196  -4.293  -0.907  0.00  0.00    +0.327 A 
ATOM      9  O   UNL     1       6.394  -4.115  -0.796  0.00  0.00    -0.247 OA
ATOM     10  N   UNL     1       4.447  -3.384  -1.557  0.00  0.00    -0.273 N 
ATOM     11  H   UNL     1       4.866  -2.593  -1.933  0.00  0.00    +0.173 HD
ATOM     12  C   UNL     1       3.119  -3.569  -1.693  0.00  0.00    +0.281 A 
ATOM     13  O   UNL     1       2.441  -2.749  -2.285  0.00  0.00    -0.266 OA
ATOM     14  C   UNL     1       2.679  -6.861   0.107  0.00  0.00    +0.065 C 
ENDBRANCH   1   4
BRANCH   1  15
ATOM     15  N   UNL     1       0.067  -4.356   0.059  0.00  0.00    -0.216 N 
ATOM     16  H   UNL     1      -0.440  -4.931   0.655  0.00  0.00    +0.174 HD
BRANCH  15  21
ATOM     17  C   UNL     1       0.576   1.174   1.207  0.00  0.00    +0.044 C 
ATOM     18  C   UNL     1       0.441  -0.296   0.902  0.00  0.00    -0.050 A 
ATOM     19  C   UNL     1       0.336  -0.722  -0.410  0.00  0.00    +0.005 A 
ATOM     20  C   UNL     1       0.212  -2.067  -0.693  0.00  0.00    +0.025 A 
ATOM     21  C   UNL     1       0.193  -2.994   0.342  0.00  0.00    +0.051 A 
ATOM     22  C   UNL     1       0.298  -2.563   1.658  0.00  0.00    -0.028 A 
ATOM     23  C   UNL     1       0.427  -1.216   1.934  0.00  0.00    +0.008 A 
ATOM     24  C   UNL     1       0.276  -3.565   2.784  0.00  0.00    +0.046 C 
ENDBRANCH  15  21
ENDBRANCH   1  15
TORSDOF 3
