REMARK  Name = ZINC32967484
REMARK  5 active torsions:
REMARK  status: ('A' for Active; 'I' for Inactive)
REMARK    1  A    between atoms: C_4  and  C_7
REMARK    2  A    between atoms: C_9  and  C_18
REMARK    3  A    between atoms: N_10  and  C_12
REMARK    4  A    between atoms: N_20  and  N_21
REMARK    5  A    between atoms: C_22  and  C_24
REMARK                            x       y       z     vdW  Elec       q    Type
REMARK                         _______ _______ _______ _____ _____    ______ ____
ROOT
ATOM      1  C   UNL     1      -7.193   2.240  -0.773  0.00  0.00    +0.279 C 
ATOM      2  O   UNL     1      -6.100   2.753  -0.627  0.00  0.00    -0.267 OA
ATOM      3  N   UNL     1      -7.315   1.106  -1.492  0.00  0.00    -0.229 N 
ATOM      4  H   UNL     1      -8.288   0.597  -1.555  0.00  0.00    +0.173 HD
ENDROOT
BRANCH   1   7
ATOM      5  C   UNL     1     -10.454   3.357   0.446  0.00  0.00    +0.094 A 
ATOM      6  C   UNL     1      -9.697   2.465  -0.335  0.00  0.00    +0.063 A 
ATOM      7  C   UNL     1      -8.382   2.857  -0.165  0.00  0.00    +0.131 A 
ATOM      8  N   UNL     1      -8.406   3.938   0.676  0.00  0.00    -0.227 N 
ATOM      9  N   UNL     1      -9.617   4.202   1.012  0.00  0.00    -0.166 NA
BRANCH   5  13
ATOM     10  C   UNL     1     -14.684   3.340   0.887  0.00  0.00    +0.000 A 
ATOM     11  C   UNL     1     -13.926   4.292   1.545  0.00  0.00    +0.001 A 
ATOM     12  C   UNL     1     -12.553   4.302   1.406  0.00  0.00    +0.010 A 
ATOM     13  C   UNL     1     -11.930   3.351   0.600  0.00  0.00    +0.002 A 
ATOM     14  C   UNL     1     -12.699   2.398  -0.065  0.00  0.00    +0.010 A 
ATOM     15  C   UNL     1     -14.070   2.393   0.086  0.00  0.00    +0.001 A 
ENDBRANCH   5  13
BRANCH   8  16
ATOM     16  C   UNL     1      -7.279   4.648   1.105  0.00  0.00    +0.066 A 
ATOM     17  C   UNL     1      -6.150   3.966   1.540  0.00  0.00    +0.028 A 
ATOM     18  C   UNL     1      -5.037   4.670   1.956  0.00  0.00    +0.002 A 
ATOM     19  C   UNL     1      -5.051   6.053   1.952  0.00  0.00    +0.000 A 
ATOM     20  C   UNL     1      -6.175   6.735   1.525  0.00  0.00    +0.002 A 
ATOM     21  C   UNL     1      -7.289   6.037   1.101  0.00  0.00    +0.028 A 
ENDBRANCH   8  16
ENDBRANCH   1   7
BRANCH   3  22
ATOM     22  N   UNL     1      -6.203   0.576  -2.158  0.00  0.00    -0.231 N 
ATOM     23  C   UNL     1      -6.325  -0.558  -2.876  0.00  0.00    +0.273 C 
ATOM     24  O   UNL     1      -7.398  -1.119  -2.946  0.00  0.00    -0.270 OA
ATOM     25  H   UNL     1      -5.229   1.085  -2.095  0.00  0.00    +0.173 HD
BRANCH  23  26
ATOM     26  C   UNL     1      -5.128  -1.128  -3.593  0.00  0.00    +0.297 C 
ATOM     27  C   UNL     1      -4.673  -0.160  -4.693  0.00  0.00    +0.283 C 
ATOM     28  O   UNL     1      -3.546  -0.737  -5.361  0.00  0.00    -0.484 OA
ATOM     29  C   UNL     1      -3.650  -2.048  -5.712  0.00  0.00    +0.162 A 
ATOM     30  C   UNL     1      -2.780  -2.571  -6.658  0.00  0.00    +0.049 A 
ATOM     31  C   UNL     1      -2.869  -3.901  -7.020  0.00  0.00    +0.004 A 
ATOM     32  C   UNL     1      -3.824  -4.716  -6.440  0.00  0.00    +0.004 A 
ATOM     33  C   UNL     1      -4.696  -4.201  -5.499  0.00  0.00    +0.049 A 
ATOM     34  C   UNL     1      -4.613  -2.866  -5.132  0.00  0.00    +0.163 A 
ATOM     35  O   UNL     1      -5.482  -2.372  -4.209  0.00  0.00    -0.472 OA
ENDBRANCH  23  26
ENDBRANCH   3  22
TORSDOF 5
