REMARK  Name = ZINC67551012
REMARK  6 active torsions:
REMARK  status: ('A' for Active; 'I' for Inactive)
REMARK    1  A    between atoms: C_1  and  C_2
REMARK    2  A    between atoms: C_9  and  C_11
REMARK    3  A    between atoms: C_11  and  C_13
REMARK    4  A    between atoms: C_11  and  N_14
REMARK    5  A    between atoms: N_17  and  C_18
REMARK    6  A    between atoms: C_28  and  C_30
REMARK                            x       y       z     vdW  Elec       q    Type
REMARK                         _______ _______ _______ _____ _____    ______ ____
ROOT
ATOM      1  N   UNL     1       2.512   1.011   3.942  0.00  0.00    -0.288 N 
ATOM      2  C   UNL     1       3.600   0.938   4.734  0.00  0.00    +0.304 C 
ATOM      3  O   UNL     1       4.418   0.054   4.563  0.00  0.00    -0.252 OA
ATOM      4  N   UNL     1       3.782   1.844   5.715  0.00  0.00    -0.269 N 
ATOM      5  H   UNL     1       1.859   1.716   4.079  0.00  0.00    +0.151 HD
ATOM      6  H   UNL     1       3.096   2.504   5.899  0.00  0.00    +0.156 HD
ENDROOT
BRANCH   4   7
ATOM      7  C   UNL     1       4.962   1.831   6.470  0.00  0.00    +0.035 A 
ATOM      8  C   UNL     1       6.165   1.476   5.873  0.00  0.00    +0.025 A 
ATOM      9  C   UNL     1       7.325   1.463   6.620  0.00  0.00    +0.025 A 
ATOM     10  C   UNL     1       7.291   1.806   7.967  0.00  0.00    +0.040 A 
ATOM     11  C   UNL     1       6.093   2.163   8.565  0.00  0.00    -0.024 A 
ATOM     12  C   UNL     1       4.931   2.179   7.812  0.00  0.00    +0.028 A 
ATOM     13  C   UNL     1       6.023   2.550  10.019  0.00  0.00    +0.038 C 
ATOM     14  C   UNL     1       7.235   2.008  10.776  0.00  0.00    +0.024 C 
ATOM     15  C   UNL     1       8.511   2.419  10.030  0.00  0.00    +0.114 C 
ATOM     16  N   UNL     1       8.483   1.780   8.707  0.00  0.00    -0.271 N 
ATOM     17  C   UNL     1       9.584   1.180   8.213  0.00  0.00    +0.217 C 
ATOM     18  O   UNL     1       9.568   0.707   7.096  0.00  0.00    -0.276 OA
ATOM     19  C   UNL     1      10.835   1.095   9.049  0.00  0.00    +0.109 C 
ENDBRANCH   4   7
BRANCH   1  20
ATOM     20  C   UNL     1       2.314   0.027   2.876  0.00  0.00    +0.157 C 
ATOM     21  C   UNL     1       1.632  -1.217   3.449  0.00  0.00    +0.038 C 
BRANCH  20  29
ATOM     22  C   UNL     1       0.228   2.041  -0.134  0.00  0.00    +0.028 C 
ATOM     23  C   UNL     1       0.523   0.578  -0.470  0.00  0.00    +0.073 C 
ATOM     24  C   UNL     1       1.387   0.506  -1.733  0.00  0.00    +0.022 C 
ATOM     25  C   UNL     1       1.795  -0.947  -1.986  0.00  0.00    +0.003 C 
ATOM     26  C   UNL     1       2.623  -1.459  -0.804  0.00  0.00    +0.019 C 
ATOM     27  C   UNL     1       1.773  -1.409   0.469  0.00  0.00    +0.108 C 
ATOM     28  N   UNL     1       1.254  -0.045   0.642  0.00  0.00    -0.297 N 
ATOM     29  C   UNL     1       1.447   0.623   1.796  0.00  0.00    +0.236 C 
ATOM     30  O   UNL     1       0.923   1.703   1.967  0.00  0.00    -0.274 OA
ENDBRANCH  20  29
ENDBRANCH   1  20
TORSDOF 3
