REMARK  Name = ZINC09298279
REMARK  7 active torsions:
REMARK  status: ('A' for Active; 'I' for Inactive)
REMARK    1  A    between atoms: C_1  and  C_2
REMARK    2  A    between atoms: C_2  and  O_3
REMARK    3  A    between atoms: O_3  and  C_4
REMARK    4  A    between atoms: C_7  and  C_9
REMARK    5  A    between atoms: C_13  and  N_14
REMARK    6  A    between atoms: C_15  and  C_17
REMARK    7  A    between atoms: C_28  and  C_32
REMARK                            x       y       z     vdW  Elec       q    Type
REMARK                         _______ _______ _______ _____ _____    ______ ____
ROOT
ATOM      1  C   UNL     1       5.131  -4.093  -0.075  0.00  0.00    +0.069 A 
ATOM      2  C   UNL     1       6.510  -4.553  -0.100  0.00  0.00    -0.023 A 
ATOM      3  C   UNL     1       7.441  -3.575  -0.106  0.00  0.00    -0.004 A 
ATOM      4  S   UNL     1       6.516  -2.066  -0.086  0.00  0.00    -0.077 S 
ATOM      5  C   UNL     1       4.912  -2.722  -0.071  0.00  0.00    +0.085 A 
ATOM      6  C   UNL     1       8.929  -3.746  -0.126  0.00  0.00    +0.046 C 
ATOM      7  C   UNL     1       9.244  -5.197  -0.517  0.00  0.00    -0.009 C 
ATOM      8  C   UNL     1       8.374  -6.135   0.325  0.00  0.00    +0.008 C 
ATOM      9  C   UNL     1       6.913  -6.022  -0.113  0.00  0.00    +0.037 C 
ATOM     10  C   UNL     1      10.722  -5.491  -0.251  0.00  0.00    +0.008 C 
ENDROOT
BRANCH   1  14
ATOM     11  C   UNL     1       2.490  -6.350   1.128  0.00  0.00    +0.407 C 
ATOM     12  O   UNL     1       2.011  -6.742   0.083  0.00  0.00    -0.226 OA
ATOM     13  N   UNL     1       3.517  -5.478   1.114  0.00  0.00    -0.217 N 
ATOM     14  C   UNL     1       4.014  -5.041  -0.060  0.00  0.00    +0.255 C 
ATOM     15  O   UNL     1       3.535  -5.434  -1.107  0.00  0.00    -0.270 OA
ATOM     16  H   UNL     1       3.899  -5.165   1.949  0.00  0.00    +0.161 HD
BRANCH  11  17
ATOM     17  O   UNL     1       1.993  -6.786   2.301  0.00  0.00    -0.450 OA
BRANCH  17  19
ATOM     18  C   UNL     1       0.461  -8.104   3.660  0.00  0.00    +0.048 C 
ATOM     19  C   UNL     1       0.886  -7.724   2.240  0.00  0.00    +0.230 C 
ENDBRANCH  17  19
ENDBRANCH  11  17
ENDBRANCH   1  14
BRANCH   5  20
ATOM     20  N   UNL     1       3.705  -2.043  -0.052  0.00  0.00    -0.275 N 
ATOM     21  C   UNL     1       3.690  -0.695  -0.045  0.00  0.00    +0.249 C 
ATOM     22  O   UNL     1       4.736  -0.075  -0.054  0.00  0.00    -0.270 OA
ATOM     23  H   UNL     1       2.871  -2.537  -0.045  0.00  0.00    +0.156 HD
BRANCH  21  24
ATOM     24  C   UNL     1       2.404   0.028  -0.025  0.00  0.00    +0.041 A 
ATOM     25  C   UNL     1       1.201  -0.682  -0.015  0.00  0.00    +0.017 A 
ATOM     26  C   UNL     1       0.002  -0.004   0.002  0.00  0.00    +0.050 A 
ATOM     27  C   UNL     1      -0.017   1.386   0.010  0.00  0.00    +0.162 A 
ATOM     28  C   UNL     1       1.179   2.100   0.002  0.00  0.00    +0.163 A 
ATOM     29  C   UNL     1       2.386   1.425  -0.017  0.00  0.00    +0.062 A 
ATOM     30  O   UNL     1       1.177   3.461   0.018  0.00  0.00    -0.485 OA
ATOM     31  C   UNL     1      -0.049   4.107  -0.339  0.00  0.00    +0.270 C 
ATOM     32  C   UNL     1      -1.194   3.412   0.409  0.00  0.00    +0.270 C 
ATOM     33  O   UNL     1      -1.212   2.034   0.019  0.00  0.00    -0.485 OA
ENDBRANCH  21  24
ENDBRANCH   5  20
TORSDOF 5
