REMARK  Name = ZINC59329727
REMARK  7 active torsions:
REMARK  status: ('A' for Active; 'I' for Inactive)
REMARK    1  A    between atoms: C_1  and  C_2
REMARK    2  A    between atoms: C_2  and  C_3
REMARK    3  A    between atoms: C_9  and  C_11
REMARK    4  A    between atoms: C_16  and  N_17
REMARK    5  A    between atoms: C_18  and  C_20
REMARK    6  A    between atoms: C_21  and  C_22
REMARK    7  A    between atoms: C_25  and  N_28
REMARK                            x       y       z     vdW  Elec       q    Type
REMARK                         _______ _______ _______ _____ _____    ______ ____
ROOT
ATOM      1  C   UNL     1       3.957  -2.960   6.239  0.00  0.00    +0.058 A 
ATOM      2  C   UNL     1       5.277  -3.123   5.812  0.00  0.00    +0.015 A 
ATOM      3  C   UNL     1       6.296  -3.179   6.738  0.00  0.00    +0.001 A 
ATOM      4  C   UNL     1       6.019  -3.076   8.092  0.00  0.00    +0.002 A 
ATOM      5  C   UNL     1       4.720  -2.915   8.528  0.00  0.00    +0.024 A 
ATOM      6  C   UNL     1       3.680  -2.849   7.610  0.00  0.00    +0.046 A 
ENDROOT
BRANCH   1  13
ATOM      7  C   UNL     1       0.396  -2.724   0.970  0.00  0.00    +0.103 A 
ATOM      8  N   UNL     1      -0.011  -2.729   2.224  0.00  0.00    -0.145 NA
ATOM      9  N   UNL     1       0.796  -2.779   3.192  0.00  0.00    -0.126 NA
ATOM     10  C   UNL     1       2.108  -2.829   3.007  0.00  0.00    +0.188 A 
ATOM     11  S   UNL     1       2.168  -2.808   1.217  0.00  0.00    -0.035 S 
ATOM     12  N   UNL     1       3.141  -2.886   3.935  0.00  0.00    -0.259 N 
ATOM     13  C   UNL     1       2.861  -2.898   5.254  0.00  0.00    +0.252 C 
ATOM     14  O   UNL     1       1.706  -2.858   5.631  0.00  0.00    -0.270 OA
ATOM     15  H   UNL     1       4.062  -2.918   3.634  0.00  0.00    +0.157 HD
BRANCH   7  17
ATOM     16  C   UNL     1      -0.606  -1.211  -0.719  0.00  0.00    +0.011 C 
ATOM     17  C   UNL     1      -0.402  -2.670  -0.307  0.00  0.00    +0.061 C 
ENDBRANCH   7  17
ENDBRANCH   1  13
BRANCH   6  18
ATOM     18  N   UNL     1       2.370  -2.680   8.048  0.00  0.00    -0.281 N 
ATOM     19  C   UNL     1       1.923  -3.367   9.117  0.00  0.00    +0.241 C 
ATOM     20  O   UNL     1       2.685  -4.078   9.746  0.00  0.00    -0.270 OA
ATOM     21  H   UNL     1       1.779  -2.067   7.583  0.00  0.00    +0.155 HD
BRANCH  19  22
ATOM     22  C   UNL     1       0.520  -3.260   9.522  0.00  0.00    +0.068 C 
ATOM     23  C   UNL     1       0.073  -3.948  10.592  0.00  0.00    +0.013 C 
BRANCH  23  24
ATOM     24  C   UNL     1      -1.337  -3.840  10.999  0.00  0.00    -0.025 A 
ATOM     25  C   UNL     1      -2.218  -3.030  10.275  0.00  0.00    +0.010 A 
ATOM     26  C   UNL     1      -3.538  -2.934  10.663  0.00  0.00    +0.033 A 
ATOM     27  C   UNL     1      -3.992  -3.637  11.765  0.00  0.00    +0.126 A 
ATOM     28  C   UNL     1      -3.127  -4.442  12.486  0.00  0.00    +0.033 A 
ATOM     29  C   UNL     1      -1.805  -4.552  12.108  0.00  0.00    +0.010 A 
BRANCH  27  30
ATOM     30  N   UNL     1      -5.410  -3.528  12.175  0.00  0.00    +0.056 N 
ATOM     31  O   UNL     1      -6.168  -2.826  11.547  0.00  0.00    -0.126 OA
ATOM     32  O   UNL     1      -5.810  -4.141  13.137  0.00  0.00    -0.126 OA
ENDBRANCH  27  30
ENDBRANCH  23  24
ENDBRANCH  19  22
ENDBRANCH   6  18
TORSDOF 6
