REMARK  Name = ZINC09429686
REMARK  5 active torsions:
REMARK  status: ('A' for Active; 'I' for Inactive)
REMARK    1  A    between atoms: C_1  and  C_2
REMARK    2  A    between atoms: C_6  and  N_8
REMARK    3  A    between atoms: C_9  and  C_11
REMARK    4  A    between atoms: C_21  and  S_24
REMARK    5  A    between atoms: S_24  and  C_27
REMARK                            x       y       z     vdW  Elec       q    Type
REMARK                         _______ _______ _______ _____ _____    ______ ____
ROOT
ATOM      1  C   UNL     1      -0.127  -4.885   3.661  0.00  0.00    +0.039 A 
ATOM      2  C   UNL     1      -0.136  -4.186   4.873  0.00  0.00    +0.014 A 
ATOM      3  C   UNL     1      -0.223  -4.859   6.058  0.00  0.00    +0.014 A 
ATOM      4  C   UNL     1      -0.304  -6.252   6.062  0.00  0.00    +0.047 A 
ATOM      5  C   UNL     1      -0.297  -6.966   4.852  0.00  0.00    +0.054 A 
ATOM      6  C   UNL     1      -0.213  -6.273   3.649  0.00  0.00    +0.039 A 
ATOM      7  N   UNL     1      -0.377  -8.343   4.872  0.00  0.00    -0.320 N 
ATOM      8  H   UNL     1      -0.371  -8.831   4.034  0.00  0.00    +0.169 HD
ATOM      9  C   UNL     1      -0.463  -9.032   6.039  0.00  0.00    +0.278 A 
ATOM     10  O   UNL     1      -0.538 -10.380   5.997  0.00  0.00    -0.266 OA
ATOM     11  C   UNL     1      -0.475  -8.410   7.252  0.00  0.00    +0.204 A 
ATOM     12  C   UNL     1      -0.399  -7.009   7.326  0.00  0.00    +0.218 A 
ATOM     13  O   UNL     1      -0.409  -6.435   8.403  0.00  0.00    -0.285 OA
ENDROOT
BRANCH   1  15
ATOM     14  N   UNL     1       0.052  -2.797   2.392  0.00  0.00    -0.281 N 
ATOM     15  C   UNL     1      -0.031  -4.142   2.384  0.00  0.00    +0.248 C 
ATOM     16  O   UNL     1      -0.028  -4.746   1.329  0.00  0.00    -0.270 OA
ATOM     17  H   UNL     1       0.127  -2.320   3.233  0.00  0.00    +0.155 HD
BRANCH  14  23
ATOM     18  C   UNL     1       1.525   1.060  -0.276  0.00  0.00    +0.044 C 
ATOM     19  C   UNL     1       0.735  -0.215  -0.135  0.00  0.00    -0.049 A 
ATOM     20  C   UNL     1      -0.012  -0.687  -1.199  0.00  0.00    +0.003 A 
ATOM     21  C   UNL     1      -0.738  -1.857  -1.073  0.00  0.00    +0.002 A 
ATOM     22  C   UNL     1      -0.718  -2.559   0.116  0.00  0.00    +0.023 A 
ATOM     23  C   UNL     1       0.031  -2.089   1.186  0.00  0.00    +0.034 A 
ATOM     24  C   UNL     1       0.763  -0.915   1.055  0.00  0.00    +0.026 A 
ENDBRANCH  14  23
ENDBRANCH   1  15
BRANCH  11  25
ATOM     25  S   UNL     1      -0.588  -9.365   8.729  0.00  0.00    +0.034 S 
ATOM     26  O   UNL     1      -1.614  -8.775   9.516  0.00  0.00    -0.164 OA
ATOM     27  O   UNL     1      -0.623 -10.728   8.329  0.00  0.00    -0.164 OA
BRANCH  25  28
ATOM     28  C   UNL     1       0.919  -9.137   9.612  0.00  0.00    +0.094 A 
ATOM     29  C   UNL     1       1.988  -9.983   9.385  0.00  0.00    +0.027 A 
ATOM     30  C   UNL     1       3.171  -9.805  10.078  0.00  0.00    +0.002 A 
ATOM     31  C   UNL     1       3.284  -8.780  10.999  0.00  0.00    +0.000 A 
ATOM     32  C   UNL     1       2.215  -7.933  11.226  0.00  0.00    +0.002 A 
ATOM     33  C   UNL     1       1.034  -8.109  10.529  0.00  0.00    +0.027 A 
ENDBRANCH  25  28
ENDBRANCH  11  25
TORSDOF 4
