REMARK  Name = ZINC06148919
REMARK  9 active torsions:
REMARK  status: ('A' for Active; 'I' for Inactive)
REMARK    1  A    between atoms: C_1  and  C_2
REMARK    2  A    between atoms: C_7  and  C_9
REMARK    3  A    between atoms: C_7  and  C_25
REMARK    4  A    between atoms: C_7  and  N_65
REMARK    5  A    between atoms: C_13  and  O_23
REMARK    6  A    between atoms: C_14  and  O_21
REMARK    7  A    between atoms: O_21  and  C_22
REMARK    8  A    between atoms: O_23  and  C_24
REMARK    9  A    between atoms: N_29  and  C_30
REMARK                            x       y       z     vdW  Elec       q    Type
REMARK                         _______ _______ _______ _____ _____    ______ ____
ROOT
ATOM      1  C   UNL     1      -4.997   3.819   0.045  0.00  0.00    +0.039 C 
ENDROOT
BRANCH   1   2
ATOM      2  C   UNL     1      -3.659   3.128   0.035  0.00  0.00    +0.011 A 
ATOM      3  C   UNL     1      -2.518   3.863   0.044  0.00  0.00    +0.017 A 
ATOM      4  C   UNL     1      -1.234   3.163   0.029  0.00  0.00    +0.002 A 
ATOM      5  C   UNL     1      -0.025   3.871   0.021  0.00  0.00    +0.059 A 
ATOM      6  C   UNL     1       1.168   3.183   0.007  0.00  0.00    +0.162 A 
ATOM      7  C   UNL     1       1.175   1.784   0.000  0.00  0.00    +0.163 A 
ATOM      8  C   UNL     1      -0.013   1.076   0.008  0.00  0.00    +0.075 A 
ATOM      9  C   UNL     1      -1.225   1.755   0.017  0.00  0.00    +0.053 A 
ATOM     10  N   UNL     1      -2.421   1.066   0.019  0.00  0.00    -0.322 N 
ATOM     11  H   UNL     1      -2.413   0.066   0.014  0.00  0.00    +0.169 HD
ATOM     12  C   UNL     1      -3.595   1.720   0.028  0.00  0.00    +0.251 A 
ATOM     13  O   UNL     1      -4.632   1.078   0.029  0.00  0.00    -0.268 OA
BRANCH   7  14
ATOM     14  O   UNL     1       2.357   1.116  -0.014  0.00  0.00    -0.491 OA
ATOM     15  C   UNL     1       2.296  -0.311  -0.021  0.00  0.00    +0.277 C 
ENDBRANCH   7  14
BRANCH   6  16
ATOM     16  O   UNL     1       2.344   3.866  -0.001  0.00  0.00    -0.491 OA
ATOM     17  C   UNL     1       2.265   5.293   0.006  0.00  0.00    +0.277 C 
ENDBRANCH   6  16
ENDBRANCH   1   2
BRANCH   1  24
ATOM     18  C   UNL     1      -7.992   2.809   4.808  0.00  0.00    +0.007 C 
ATOM     19  C   UNL     1      -7.160   3.490   3.719  0.00  0.00    -0.018 C 
ATOM     20  C   UNL     1      -7.919   3.441   2.390  0.00  0.00    -0.015 C 
ATOM     21  C   UNL     1      -7.057   4.069   1.292  0.00  0.00    -0.077 C 
ATOM     22  C   UNL     1      -5.023   3.404   2.430  0.00  0.00    -0.077 C 
ATOM     23  C   UNL     1      -5.825   2.757   3.562  0.00  0.00    -0.015 C 
ATOM     24  N   UNL     1      -5.798   3.303   1.175  0.00  0.00    +0.389 N 
ATOM     25  H   UNL     1      -6.023   2.317   1.001  0.00  0.00    -0.080 HD
ENDBRANCH   1  24
BRANCH   1  26
ATOM     26  C   UNL     1      -5.725   3.523  -1.241  0.00  0.00    +0.143 A 
ATOM     27  N   UNL     1      -6.309   2.395  -1.568  0.00  0.00    -0.115 NA
ATOM     28  N   UNL     1      -6.819   2.538  -2.742  0.00  0.00    -0.023 NA
ATOM     29  N   UNL     1      -6.570   3.724  -3.176  0.00  0.00    -0.044 NA
ATOM     30  N   UNL     1      -5.897   4.362  -2.279  0.00  0.00    -0.227 N 
BRANCH  30  31
ATOM     31  C   UNL     1      -5.411   5.741  -2.373  0.00  0.00    +0.111 C 
ATOM     32  C   UNL     1      -6.594   6.703  -2.609  0.00  0.00    +0.027 C 
ATOM     33  C   UNL     1      -6.026   7.771  -3.578  0.00  0.00    +0.002 C 
ATOM     34  C   UNL     1      -5.120   6.935  -4.516  0.00  0.00    +0.002 C 
ATOM     35  C   UNL     1      -4.474   5.888  -3.584  0.00  0.00    +0.027 C 
ENDBRANCH  30  31
ENDBRANCH   1  26
TORSDOF 6
