REMARK  Name = ZINC02307517
REMARK  9 active torsions:
REMARK  status: ('A' for Active; 'I' for Inactive)
REMARK    1  A    between atoms: C_1  and  C_2
REMARK    2  A    between atoms: C_2  and  O_3
REMARK    3  A    between atoms: O_3  and  C_4
REMARK    4  A    between atoms: C_4  and  C_6
REMARK    5  A    between atoms: C_10  and  N_11
REMARK    6  A    between atoms: C_12  and  C_14
REMARK    7  A    between atoms: C_17  and  N_20
REMARK    8  A    between atoms: C_38  and  C_40
REMARK    9  A    between atoms: C_38  and  C_41
REMARK                            x       y       z     vdW  Elec       q    Type
REMARK                         _______ _______ _______ _____ _____    ______ ____
ROOT
ATOM      1  N   UNL     1      -0.642  -2.696  -3.871  0.00  0.00    -0.275 N 
ATOM      2  C   UNL     1      -1.116  -2.784  -5.129  0.00  0.00    +0.249 C 
ATOM      3  O   UNL     1      -0.356  -3.011  -6.051  0.00  0.00    -0.270 OA
ATOM      4  H   UNL     1      -1.249  -2.515  -3.136  0.00  0.00    +0.156 HD
ENDROOT
BRANCH   1   9
ATOM      5  C   UNL     1       1.371  -2.810  -2.406  0.00  0.00    +0.091 A 
ATOM      6  C   UNL     1       2.804  -3.029  -2.421  0.00  0.00    -0.016 A 
ATOM      7  C   UNL     1       3.318  -3.257  -3.651  0.00  0.00    +0.021 A 
ATOM      8  S   UNL     1       1.929  -3.180  -4.739  0.00  0.00    -0.075 S 
ATOM      9  C   UNL     1       0.710  -2.865  -3.627  0.00  0.00    +0.087 A 
ATOM     10  C   UNL     1       4.759  -3.511  -3.967  0.00  0.00    +0.203 C 
ATOM     11  O   UNL     1       5.532  -3.155  -2.810  0.00  0.00    -0.368 OA
ATOM     12  C   UNL     1       5.029  -3.707  -1.590  0.00  0.00    +0.068 C 
ATOM     13  C   UNL     1       3.715  -3.020  -1.202  0.00  0.00    +0.071 C 
ATOM     14  C   UNL     1       6.059  -3.499  -0.477  0.00  0.00    +0.041 C 
ATOM     15  C   UNL     1       4.783  -5.206  -1.775  0.00  0.00    +0.041 C 
BRANCH   5  16
ATOM     16  C   UNL     1       0.651  -2.548  -1.159  0.00  0.00    +0.342 C 
ATOM     17  O   UNL     1       0.199  -3.474  -0.511  0.00  0.00    -0.245 OA
BRANCH  16  18
ATOM     18  O   UNL     1       0.488  -1.281  -0.727  0.00  0.00    -0.461 OA
BRANCH  18  20
ATOM     19  C   UNL     1      -0.307   0.394   0.824  0.00  0.00    +0.048 C 
ATOM     20  C   UNL     1      -0.224  -1.099   0.498  0.00  0.00    +0.229 C 
ENDBRANCH  18  20
ENDBRANCH  16  18
ENDBRANCH   5  16
ENDBRANCH   1   9
BRANCH   2  21
ATOM     21  C   UNL     1      -2.558  -2.604  -5.389  0.00  0.00    +0.037 A 
ATOM     22  C   UNL     1      -3.432  -2.337  -4.332  0.00  0.00    +0.015 A 
ATOM     23  C   UNL     1      -4.777  -2.170  -4.579  0.00  0.00    +0.025 A 
ATOM     24  C   UNL     1      -5.265  -2.266  -5.878  0.00  0.00    +0.044 A 
ATOM     25  C   UNL     1      -4.397  -2.532  -6.932  0.00  0.00    +0.025 A 
ATOM     26  C   UNL     1      -3.051  -2.694  -6.694  0.00  0.00    +0.015 A 
BRANCH  24  27
ATOM     27  N   UNL     1      -6.630  -2.095  -6.124  0.00  0.00    -0.210 N 
ATOM     28  C   UNL     1      -7.420  -3.092  -6.538  0.00  0.00    +0.231 C 
ATOM     29  O   UNL     1      -7.060  -4.232  -6.743  0.00  0.00    -0.274 OA
ATOM     30  C   UNL     1      -8.832  -2.579  -6.708  0.00  0.00    +0.095 C 
ATOM     31  C   UNL     1      -9.161  -2.549  -8.234  0.00  0.00    +0.025 C 
ATOM     32  C   UNL     1     -10.082  -1.277  -8.303  0.00  0.00    +0.016 C 
ATOM     33  C   UNL     1      -8.986  -0.337  -7.682  0.00  0.00    +0.025 C 
ATOM     34  C   UNL     1      -8.716  -1.077  -6.311  0.00  0.00    +0.095 C 
ATOM     35  C   UNL     1      -7.254  -0.923  -5.960  0.00  0.00    +0.231 C 
ATOM     36  O   UNL     1      -6.728   0.104  -5.589  0.00  0.00    -0.274 OA
ATOM     37  C   UNL     1      -7.789  -0.712  -8.563  0.00  0.00    -0.027 C 
ATOM     38  C   UNL     1      -7.881  -2.008  -8.883  0.00  0.00    -0.027 C 
ENDBRANCH  24  27
ENDBRANCH   2  21
TORSDOF 6
