REMARK  Name = ZINC58083273
REMARK  5 active torsions:
REMARK  status: ('A' for Active; 'I' for Inactive)
REMARK    1  A    between atoms: C_1  and  C_2
REMARK    2  A    between atoms: C_5  and  C_8
REMARK    3  A    between atoms: C_10  and  C_23
REMARK    4  A    between atoms: C_13  and  C_16
REMARK    5  A    between atoms: C_21  and  O_22
REMARK                            x       y       z     vdW  Elec       q    Type
REMARK                         _______ _______ _______ _____ _____    ______ ____
ROOT
ATOM      1  C   UNL     1       0.059  -4.249  -0.021  0.00  0.00    +0.047 C 
ATOM      2  N   UNL     1       0.067  -4.853  -1.150  0.00  0.00    -0.264 NA
ATOM      3  C   UNL     1       0.096  -6.302  -1.302  0.00  0.00    +0.210 C 
ATOM      4  N   UNL     1      -0.303  -6.963  -0.054  0.00  0.00    -0.284 NA
ATOM      5  C   UNL     1       0.479  -6.432   1.075  0.00  0.00    +0.095 C 
ATOM      6  C   UNL     1       0.075  -4.973   1.297  0.00  0.00    +0.079 C 
ATOM      7  H   UNL     1      -1.293  -6.857   0.110  0.00  0.00    +0.125 HD
ENDROOT
BRANCH   1  12
ATOM      8  C   UNL     1      -0.018   1.503   0.010  0.00  0.00    +0.044 C 
ATOM      9  C   UNL     1       0.002  -0.004   0.002  0.00  0.00    -0.050 A 
ATOM     10  C   UNL     1       0.006  -0.686  -1.202  0.00  0.00    +0.004 A 
ATOM     11  C   UNL     1       0.024  -2.065  -1.217  0.00  0.00    +0.010 A 
ATOM     12  C   UNL     1       0.040  -2.773  -0.013  0.00  0.00    -0.004 A 
ATOM     13  C   UNL     1       0.036  -2.079   1.198  0.00  0.00    +0.010 A 
ATOM     14  C   UNL     1       0.023  -0.699   1.198  0.00  0.00    +0.004 A 
ENDBRANCH   1  12
BRANCH   5  15
ATOM     15  C   UNL     1       0.189  -7.236   2.317  0.00  0.00    +0.011 A 
ATOM     16  C   UNL     1      -0.959  -8.001   2.393  0.00  0.00    +0.009 A 
ATOM     17  C   UNL     1      -1.225  -8.738   3.531  0.00  0.00    +0.001 A 
ATOM     18  C   UNL     1      -0.343  -8.713   4.596  0.00  0.00    +0.004 A 
ATOM     19  C   UNL     1       0.806  -7.951   4.525  0.00  0.00    +0.046 A 
ATOM     20  C   UNL     1       1.078  -7.214   3.381  0.00  0.00    +0.122 A 
BRANCH  20  21
ATOM     21  O   UNL     1       2.212  -6.467   3.306  0.00  0.00    -0.506 OA
ATOM     22  H   UNL     1       2.108  -5.562   3.630  0.00  0.00    +0.292 HD
ENDBRANCH  20  21
ENDBRANCH   5  15
BRANCH   3  23
ATOM     23  C   UNL     1       1.493  -6.734  -1.667  0.00  0.00    +0.028 A 
ATOM     24  C   UNL     1       2.444  -6.056  -2.356  0.00  0.00    +0.014 A 
ATOM     25  C   UNL     1       3.669  -6.658  -2.574  0.00  0.00    +0.008 A 
ATOM     26  C   UNL     1       3.884  -7.907  -2.094  0.00  0.00    +0.045 A 
ATOM     27  S   UNL     1       2.327  -8.269  -1.298  0.00  0.00    -0.098 S 
ENDBRANCH   3  23
TORSDOF 4
