REMARK  Name = ZINC63373991
REMARK  6 active torsions:
REMARK  status: ('A' for Active; 'I' for Inactive)
REMARK    1  A    between atoms: C_1  and  C_2
REMARK    2  A    between atoms: C_2  and  C_3
REMARK    3  A    between atoms: C_6  and  C_9
REMARK    4  A    between atoms: N_16  and  C_31
REMARK    5  A    between atoms: C_19  and  C_30
REMARK    6  A    between atoms: C_31  and  C_32
REMARK                            x       y       z     vdW  Elec       q    Type
REMARK                         _______ _______ _______ _____ _____    ______ ____
ROOT
ATOM      1  C   UNL     1       2.707  -1.868  -4.752  0.00  0.00    +0.065 C 
ATOM      2  C   UNL     1       3.416  -3.203  -4.465  0.00  0.00    +0.121 C 
ATOM      3  N   UNL     1       4.599  -2.954  -3.618  0.00  0.00    -0.283 N 
ATOM      4  C   UNL     1       4.663  -3.567  -2.430  0.00  0.00    +0.234 C 
ATOM      5  O   UNL     1       3.730  -4.271  -2.111  0.00  0.00    -0.274 OA
ATOM      6  C   UNL     1       5.799  -3.447  -1.470  0.00  0.00    +0.204 C 
ATOM      7  N   UNL     1       6.855  -2.585  -1.974  0.00  0.00    -0.287 N 
ATOM      8  C   UNL     1       6.798  -1.959  -3.148  0.00  0.00    +0.242 C 
ATOM      9  O   UNL     1       7.740  -1.266  -3.466  0.00  0.00    -0.273 OA
ATOM     10  C   UNL     1       5.651  -2.056  -4.098  0.00  0.00    +0.135 C 
ATOM     11  C   UNL     1       5.035  -0.671  -4.319  0.00  0.00    +0.139 C 
ATOM     12  C   UNL     1       3.777  -0.885  -5.157  0.00  0.00    -0.027 C 
ATOM     13  C   UNL     1       3.887  -0.086  -6.211  0.00  0.00    -0.000 A 
ATOM     14  C   UNL     1       2.955   0.223  -7.307  0.00  0.00    +0.010 A 
ATOM     15  C   UNL     1       3.410   1.087  -8.254  0.00  0.00    +0.001 A 
ATOM     16  C   UNL     1       4.682   1.666  -8.220  0.00  0.00    +0.002 A 
ATOM     17  C   UNL     1       5.599   1.446  -7.244  0.00  0.00    +0.026 A 
ATOM     18  C   UNL     1       5.233   0.563  -6.187  0.00  0.00    +0.043 A 
ATOM     19  N   UNL     1       5.907   0.204  -5.103  0.00  0.00    -0.375 N 
ATOM     20  C   UNL     1       6.165  -2.571  -5.444  0.00  0.00    +0.044 C 
ATOM     21  H   UNL     1       6.812   0.463  -4.867  0.00  0.00    +0.160 HD
ENDROOT
BRANCH   1  25
ATOM     22  C   UNL     1       0.707  -0.490  -1.238  0.00  0.00    -0.048 A 
ATOM     23  C   UNL     1      -0.011  -0.719  -2.397  0.00  0.00    +0.004 A 
ATOM     24  C   UNL     1       0.636  -1.164  -3.534  0.00  0.00    +0.004 A 
ATOM     25  C   UNL     1       2.002  -1.381  -3.513  0.00  0.00    -0.039 A 
ATOM     26  C   UNL     1       2.720  -1.152  -2.354  0.00  0.00    +0.004 A 
ATOM     27  C   UNL     1       2.073  -0.702  -1.218  0.00  0.00    +0.004 A 
BRANCH  22  29
ATOM     28  C   UNL     1      -0.019   1.526   0.010  0.00  0.00    +0.009 C 
ATOM     29  C   UNL     1       0.002  -0.004   0.002  0.00  0.00    +0.032 C 
ENDBRANCH  22  29
ENDBRANCH   1  25
BRANCH   7  30
ATOM     30  C   UNL     1       8.047  -2.393  -1.144  0.00  0.00    +0.143 C 
BRANCH  30  31
ATOM     31  C   UNL     1       9.071  -3.445  -1.484  0.00  0.00    -0.029 A 
ATOM     32  C   UNL     1       9.073  -4.652  -0.810  0.00  0.00    +0.005 A 
ATOM     33  C   UNL     1      10.011  -5.617  -1.121  0.00  0.00    +0.002 A 
ATOM     34  C   UNL     1      10.950  -5.376  -2.108  0.00  0.00    +0.020 A 
ATOM     35  C   UNL     1      10.949  -4.169  -2.783  0.00  0.00    +0.041 A 
ATOM     36  C   UNL     1      10.005  -3.205  -2.475  0.00  0.00    +0.025 A 
ATOM     37 CL   UNL     1      12.127  -3.866  -4.022  0.00  0.00    -0.084 Cl
ENDBRANCH  30  31
ENDBRANCH   7  30
TORSDOF 4
