REMARK  Name = ZINC63092623
REMARK  6 active torsions:
REMARK  status: ('A' for Active; 'I' for Inactive)
REMARK    1  A    between atoms: C_1  and  C_2
REMARK    2  A    between atoms: C_2  and  C_3
REMARK    3  A    between atoms: C_2  and  N_18
REMARK    4  A    between atoms: C_11  and  C_13
REMARK    5  A    between atoms: N_18  and  S_19
REMARK    6  A    between atoms: S_19  and  C_22
REMARK                            x       y       z     vdW  Elec       q    Type
REMARK                         _______ _______ _______ _____ _____    ______ ____
ROOT
ATOM      1  C   UNL     1      -1.401  -0.959   0.565  0.00  0.00    +0.234 C 
ATOM      2  O   UNL     1      -1.861  -1.712  -0.266  0.00  0.00    -0.274 OA
ATOM      3  N   UNL     1      -2.203  -0.422   1.506  0.00  0.00    -0.297 N 
ATOM      4  C   UNL     1      -1.689   0.592   2.438  0.00  0.00    +0.127 C 
ATOM      5  C   UNL     1      -2.579   1.837   2.347  0.00  0.00    +0.126 C 
ATOM      6  N   UNL     1      -3.984   1.420   2.459  0.00  0.00    -0.298 N 
ATOM      7  C   UNL     1      -4.498   0.406   1.528  0.00  0.00    +0.126 C 
ATOM      8  C   UNL     1      -3.609  -0.835   1.615  0.00  0.00    +0.127 C 
ATOM      9  C   UNL     1      -4.786   1.956   3.400  0.00  0.00    +0.219 C 
ATOM     10  O   UNL     1      -5.966   1.677   3.422  0.00  0.00    -0.275 OA
ENDROOT
BRANCH   9  11
ATOM     11  C   UNL     1      -4.217   2.904   4.424  0.00  0.00    +0.075 C 
ATOM     12  C   UNL     1      -4.017   4.311   3.809  0.00  0.00    +0.013 C 
ATOM     13  C   UNL     1      -4.036   5.234   5.053  0.00  0.00    +0.001 C 
ATOM     14  C   UNL     1      -5.110   4.612   5.969  0.00  0.00    +0.001 C 
ATOM     15  C   UNL     1      -5.225   3.131   5.569  0.00  0.00    +0.013 C 
ENDBRANCH   9  11
BRANCH   1  17
ATOM     16  C   UNL     1       0.280   0.693  -0.206  0.00  0.00    +0.035 C 
ATOM     17  C   UNL     1       0.068  -0.622   0.546  0.00  0.00    +0.159 C 
BRANCH  17  18
ATOM     18  N   UNL     1       0.805  -1.694  -0.127  0.00  0.00    -0.183 NA
ATOM     19  H   UNL     1       0.404  -2.164  -0.875  0.00  0.00    +0.148 HD
BRANCH  18  20
ATOM     20  S   UNL     1       2.325  -2.103   0.387  0.00  0.00    +0.027 S 
ATOM     21  O   UNL     1       2.739  -3.140  -0.491  0.00  0.00    -0.158 OA
ATOM     22  O   UNL     1       3.034  -0.872   0.439  0.00  0.00    -0.158 OA
ATOM     23  C   UNL     1       2.090  -2.758   2.062  0.00  0.00    +0.214 C 
ENDBRANCH  18  20
ENDBRANCH  17  18
ENDBRANCH   1  17
TORSDOF 4
