REMARK  Name = ZINC12878348
REMARK  4 active torsions:
REMARK  status: ('A' for Active; 'I' for Inactive)
REMARK    1  A    between atoms: C_1  and  C_2
REMARK    2  A    between atoms: C_2  and  C_3
REMARK    3  A    between atoms: N_6  and  C_10
REMARK    4  A    between atoms: C_10  and  N_11
REMARK                            x       y       z     vdW  Elec       q    Type
REMARK                         _______ _______ _______ _____ _____    ______ ____
ROOT
ATOM      1  N   UNL     1       1.357   1.972  -0.000  0.00  0.00    -0.211 N 
ATOM      2  C   UNL     1       2.055   2.240  -1.120  0.00  0.00    +0.248 C 
ATOM      3  O   UNL     1       1.679   2.110  -2.265  0.00  0.00    -0.273 OA
ATOM      4  C   UNL     1       3.412   2.738  -0.652  0.00  0.00    +0.113 C 
ATOM      5  C   UNL     1       3.539   4.223  -1.062  0.00  0.00    +0.035 C 
ATOM      6  C   UNL     1       4.535   4.891  -0.156  0.00  0.00    +0.003 C 
ATOM      7  C   UNL     1       5.959   4.905  -0.747  0.00  0.00    +0.000 C 
ATOM      8  C   UNL     1       6.339   3.572  -1.419  0.00  0.00    +0.000 C 
ATOM      9  C   UNL     1       5.882   2.380  -0.623  0.00  0.00    +0.003 C 
ATOM     10  C   UNL     1       4.511   1.929  -1.164  0.00  0.00    +0.035 C 
ATOM     11  N   UNL     1       3.304   2.683   0.820  0.00  0.00    -0.285 N 
ATOM     12  C   UNL     1       2.070   2.231   1.101  0.00  0.00    +0.310 C 
ATOM     13  O   UNL     1       1.649   2.073   2.230  0.00  0.00    -0.252 OA
ATOM     14  H   UNL     1       4.156   2.986   1.446  0.00  0.00    +0.151 HD
ENDROOT
BRANCH   1  15
ATOM     15  C   UNL     1      -0.018   1.465   0.010  0.00  0.00    +0.205 C 
BRANCH  15  18
ATOM     16  C   UNL     1      -1.156  -2.073  -0.607  0.00  0.00    +0.132 C 
ATOM     17  C   UNL     1      -1.243  -0.545  -0.562  0.00  0.00    +0.117 C 
ATOM     18  N   UNL     1       0.002  -0.004   0.002  0.00  0.00    -0.282 NA
ATOM     19  C   UNL     1       0.236  -0.535   1.353  0.00  0.00    +0.114 C 
ATOM     20  C   UNL     1       0.308  -2.063   1.289  0.00  0.00    +0.175 C 
ATOM     21  O   UNL     1      -0.897  -2.569   0.709  0.00  0.00    -0.374 OA
BRANCH  16  23
ATOM     22  C   UNL     1      -2.352  -4.162  -1.276  0.00  0.00    +0.006 C 
ATOM     23  C   UNL     1      -2.479  -2.645  -1.118  0.00  0.00    +0.029 C 
ENDBRANCH  16  23
ENDBRANCH  15  18
ENDBRANCH   1  15
TORSDOF 3
