REMARK  Name = ZINC09519434
REMARK  5 active torsions:
REMARK  status: ('A' for Active; 'I' for Inactive)
REMARK    1  A    between atoms: C_7  and  C_19
REMARK    2  A    between atoms: N_9  and  C_10
REMARK    3  A    between atoms: C_10  and  C_11
REMARK    4  A    between atoms: C_19  and  C_21
REMARK    5  A    between atoms: N_26  and  C_29
REMARK                            x       y       z     vdW  Elec       q    Type
REMARK                         _______ _______ _______ _____ _____    ______ ____
ROOT
ATOM      1  C   UNL     1      -5.887   2.973   0.423  0.00  0.00    +0.001 A 
ATOM      2  C   UNL     1      -6.691   1.847   0.517  0.00  0.00    +0.002 A 
ATOM      3  C   UNL     1      -6.137   0.586   0.508  0.00  0.00    +0.026 A 
ATOM      4  C   UNL     1      -4.758   0.433   0.403  0.00  0.00    +0.050 A 
ATOM      5  C   UNL     1      -3.946   1.575   0.314  0.00  0.00    +0.011 A 
ATOM      6  C   UNL     1      -4.519   2.843   0.319  0.00  0.00    +0.011 A 
ATOM      7  C   UNL     1      -2.561   1.076   0.212  0.00  0.00    +0.052 A 
ATOM      8  C   UNL     1      -2.644  -0.303   0.257  0.00  0.00    +0.099 A 
ATOM      9  N   UNL     1      -3.933  -0.673   0.368  0.00  0.00    -0.337 N 
ENDROOT
BRANCH   7  10
ATOM     10  C   UNL     1      -1.345   1.879   0.095  0.00  0.00    +0.249 C 
ATOM     11  O   UNL     1      -1.418   3.092   0.068  0.00  0.00    -0.282 OA
BRANCH  10  12
ATOM     12  C   UNL     1      -0.014   1.210   0.009  0.00  0.00    +0.287 C 
ATOM     13  O   UNL     1       0.076   0.013   0.190  0.00  0.00    -0.266 OA
ATOM     14  N   UNL     1       1.087   1.933  -0.276  0.00  0.00    -0.292 N 
ATOM     15  C   UNL     1       2.427   1.333  -0.193  0.00  0.00    +0.127 C 
ATOM     16  C   UNL     1       3.163   1.613  -1.512  0.00  0.00    +0.124 C 
ATOM     17  N   UNL     1       3.146   3.057  -1.780  0.00  0.00    -0.327 N 
ATOM     18  C   UNL     1       1.774   3.548  -1.968  0.00  0.00    +0.124 C 
ATOM     19  C   UNL     1       0.980   3.345  -0.673  0.00  0.00    +0.127 C 
BRANCH  17  20
ATOM     20  C   UNL     1       3.946   3.372  -2.880  0.00  0.00    +0.031 A 
ATOM     21  C   UNL     1       3.405   4.059  -3.960  0.00  0.00    +0.023 A 
ATOM     22  C   UNL     1       4.200   4.373  -5.045  0.00  0.00    +0.003 A 
ATOM     23  C   UNL     1       5.531   3.997  -5.062  0.00  0.00    +0.020 A 
ATOM     24  C   UNL     1       6.072   3.309  -3.990  0.00  0.00    +0.043 A 
ATOM     25  C   UNL     1       5.283   2.995  -2.899  0.00  0.00    +0.043 A 
ATOM     26 CL   UNL     1       7.743   2.838  -4.016  0.00  0.00    -0.083 Cl
ENDBRANCH  17  20
ENDBRANCH  10  12
ENDBRANCH   7  10
BRANCH   9  27
ATOM     27  C   UNL     1      -4.397  -2.061   0.443  0.00  0.00    +0.217 C 
BRANCH  27  28
ATOM     28  C   UNL     1      -4.785  -2.536  -0.933  0.00  0.00    +0.235 C 
ATOM     29  O   UNL     1      -4.683  -1.789  -1.884  0.00  0.00    -0.274 OA
ATOM     30  N   UNL     1      -5.244  -3.791  -1.109  0.00  0.00    -0.300 N 
ATOM     31  C   UNL     1      -5.367  -4.709   0.031  0.00  0.00    +0.108 C 
ATOM     32  C   UNL     1      -6.803  -5.254   0.068  0.00  0.00    +0.019 C 
ATOM     33  C   UNL     1      -7.137  -5.885  -1.286  0.00  0.00    +0.003 C 
ATOM     34  C   UNL     1      -7.054  -4.820  -2.382  0.00  0.00    +0.019 C 
ATOM     35  C   UNL     1      -5.626  -4.268  -2.445  0.00  0.00    +0.108 C 
ENDBRANCH  27  28
ENDBRANCH   9  27
TORSDOF 5
