REMARK  Name = ZINC12428062
REMARK  9 active torsions:
REMARK  status: ('A' for Active; 'I' for Inactive)
REMARK    1  A    between atoms: C_1  and  N_2
REMARK    2  A    between atoms: C_6  and  S_13
REMARK    3  A    between atoms: N_9  and  C_12
REMARK    4  A    between atoms: S_13  and  N_16
REMARK    5  A    between atoms: N_16  and  C_17
REMARK    6  A    between atoms: N_16  and  C_18
REMARK    7  A    between atoms: C_18  and  C_19
REMARK    8  A    between atoms: C_19  and  C_20
REMARK    9  A    between atoms: C_20  and  N_21
REMARK                            x       y       z     vdW  Elec       q    Type
REMARK                         _______ _______ _______ _____ _____    ______ ____
ROOT
ATOM      1  C   UNL     1      -3.801   5.349  -3.094  0.00  0.00    +0.110 C 
ENDROOT
BRANCH   1   2
ATOM      2  N   UNL     1      -3.399   6.498  -3.909  0.00  0.00    -0.180 NA
ATOM      3  C   UNL     1      -2.352   6.346  -4.923  0.00  0.00    +0.131 C 
BRANCH   2   4
ATOM      4  S   UNL     1      -4.127   7.968  -3.685  0.00  0.00    +0.061 S 
ATOM      5  O   UNL     1      -3.977   8.685  -4.903  0.00  0.00    -0.153 OA
ATOM      6  O   UNL     1      -5.399   7.707  -3.107  0.00  0.00    -0.153 OA
BRANCH   4  12
ATOM      7  C   UNL     1      -0.788  11.148   1.612  0.00  0.00    +0.154 C 
ATOM      8  N   UNL     1      -0.825  10.983   0.157  0.00  0.00    -0.295 N 
ATOM      9  C   UNL     1      -1.725  10.191  -0.552  0.00  0.00    +0.070 A 
ATOM     10  C   UNL     1      -2.781   9.377  -0.171  0.00  0.00    +0.030 A 
ATOM     11  C   UNL     1      -3.513   8.706  -1.131  0.00  0.00    +0.030 A 
ATOM     12  C   UNL     1      -3.190   8.834  -2.471  0.00  0.00    +0.108 A 
ATOM     13  C   UNL     1      -2.140   9.643  -2.860  0.00  0.00    +0.056 A 
ATOM     14  C   UNL     1      -1.403  10.325  -1.904  0.00  0.00    +0.071 A 
ATOM     15  N   UNL     1      -0.317  11.194  -1.975  0.00  0.00    -0.295 N 
ATOM     16  C   UNL     1       0.007  11.571  -0.724  0.00  0.00    +0.330 A 
ATOM     17  O   UNL     1       0.913  12.329  -0.433  0.00  0.00    -0.246 OA
ATOM     18  C   UNL     1       0.358  11.623  -3.202  0.00  0.00    +0.154 C 
ENDBRANCH   4  12
ENDBRANCH   2   4
ENDBRANCH   1   2
BRANCH   1  19
ATOM     19  C   UNL     1      -2.861   5.222  -1.893  0.00  0.00    +0.036 C 
BRANCH  19  20
ATOM     20  C   UNL     1      -3.281   4.022  -1.041  0.00  0.00    +0.112 C 
BRANCH  20  21
ATOM     21  N   UNL     1      -2.382   3.901   0.108  0.00  0.00    -0.300 N 
ATOM     22  C   UNL     1      -1.214   3.132   0.035  0.00  0.00    +0.037 A 
ATOM     23  C   UNL     1      -1.224   1.748   0.017  0.00  0.00    +0.024 A 
ATOM     24  C   UNL     1      -0.013   1.076   0.008  0.00  0.00    +0.002 A 
ATOM     25  C   UNL     1       1.178   1.779   0.000  0.00  0.00    +0.000 A 
ATOM     26  C   UNL     1       1.175   3.167  -0.007  0.00  0.00    +0.005 A 
ATOM     27  C   UNL     1      -0.032   3.826   0.006  0.00  0.00    -0.026 A 
ATOM     28  C   UNL     1      -0.144   5.328  -0.046  0.00  0.00    +0.042 C 
ATOM     29  C   UNL     1      -0.445   5.910   1.324  0.00  0.00    +0.042 C 
ATOM     30  C   UNL     1      -1.764   5.434   1.892  0.00  0.00    -0.026 A 
ATOM     31  C   UNL     1      -2.661   4.549   1.317  0.00  0.00    +0.037 A 
ATOM     32  C   UNL     1      -3.869   4.252   1.943  0.00  0.00    +0.024 A 
ATOM     33  C   UNL     1      -4.178   4.806   3.167  0.00  0.00    +0.002 A 
ATOM     34  C   UNL     1      -3.274   5.663   3.767  0.00  0.00    +0.000 A 
ATOM     35  C   UNL     1      -2.090   5.974   3.138  0.00  0.00    +0.005 A 
ENDBRANCH  20  21
ENDBRANCH  19  20
ENDBRANCH   1  19
TORSDOF 6
