REMARK  Name = ZINC02432708
REMARK  4 active torsions:
REMARK  status: ('A' for Active; 'I' for Inactive)
REMARK    1  A    between atoms: C_1  and  C_2
REMARK    2  A    between atoms: C_5  and  N_9
REMARK    3  A    between atoms: C_7  and  C_8
REMARK    4  A    between atoms: C_27  and  C_35
REMARK                            x       y       z     vdW  Elec       q    Type
REMARK                         _______ _______ _______ _____ _____    ______ ____
ROOT
ATOM      1  N   UNL     1       0.059  -4.172  -0.021  0.00  0.00    -0.210 N 
ATOM      2  C   UNL     1       0.167  -4.901   1.096  0.00  0.00    +0.228 C 
ATOM      3  O   UNL     1       0.258  -4.452   2.219  0.00  0.00    -0.275 OA
ATOM      4  C   UNL     1       0.156  -6.370   0.741  0.00  0.00    +0.074 C 
ATOM      5  C   UNL     1      -1.135  -7.016   1.275  0.00  0.00    -0.054 C 
ATOM      6  C   UNL     1      -1.660  -6.193   2.466  0.00  0.00    -0.016 C 
ATOM      7  C   UNL     1      -2.622  -5.154   1.856  0.00  0.00    -0.020 C 
ATOM      8  C   UNL     1      -2.584  -5.413   0.336  0.00  0.00    -0.076 C 
ATOM      9  N   UNL     1      -2.141  -6.845   0.183  0.00  0.00    +0.395 N 
ATOM     10  C   UNL     1      -1.369  -7.005  -1.060  0.00  0.00    +0.053 C 
ATOM     11  C   UNL     1       0.017  -6.364  -0.806  0.00  0.00    +0.089 C 
ATOM     12  C   UNL     1      -0.036  -4.891  -1.146  0.00  0.00    +0.229 C 
ATOM     13  O   UNL     1      -0.144  -4.433  -2.263  0.00  0.00    -0.275 OA
ATOM     14  C   UNL     1      -1.236  -8.452  -1.446  0.00  0.00    -0.026 A 
ATOM     15  C   UNL     1      -0.697  -9.553  -0.819  0.00  0.00    +0.008 A 
ATOM     16  C   UNL     1      -0.725 -10.788  -1.442  0.00  0.00    -0.049 A 
ATOM     17  C   UNL     1      -1.295 -10.913  -2.696  0.00  0.00    +0.025 A 
ATOM     18  C   UNL     1      -1.836  -9.812  -3.329  0.00  0.00    +0.063 A 
ATOM     19  C   UNL     1      -1.812  -8.565  -2.707  0.00  0.00    +0.054 A 
ATOM     20  N   UNL     1      -2.287  -7.323  -3.134  0.00  0.00    -0.285 N 
ATOM     21  C   UNL     1      -2.066  -6.354  -2.225  0.00  0.00    +0.212 C 
ATOM     22  O   UNL     1      -2.370  -5.184  -2.325  0.00  0.00    -0.277 OA
ATOM     23 CL   UNL     1      -2.547  -9.981  -4.903  0.00  0.00    -0.082 Cl
ATOM     24  C   UNL     1      -0.135 -11.994  -0.757  0.00  0.00    +0.044 C 
ATOM     25  H   UNL     1      -2.725  -7.175  -3.987  0.00  0.00    +0.155 HD
ATOM     26  H   UNL     1      -2.907  -7.498   0.256  0.00  0.00    -0.079 HD
ENDROOT
BRANCH   1  31
ATOM     27  C   UNL     1      -0.017   1.503   0.012  0.00  0.00    +0.044 C 
ATOM     28  C   UNL     1       0.003  -0.004   0.003  0.00  0.00    -0.047 A 
ATOM     29  C   UNL     1      -1.130  -0.707  -0.365  0.00  0.00    +0.005 A 
ATOM     30  C   UNL     1      -1.114  -2.088  -0.374  0.00  0.00    +0.024 A 
ATOM     31  C   UNL     1       0.040  -2.771  -0.013  0.00  0.00    +0.044 A 
ATOM     32  C   UNL     1       1.175  -2.062   0.355  0.00  0.00    +0.027 A 
ATOM     33  C   UNL     1       1.155  -0.681   0.358  0.00  0.00    -0.046 A 
ATOM     34  C   UNL     1       2.389   0.089   0.752  0.00  0.00    +0.044 C 
ENDBRANCH   1  31
TORSDOF 1
