REMARK  Name = ZINC63730916
REMARK  7 active torsions:
REMARK  status: ('A' for Active; 'I' for Inactive)
REMARK    1  A    between atoms: C_1  and  O_2
REMARK    2  A    between atoms: O_2  and  C_3
REMARK    3  A    between atoms: C_8  and  S_13
REMARK    4  A    between atoms: S_13  and  C_14
REMARK    5  A    between atoms: C_14  and  C_15
REMARK    6  A    between atoms: N_17  and  C_18
REMARK    7  A    between atoms: C_21  and  N_25
REMARK                            x       y       z     vdW  Elec       q    Type
REMARK                         _______ _______ _______ _____ _____    ______ ____
ROOT
ATOM      1  C   UNL     1      -0.346  -3.837  -5.135  0.00  0.00    +0.169 C 
ENDROOT
BRANCH   1   2
ATOM      2  C   UNL     1      -1.271  -4.446  -6.157  0.00  0.00    +0.227 C 
ATOM      3  O   UNL     1      -0.934  -5.440  -6.764  0.00  0.00    -0.275 OA
ATOM      4  N   UNL     1      -2.473  -3.886  -6.395  0.00  0.00    -0.284 N 
ATOM      5  H   UNL     1      -2.770  -3.130  -5.864  0.00  0.00    +0.155 HD
BRANCH   4   6
ATOM      6  C   UNL     1      -3.293  -4.394  -7.409  0.00  0.00    +0.052 A 
ATOM      7  C   UNL     1      -3.306  -5.757  -7.676  0.00  0.00    +0.027 A 
ATOM      8  C   UNL     1      -4.117  -6.256  -8.677  0.00  0.00    +0.034 A 
ATOM      9  C   UNL     1      -4.916  -5.400  -9.414  0.00  0.00    +0.128 A 
ATOM     10  C   UNL     1      -4.906  -4.043  -9.151  0.00  0.00    +0.054 A 
ATOM     11  C   UNL     1      -4.101  -3.537  -8.147  0.00  0.00    +0.064 A 
ATOM     12 CL   UNL     1      -4.095  -1.834  -7.813  0.00  0.00    -0.082 Cl
BRANCH   9  13
ATOM     13  N   UNL     1      -5.783  -5.939 -10.486  0.00  0.00    +0.056 N 
ATOM     14  O   UNL     1      -5.792  -7.125 -10.717  0.00  0.00    -0.126 OA
ATOM     15  O   UNL     1      -6.481  -5.192 -11.130  0.00  0.00    -0.126 OA
ENDBRANCH   9  13
ENDBRANCH   4   6
ENDBRANCH   1   2
BRANCH   1  16
ATOM     16  S   UNL     1       1.181  -4.813  -5.044  0.00  0.00    -0.106 S 
BRANCH  16  22
ATOM     17  C   UNL     1       0.582  -0.639  -1.020  0.00  0.00    +0.122 A 
ATOM     18  C   UNL     1       1.178   0.191  -2.058  0.00  0.00    +0.048 A 
ATOM     19  C   UNL     1       1.794  -0.343  -3.129  0.00  0.00    +0.031 A 
ATOM     20  C   UNL     1       1.877  -1.804  -3.272  0.00  0.00    +0.061 A 
ATOM     21  N   UNL     1       2.402  -2.566  -4.187  0.00  0.00    -0.355 N 
ATOM     22  C   UNL     1       2.173  -3.960  -3.787  0.00  0.00    +0.236 C 
ATOM     23  N   UNL     1       1.442  -3.911  -2.515  0.00  0.00    -0.355 N 
ATOM     24  C   UNL     1       1.268  -2.653  -2.212  0.00  0.00    +0.064 A 
ATOM     25  C   UNL     1       0.621  -1.993  -1.077  0.00  0.00    +0.073 A 
ATOM     26  H   UNL     1       2.862  -2.268  -4.987  0.00  0.00    +0.162 HD
ATOM     27  H   UNL     1       1.144  -4.673  -1.995  0.00  0.00    +0.162 HD
BRANCH  17  29
ATOM     28  C   UNL     1      -0.042   1.388   0.050  0.00  0.00    +0.277 C 
ATOM     29  O   UNL     1      -0.025  -0.041   0.035  0.00  0.00    -0.495 OA
ENDBRANCH  17  29
ENDBRANCH  16  22
ENDBRANCH   1  16
TORSDOF 6
