REMARK  Name = ZINC09751303
REMARK  9 active torsions:
REMARK  status: ('A' for Active; 'I' for Inactive)
REMARK    1  A    between atoms: C_1  and  C_2
REMARK    2  A    between atoms: C_2  and  N_3
REMARK    3  A    between atoms: C_7  and  C_9
REMARK    4  A    between atoms: C_9  and  C_11
REMARK    5  A    between atoms: C_9  and  S_12
REMARK    6  A    between atoms: S_12  and  C_13
REMARK    7  A    between atoms: C_17  and  C_20
REMARK    8  A    between atoms: N_27  and  C_28
REMARK    9  A    between atoms: C_28  and  C_29
REMARK                            x       y       z     vdW  Elec       q    Type
REMARK                         _______ _______ _______ _____ _____    ______ ____
ROOT
ATOM      1  C   UNL     1       3.809   6.732   2.612  0.00  0.00    +0.173 A 
ATOM      2  N   UNL     1       3.227   7.449   1.672  0.00  0.00    -0.216 NA
ATOM      3  C   UNL     1       2.313   6.911   0.872  0.00  0.00    +0.117 A 
ATOM      4  C   UNL     1       1.930   5.563   0.979  0.00  0.00    +0.080 A 
ATOM      5  C   UNL     1       0.916   5.132   0.020  0.00  0.00    +0.010 A 
ATOM      6  C   UNL     1       0.429   6.037  -0.864  0.00  0.00    +0.057 A 
ATOM      7  S   UNL     1       1.317   7.528  -0.460  0.00  0.00    -0.076 S 
ATOM      8  C   UNL     1       2.585   4.808   1.999  0.00  0.00    +0.264 A 
ATOM      9  O   UNL     1       2.319   3.629   2.161  0.00  0.00    -0.267 OA
ATOM     10  N   UNL     1       3.498   5.414   2.779  0.00  0.00    -0.288 N 
ENDROOT
BRANCH   5  11
ATOM     11  C   UNL     1       0.426   3.738   0.018  0.00  0.00    +0.021 A 
ATOM     12  C   UNL     1      -0.864   3.276   0.028  0.00  0.00    +0.016 A 
ATOM     13  C   UNL     1      -1.079   1.914   0.017  0.00  0.00    +0.008 A 
ATOM     14  C   UNL     1      -0.013   1.076   0.008  0.00  0.00    +0.046 A 
ATOM     15  S   UNL     1       1.361   2.217   0.001  0.00  0.00    -0.097 S 
ENDBRANCH   5  11
BRANCH  10  16
ATOM     16  C   UNL     1       4.172   4.644   3.828  0.00  0.00    +0.124 C 
ATOM     17  C   UNL     1       5.445   4.013   3.259  0.00  0.00    +0.027 C 
ENDBRANCH  10  16
BRANCH   1  18
ATOM     18  S   UNL     1       5.013   7.482   3.658  0.00  0.00    -0.075 S 
BRANCH  18  19
ATOM     19  C   UNL     1       5.002   9.165   2.992  0.00  0.00    +0.137 C 
ATOM     20  C   UNL     1       5.516   9.147   1.551  0.00  0.00    +0.029 C 
BRANCH  19  25
ATOM     21  N   UNL     1       6.266  13.488   4.673  0.00  0.00    -0.299 N 
ATOM     22  C   UNL     1       6.478  12.158   4.628  0.00  0.00    +0.306 C 
ATOM     23  O   UNL     1       7.389  11.667   5.266  0.00  0.00    -0.252 OA
ATOM     24  N   UNL     1       5.681  11.373   3.877  0.00  0.00    -0.239 N 
ATOM     25  C   UNL     1       5.894  10.043   3.832  0.00  0.00    +0.233 C 
ATOM     26  O   UNL     1       6.802   9.553   4.468  0.00  0.00    -0.274 OA
ATOM     27  H   UNL     1       5.442  13.933   4.096  0.00  0.00    +0.150 HD
ATOM     28  H   UNL     1       4.857  11.818   3.300  0.00  0.00    +0.159 HD
BRANCH  21  30
ATOM     29  C   UNL     1       6.679  15.798   5.364  0.00  0.00    +0.024 C 
ATOM     30  C   UNL     1       7.133  14.342   5.489  0.00  0.00    +0.102 C 
ENDBRANCH  21  30
ENDBRANCH  19  25
ENDBRANCH  18  19
ENDBRANCH   1  18
TORSDOF 6
