REMARK  Name = ZINC24686099
REMARK  7 active torsions:
REMARK  status: ('A' for Active; 'I' for Inactive)
REMARK    1  A    between atoms: C_1  and  C_2
REMARK    2  A    between atoms: C_3  and  C_22
REMARK    3  A    between atoms: C_5  and  N_9
REMARK    4  A    between atoms: C_6  and  C_7
REMARK    5  A    between atoms: N_12  and  C_13
REMARK    6  A    between atoms: C_13  and  C_15
REMARK    7  A    between atoms: C_13  and  C_16
REMARK                            x       y       z     vdW  Elec       q    Type
REMARK                         _______ _______ _______ _____ _____    ______ ____
ROOT
ATOM      1  N   UNL     1       1.476   3.444   0.006  0.00  0.00    -0.263 N 
ATOM      2  C   UNL     1       2.749   3.886  -0.004  0.00  0.00    +0.305 C 
ATOM      3  O   UNL     1       3.668   3.091  -0.016  0.00  0.00    -0.252 OA
ATOM      4  N   UNL     1       3.003   5.210   0.000  0.00  0.00    -0.294 N 
ATOM      5  H   UNL     1       0.644   4.164   0.017  0.00  0.00    +0.157 HD
ATOM      6  H   UNL     1       2.171   5.930   0.011  0.00  0.00    +0.151 HD
ENDROOT
BRANCH   1  11
ATOM      7  C   UNL     1      -1.273  -0.807   0.009  0.00  0.00    +0.046 C 
ATOM      8  C   UNL     1       0.002  -0.004   0.002  0.00  0.00    -0.021 A 
ATOM      9  C   UNL     1       1.208  -0.602  -0.013  0.00  0.00    -0.007 A 
ATOM     10  S   UNL     1       2.344   0.769  -0.016  0.00  0.00    -0.077 S 
ATOM     11  C   UNL     1       1.214   2.081   0.002  0.00  0.00    +0.091 A 
ATOM     12  C   UNL     1      -0.018   1.439   0.010  0.00  0.00    +0.083 A 
ATOM     13  C   UNL     1       1.521  -2.076  -0.023  0.00  0.00    +0.052 C 
BRANCH  12  14
ATOM     14  C   UNL     1      -1.247   2.173   0.020  0.00  0.00    +0.102 C 
ATOM     15  N   UNL     1      -2.222   2.756   0.028  0.00  0.00    -0.191 NA
ENDBRANCH  12  14
ENDBRANCH   1  11
BRANCH   4  16
ATOM     16  C   UNL     1       4.387   5.690  -0.010  0.00  0.00    +0.100 C 
ATOM     17  C   UNL     1       4.897   5.745  -1.452  0.00  0.00    +0.030 C 
BRANCH  16  18
ATOM     18  C   UNL     1       4.446   7.090   0.606  0.00  0.00    +0.138 C 
ATOM     19  C   UNL     1       5.912   7.553   0.714  0.00  0.00    +0.035 C 
ATOM     20  C   UNL     1       5.958   8.861  -0.113  0.00  0.00    +0.031 C 
ATOM     21  C   UNL     1       4.467   9.283  -0.137  0.00  0.00    +0.160 C 
ATOM     22  O   UNL     1       3.763   8.027  -0.244  0.00  0.00    -0.375 OA
ENDBRANCH  16  18
ENDBRANCH   4  16
TORSDOF 4
