REMARK  Name = ZINC39630936
REMARK  13 active torsions:
REMARK  status: ('A' for Active; 'I' for Inactive)
REMARK    1  A    between atoms: C_1  and  C_2
REMARK    2  A    between atoms: C_2  and  N_3
REMARK    3  A    between atoms: C_4  and  C_10
REMARK    4  A    between atoms: C_6  and  C_8
REMARK    5  A    between atoms: C_14  and  C_23
REMARK    6  A    between atoms: N_25  and  C_26
REMARK    7  A    between atoms: C_26  and  C_27
REMARK    8  A    between atoms: C_27  and  C_28
REMARK    9  A    between atoms: C_27  and  C_29
REMARK   10  A    between atoms: C_27  and  C_30
REMARK   11  A    between atoms: C_30  and  N_31
REMARK   12  A    between atoms: N_31  and  C_32
REMARK   13  A    between atoms: N_31  and  C_33
REMARK                            x       y       z     vdW  Elec       q    Type
REMARK                         _______ _______ _______ _____ _____    ______ ____
ROOT
ATOM      1  C   UNL     1      -1.832  -0.047   4.061  0.00  0.00    +0.266 C 
ATOM      2  O   UNL     1      -2.518  -0.242   5.046  0.00  0.00    -0.268 OA
ATOM      3  N   UNL     1      -0.583   0.442   4.195  0.00  0.00    -0.295 N 
ATOM      4  C   UNL     1       0.429   0.652   3.133  0.00  0.00    +0.121 C 
ATOM      5  C   UNL     1       1.111   1.988   3.503  0.00  0.00    +0.100 C 
ATOM      6  C   UNL     1       0.886   2.138   5.017  0.00  0.00    -0.004 C 
ATOM      7  C   UNL     1       0.087   0.896   5.437  0.00  0.00    +0.115 C 
ATOM      8  C   UNL     1       0.081   3.400   5.309  0.00  0.00    -0.010 C 
ATOM      9  C   UNL     1      -0.081   3.557   6.824  0.00  0.00    -0.082 C 
ATOM     10  N   UNL     1       1.243   3.640   7.453  0.00  0.00    +0.379 N 
ATOM     11  C   UNL     1       1.976   2.385   7.246  0.00  0.00    -0.082 C 
ATOM     12  C   UNL     1       2.224   2.179   5.749  0.00  0.00    -0.010 C 
ATOM     13  H   UNL     1       1.761   4.403   7.043  0.00  0.00    -0.086 HD
ATOM     14  H   UNL     1       1.134   3.805   8.443  0.00  0.00    -0.086 HD
ENDROOT
BRANCH   1  16
ATOM     15  N   UNL     1      -2.191  -1.495   2.007  0.00  0.00    -0.258 N 
ATOM     16  C   UNL     1      -2.365  -0.344   2.723  0.00  0.00    +0.138 A 
ATOM     17  C   UNL     1      -3.146   0.486   1.936  0.00  0.00    +0.071 A 
ATOM     18  C   UNL     1      -3.396  -0.239   0.768  0.00  0.00    +0.075 A 
ATOM     19  N   UNL     1      -2.797  -1.398   0.879  0.00  0.00    -0.175 NA
ATOM     20  C   UNL     1      -4.207   0.230  -0.412  0.00  0.00    +0.069 C 
ATOM     21 BR   UNL     1      -3.746   2.231   2.352  0.00  0.00    -0.046 Br
BRANCH  15  23
ATOM     22  C   UNL     1       0.010  -2.558   1.935  0.00  0.00    +0.029 C 
ATOM     23  C   UNL     1      -1.425  -2.660   2.456  0.00  0.00    +0.141 C 
ENDBRANCH  15  23
ENDBRANCH   1  16
BRANCH   5  24
ATOM     24  C   UNL     1       0.467   3.130   2.759  0.00  0.00    +0.218 C 
ATOM     25  O   UNL     1      -0.707   3.074   2.461  0.00  0.00    -0.275 OA
ATOM     26  N   UNL     1       1.197   4.213   2.425  0.00  0.00    -0.315 N 
ATOM     27  H   UNL     1       2.151   4.227   2.598  0.00  0.00    +0.149 HD
BRANCH  26  28
ATOM     28  C   UNL     1       0.548   5.368   1.799  0.00  0.00    +0.108 C 
BRANCH  28  29
ATOM     29  C   UNL     1       1.606   6.413   1.438  0.00  0.00    -0.034 C 
ATOM     30  C   UNL     1       2.350   6.844   2.703  0.00  0.00    +0.010 C 
ATOM     31  C   UNL     1       2.599   5.810   0.442  0.00  0.00    +0.010 C 
BRANCH  29  32
ATOM     32  C   UNL     1       0.926   7.629   0.806  0.00  0.00    -0.072 C 
BRANCH  32  33
ATOM     33  N   UNL     1       1.946   8.602   0.395  0.00  0.00    +0.376 N 
ATOM     34  C   UNL     1       2.401   8.290  -0.966  0.00  0.00    -0.097 C 
ATOM     35  C   UNL     1       1.373   9.954   0.422  0.00  0.00    -0.097 C 
ATOM     36  H   UNL     1       2.729   8.557   1.030  0.00  0.00    -0.083 HD
ENDBRANCH  32  33
ENDBRANCH  29  32
ENDBRANCH  28  29
ENDBRANCH  26  28
ENDBRANCH   5  24
TORSDOF 7
