REMARK  Name = ZINC66370612
REMARK  8 active torsions:
REMARK  status: ('A' for Active; 'I' for Inactive)
REMARK    1  A    between atoms: C_1  and  C_2
REMARK    2  A    between atoms: C_7  and  N_8
REMARK    3  A    between atoms: C_10  and  C_13
REMARK    4  A    between atoms: N_15  and  N_16
REMARK    5  A    between atoms: C_17  and  C_19
REMARK    6  A    between atoms: C_19  and  N_20
REMARK    7  A    between atoms: C_21  and  C_26
REMARK    8  A    between atoms: C_23  and  C_25
REMARK                            x       y       z     vdW  Elec       q    Type
REMARK                         _______ _______ _______ _____ _____    ______ ____
ROOT
ATOM      1  C   UNL     1       0.574   0.643   5.902  0.00  0.00    +0.263 C 
ATOM      2  O   UNL     1       0.753  -0.428   6.449  0.00  0.00    -0.269 OA
ATOM      3  N   UNL     1       0.553   1.777   6.631  0.00  0.00    -0.230 N 
ATOM      4  H   UNL     1       0.410   2.632   6.195  0.00  0.00    +0.173 HD
ENDROOT
BRANCH   1   7
ATOM      5  N   UNL     1       0.169   0.117   2.335  0.00  0.00    -0.239 N 
ATOM      6  C   UNL     1       0.377  -0.370   3.572  0.00  0.00    +0.127 A 
ATOM      7  C   UNL     1       0.381   0.702   4.442  0.00  0.00    +0.076 A 
ATOM      8  C   UNL     1       0.163   1.867   3.671  0.00  0.00    +0.148 A 
ATOM      9  N   UNL     1       0.045   1.508   2.422  0.00  0.00    -0.174 NA
BRANCH   5  16
ATOM     10  C   UNL     1      -1.975   0.634   0.536  0.00  0.00    +0.046 C 
ATOM     11  C   UNL     1      -0.935  -0.420   0.254  0.00  0.00    -0.025 A 
ATOM     12  C   UNL     1      -1.003  -1.164  -0.908  0.00  0.00    +0.005 A 
ATOM     13  C   UNL     1      -0.049  -2.131  -1.168  0.00  0.00    +0.000 A 
ATOM     14  C   UNL     1       0.974  -2.357  -0.265  0.00  0.00    +0.002 A 
ATOM     15  C   UNL     1       1.046  -1.617   0.898  0.00  0.00    +0.028 A 
ATOM     16  C   UNL     1       0.094  -0.640   1.159  0.00  0.00    +0.068 A 
ENDBRANCH   5  16
ENDBRANCH   1   7
BRANCH   3  17
ATOM     17  N   UNL     1       0.737   1.721   8.019  0.00  0.00    -0.233 N 
ATOM     18  C   UNL     1       0.716   2.855   8.748  0.00  0.00    +0.251 C 
ATOM     19  O   UNL     1       0.537   3.923   8.202  0.00  0.00    -0.272 OA
ATOM     20  H   UNL     1       0.879   0.867   8.455  0.00  0.00    +0.173 HD
BRANCH  18  21
ATOM     21  C   UNL     1       0.913   2.795  10.240  0.00  0.00    +0.240 C 
BRANCH  21  22
ATOM     22  N   UNL     1       0.848   4.149  10.796  0.00  0.00    -0.259 N 
ATOM     23  C   UNL     1       1.888   4.993  10.954  0.00  0.00    +0.037 A 
ATOM     24  C   UNL     1       1.412   6.137  11.498  0.00  0.00    +0.047 A 
ATOM     25  C   UNL     1       0.033   5.987  11.678  0.00  0.00    +0.060 A 
ATOM     26  N   UNL     1      -0.307   4.797  11.252  0.00  0.00    -0.176 NA
ATOM     27  C   UNL     1      -0.900   7.019  12.257  0.00  0.00    +0.067 C 
ATOM     28  C   UNL     1       3.324   4.712  10.591  0.00  0.00    +0.065 C 
ENDBRANCH  21  22
ENDBRANCH  18  21
ENDBRANCH   3  17
TORSDOF 5
