REMARK  Name = ZINC08325729
REMARK  5 active torsions:
REMARK  status: ('A' for Active; 'I' for Inactive)
REMARK    1  A    between atoms: C_1  and  C_2
REMARK    2  A    between atoms: N_11  and  C_15
REMARK    3  A    between atoms: C_15  and  C_16
REMARK    4  A    between atoms: N_18  and  C_19
REMARK    5  A    between atoms: C_20  and  C_24
REMARK                            x       y       z     vdW  Elec       q    Type
REMARK                         _______ _______ _______ _____ _____    ______ ____
ROOT
ATOM      1  C   UNL     1       5.447  -0.974  -0.641  0.00  0.00    +0.010 C 
ATOM      2  C   UNL     1       5.738  -2.379  -1.171  0.00  0.00    +0.018 C 
ATOM      3  C   UNL     1       7.101  -2.847  -0.654  0.00  0.00    +0.006 C 
ATOM      4  C   UNL     1       7.382  -4.261  -1.168  0.00  0.00    +0.000 C 
ATOM      5  C   UNL     1       6.299  -5.215  -0.660  0.00  0.00    +0.003 C 
ATOM      6  C   UNL     1       4.933  -4.755  -1.177  0.00  0.00    +0.035 C 
ATOM      7  C   UNL     1       4.654  -3.338  -0.690  0.00  0.00    +0.115 C 
ATOM      8  C   UNL     1       3.293  -2.880  -1.159  0.00  0.00    +0.247 C 
ATOM      9  O   UNL     1       2.915  -2.755  -2.305  0.00  0.00    -0.273 OA
ATOM     10  N   UNL     1       2.586  -2.638  -0.036  0.00  0.00    -0.215 N 
ATOM     11  C   UNL     1       3.309  -2.886   1.064  0.00  0.00    +0.310 C 
ATOM     12  O   UNL     1       2.888  -2.745   2.195  0.00  0.00    -0.252 OA
ATOM     13  N   UNL     1       4.555  -3.308   0.775  0.00  0.00    -0.285 N 
ATOM     14  H   UNL     1       5.250  -3.544   1.410  0.00  0.00    +0.151 HD
ENDROOT
BRANCH  10  15
ATOM     15  C   UNL     1       1.199  -2.169  -0.021  0.00  0.00    +0.214 C 
BRANCH  15  16
ATOM     16  C   UNL     1       1.178  -0.662  -0.012  0.00  0.00    +0.236 C 
ATOM     17  O   UNL     1       2.220  -0.041  -0.018  0.00  0.00    -0.274 OA
ATOM     18  N   UNL     1       0.002  -0.004   0.002  0.00  0.00    -0.278 N 
ATOM     19  H   UNL     1      -0.831  -0.500   0.007  0.00  0.00    +0.155 HD
BRANCH  18  20
ATOM     20  C   UNL     1      -0.017   1.384   0.010  0.00  0.00    +0.089 A 
ATOM     21  C   UNL     1      -1.117   2.232   0.019  0.00  0.00    +0.080 A 
ATOM     22  C   UNL     1      -0.845   3.649   0.028  0.00  0.00    +0.028 A 
ATOM     23  C   UNL     1       0.447   4.026   0.018  0.00  0.00    +0.048 A 
ATOM     24  S   UNL     1       1.325   2.478   0.003  0.00  0.00    -0.081 S 
BRANCH  21  25
ATOM     25  C   UNL     1      -2.456   1.724   0.021  0.00  0.00    +0.102 C 
ATOM     26  N   UNL     1      -3.518   1.321   0.024  0.00  0.00    -0.191 NA
ENDBRANCH  21  25
ENDBRANCH  18  20
ENDBRANCH  15  16
ENDBRANCH  10  15
TORSDOF 4
