REMARK  Name = ZINC11074700
REMARK  3 active torsions:
REMARK  status: ('A' for Active; 'I' for Inactive)
REMARK    1  A    between atoms: C_7  and  C_11
REMARK    2  A    between atoms: C_17  and  C_19
REMARK    3  A    between atoms: C_20  and  C_21
REMARK                            x       y       z     vdW  Elec       q    Type
REMARK                         _______ _______ _______ _____ _____    ______ ____
ROOT
ATOM      1  C   UNL     1      -8.072   2.698   1.585  0.00  0.00    -0.039 C 
ATOM      2  C   UNL     1      -7.204   3.510   1.028  0.00  0.00    -0.004 C 
ATOM      3  C   UNL     1      -6.158   3.058   0.047  0.00  0.00    +0.135 C 
ATOM      4  N   UNL     1      -6.108   1.589   0.039  0.00  0.00    -0.294 N 
ATOM      5  C   UNL     1      -7.393   0.868   0.034  0.00  0.00    +0.113 C 
ATOM      6  C   UNL     1      -8.130   1.220   1.335  0.00  0.00    +0.054 C 
ATOM      7  C   UNL     1      -4.933   0.928   0.029  0.00  0.00    +0.240 C 
ATOM      8  O   UNL     1      -4.920  -0.289   0.022  0.00  0.00    -0.271 OA
ENDROOT
BRANCH   1  15
ATOM      9  C   UNL     1      -7.770   4.247   5.986  0.00  0.00    +0.001 A 
ATOM     10  C   UNL     1      -8.982   4.716   6.472  0.00  0.00    +0.002 A 
ATOM     11  C   UNL     1     -10.110   4.695   5.681  0.00  0.00    +0.026 A 
ATOM     12  C   UNL     1     -10.036   4.199   4.383  0.00  0.00    +0.047 A 
ATOM     13  C   UNL     1      -8.805   3.726   3.898  0.00  0.00    +0.007 A 
ATOM     14  C   UNL     1      -7.675   3.756   4.714  0.00  0.00    +0.010 A 
ATOM     15  C   UNL     1      -9.058   3.277   2.518  0.00  0.00    +0.003 A 
ATOM     16  C   UNL     1     -10.373   3.507   2.270  0.00  0.00    +0.091 A 
ATOM     17  N   UNL     1     -10.963   4.048   3.374  0.00  0.00    -0.360 N 
ATOM     18  H   UNL     1     -11.899   4.295   3.439  0.00  0.00    +0.165 HD
ENDBRANCH   1  15
BRANCH   7  19
ATOM     19  C   UNL     1      -3.675   1.673   0.028  0.00  0.00    +0.068 C 
ATOM     20  C   UNL     1      -2.498   1.011   0.019  0.00  0.00    +0.013 C 
BRANCH  20  21
ATOM     21  C   UNL     1      -1.234   1.760   0.018  0.00  0.00    -0.020 A 
ATOM     22  C   UNL     1      -0.013   1.076   0.008  0.00  0.00    +0.057 A 
ATOM     23  C   UNL     1       1.173   1.783   0.000  0.00  0.00    +0.168 A 
ATOM     24  C   UNL     1       1.153   3.179   0.008  0.00  0.00    +0.184 A 
ATOM     25  C   UNL     1      -0.058   3.859   0.024  0.00  0.00    +0.087 A 
ATOM     26  C   UNL     1      -1.246   3.159   0.032  0.00  0.00    +0.031 A 
ATOM     27 CL   UNL     1      -0.077   5.595   0.033  0.00  0.00    -0.080 Cl
ATOM     28  O   UNL     1       2.440   3.632  -0.002  0.00  0.00    -0.451 OA
ATOM     29  C   UNL     1       3.239   2.513  -0.429  0.00  0.00    +0.466 C 
ATOM     30  O   UNL     1       2.473   1.367  -0.015  0.00  0.00    -0.453 OA
ENDBRANCH  20  21
ENDBRANCH   7  19
TORSDOF 3
