REMARK  Name = ZINC15819656
REMARK  6 active torsions:
REMARK  status: ('A' for Active; 'I' for Inactive)
REMARK    1  A    between atoms: C_1  and  C_2
REMARK    2  A    between atoms: C_10  and  C_11
REMARK    3  A    between atoms: N_13  and  N_14
REMARK    4  A    between atoms: C_15  and  C_17
REMARK    5  A    between atoms: N_22  and  S_23
REMARK    6  A    between atoms: S_23  and  C_26
REMARK                            x       y       z     vdW  Elec       q    Type
REMARK                         _______ _______ _______ _____ _____    ______ ____
ROOT
ATOM      1  N   UNL     1      -0.141  -0.250   2.974  0.00  0.00    -0.233 N 
ATOM      2  C   UNL     1      -1.160   0.299   2.283  0.00  0.00    +0.248 C 
ATOM      3  O   UNL     1      -2.291  -0.108   2.443  0.00  0.00    -0.273 OA
ATOM      4  H   UNL     1       0.763   0.077   2.846  0.00  0.00    +0.173 HD
ENDROOT
BRANCH   2   5
ATOM      5  C   UNL     1      -0.894   1.421   1.312  0.00  0.00    +0.167 C 
ATOM      6  C   UNL     1      -0.523   0.841  -0.070  0.00  0.00    +0.031 C 
ATOM      7  C   UNL     1      -1.222   1.811  -1.058  0.00  0.00    +0.019 C 
ATOM      8  C   UNL     1      -2.521   2.156  -0.287  0.00  0.00    +0.110 C 
ATOM      9  N   UNL     1      -2.113   2.230   1.128  0.00  0.00    -0.165 NA
BRANCH   9  10
ATOM     10  S   UNL     1      -2.893   3.080   2.315  0.00  0.00    +0.062 S 
ATOM     11  O   UNL     1      -4.268   3.108   1.957  0.00  0.00    -0.153 OA
ATOM     12  O   UNL     1      -2.440   2.556   3.555  0.00  0.00    -0.153 OA
BRANCH  10  13
ATOM     13  C   UNL     1      -2.317   4.743   2.230  0.00  0.00    +0.106 A 
ATOM     14  C   UNL     1      -1.150   5.103   2.877  0.00  0.00    +0.031 A 
ATOM     15  C   UNL     1      -0.693   6.406   2.806  0.00  0.00    +0.040 A 
ATOM     16  C   UNL     1      -1.412   7.353   2.097  0.00  0.00    +0.124 A 
ATOM     17  C   UNL     1      -2.584   6.992   1.453  0.00  0.00    +0.040 A 
ATOM     18  C   UNL     1      -3.035   5.688   1.520  0.00  0.00    +0.031 A 
ATOM     19  F   UNL     1      -0.971   8.628   2.032  0.00  0.00    -0.205 F 
ENDBRANCH  10  13
ENDBRANCH   9  10
ENDBRANCH   2   5
BRANCH   1  22
ATOM     20  C   UNL     1       0.629  -1.841   4.568  0.00  0.00    +0.296 C 
ATOM     21  O   UNL     1       1.764  -1.432   4.408  0.00  0.00    -0.265 OA
ATOM     22  N   UNL     1      -0.389  -1.292   3.877  0.00  0.00    -0.228 N 
ATOM     23  H   UNL     1      -1.294  -1.618   4.005  0.00  0.00    +0.173 HD
BRANCH  20  33
ATOM     24  C   UNL     1       2.793  -3.276   6.280  0.00  0.00    +0.048 C 
ATOM     25  C   UNL     1       1.314  -3.561   6.264  0.00  0.00    +0.008 A 
ATOM     26  C   UNL     1       0.604  -4.570   7.050  0.00  0.00    +0.024 A 
ATOM     27  C   UNL     1       0.996  -5.523   7.992  0.00  0.00    +0.012 A 
ATOM     28  C   UNL     1       0.059  -6.339   8.560  0.00  0.00    +0.001 A 
ATOM     29  C   UNL     1      -1.278  -6.227   8.207  0.00  0.00    +0.004 A 
ATOM     30  C   UNL     1      -1.686  -5.293   7.279  0.00  0.00    +0.047 A 
ATOM     31  C   UNL     1      -0.751  -4.451   6.688  0.00  0.00    +0.136 A 
ATOM     32  O   UNL     1      -0.844  -3.463   5.778  0.00  0.00    -0.450 OA
ATOM     33  C   UNL     1       0.369  -2.934   5.516  0.00  0.00    +0.195 A 
ENDBRANCH  20  33
ENDBRANCH   1  22
TORSDOF 5
