REMARK  Name = ZINC45511222
REMARK  11 active torsions:
REMARK  status: ('A' for Active; 'I' for Inactive)
REMARK    1  A    between atoms: C_1  and  C_2
REMARK    2  A    between atoms: C_2  and  N_3
REMARK    3  A    between atoms: C_5  and  C_14
REMARK    4  A    between atoms: C_14  and  N_15
REMARK    5  A    between atoms: N_15  and  C_16
REMARK    6  A    between atoms: N_15  and  C_17
REMARK    7  A    between atoms: C_17  and  C_18
REMARK    8  A    between atoms: C_20  and  O_21
REMARK    9  A    between atoms: C_30  and  O_32
REMARK   10  A    between atoms: O_32  and  C_33
REMARK   11  A    between atoms: C_33  and  C_34
REMARK                            x       y       z     vdW  Elec       q    Type
REMARK                         _______ _______ _______ _____ _____    ______ ____
ROOT
ATOM      1  C   UNL     1       1.090   0.138  -8.596  0.00  0.00    -0.047 A 
ATOM      2  C   UNL     1       1.140   1.462  -8.988  0.00  0.00    +0.090 A 
ATOM      3  C   UNL     1       2.100   1.878  -9.898  0.00  0.00    +0.285 A 
ATOM      4  O   UNL     1       2.989   1.021 -10.412  0.00  0.00    -0.425 OA
ATOM      5  C   UNL     1       2.985  -0.282 -10.064  0.00  0.00    +0.141 A 
ATOM      6  C   UNL     1       2.032  -0.761  -9.137  0.00  0.00    +0.019 A 
ATOM      7  C   UNL     1       2.028  -2.118  -8.767  0.00  0.00    +0.013 A 
ATOM      8  C   UNL     1       2.943  -2.968  -9.299  0.00  0.00    +0.024 A 
ATOM      9  C   UNL     1       3.899  -2.500 -10.219  0.00  0.00    +0.040 A 
ATOM     10  C   UNL     1       3.910  -1.158 -10.604  0.00  0.00    +0.070 A 
ATOM     11  N   UNL     1       4.810  -3.361 -10.744  0.00  0.00    -0.251 N 
ATOM     12  C   UNL     1       5.891  -2.893 -11.353  0.00  0.00    +0.405 C 
ATOM     13  O   UNL     1       6.132  -1.698 -11.333  0.00  0.00    -0.226 OA
ATOM     14  H   UNL     1       4.670  -4.319 -10.674  0.00  0.00    +0.158 HD
ENDROOT
BRANCH   3  15
ATOM     15  O   UNL     1       2.138   3.171 -10.272  0.00  0.00    -0.480 OA
ATOM     16  H   UNL     1       2.836   3.376 -10.908  0.00  0.00    +0.295 HD
ENDBRANCH   3  15
BRANCH   1  17
ATOM     17  C   UNL     1       0.054  -0.334  -7.607  0.00  0.00    -0.042 C 
BRANCH  17  18
ATOM     18  N   UNL     1       0.537  -0.094  -6.241  0.00  0.00    +0.383 N 
ATOM     19  C   UNL     1       0.663   1.352  -6.012  0.00  0.00    -0.096 C 
ATOM     20  H   UNL     1       1.438  -0.533  -6.121  0.00  0.00    -0.082 HD
BRANCH  18  21
ATOM     21  C   UNL     1      -0.416  -0.661  -5.278  0.00  0.00    -0.032 C 
BRANCH  21  24
ATOM     22  N   UNL     1      -0.247  -0.999  -1.514  0.00  0.00    -0.324 N 
ATOM     23  C   UNL     1      -0.849  -1.115  -2.853  0.00  0.00    +0.147 C 
ATOM     24  C   UNL     1       0.146  -0.523  -3.862  0.00  0.00    +0.174 C 
ATOM     25  O   UNL     1       1.381  -1.234  -3.762  0.00  0.00    -0.487 OA
ATOM     26  C   UNL     1       1.913  -1.410  -2.523  0.00  0.00    +0.142 A 
ATOM     27  C   UNL     1       1.120  -1.295  -1.386  0.00  0.00    +0.072 A 
ATOM     28  C   UNL     1       1.676  -1.475  -0.130  0.00  0.00    +0.027 A 
ATOM     29  C   UNL     1       3.023  -1.764  -0.008  0.00  0.00    +0.002 A 
ATOM     30  C   UNL     1       3.813  -1.871  -1.137  0.00  0.00    +0.004 A 
ATOM     31  C   UNL     1       3.261  -1.704  -2.390  0.00  0.00    +0.047 A 
BRANCH  22  33
ATOM     32  C   UNL     1      -0.999   0.939  -0.226  0.00  0.00    +0.024 C 
ATOM     33  C   UNL     1      -1.044  -0.585  -0.357  0.00  0.00    +0.102 C 
ENDBRANCH  22  33
ENDBRANCH  21  24
ENDBRANCH  18  21
ENDBRANCH  17  18
ENDBRANCH   1  17
BRANCH  12  34
ATOM     34  O   UNL     1       6.725  -3.740 -11.996  0.00  0.00    -0.450 OA
BRANCH  34  35
ATOM     35  C   UNL     1       7.870  -3.167 -12.630  0.00  0.00    +0.230 C 
ATOM     36  C   UNL     1       8.689  -4.271 -13.300  0.00  0.00    +0.048 C 
ENDBRANCH  34  35
ENDBRANCH  12  34
TORSDOF 8
