REMARK  Name = ZINC07675833
REMARK  10 active torsions:
REMARK  status: ('A' for Active; 'I' for Inactive)
REMARK    1  A    between atoms: C_1  and  C_2
REMARK    2  A    between atoms: C_5  and  S_8
REMARK    3  A    between atoms: S_8  and  C_9
REMARK    4  A    between atoms: C_9  and  C_10
REMARK    5  A    between atoms: C_10  and  N_11
REMARK    6  A    between atoms: C_12  and  C_14
REMARK    7  A    between atoms: C_14  and  N_15
REMARK    8  A    between atoms: N_24  and  C_25
REMARK    9  A    between atoms: C_25  and  C_26
REMARK   10  A    between atoms: C_26  and  O_27
REMARK                            x       y       z     vdW  Elec       q    Type
REMARK                         _______ _______ _______ _____ _____    ______ ____
ROOT
ATOM      1  N   UNL     1       0.159  -9.996   5.248  0.00  0.00    -0.305 N 
ATOM      2  C   UNL     1      -0.945 -10.829   5.322  0.00  0.00    +0.068 A 
ATOM      3  C   UNL     1      -2.315 -10.614   5.302  0.00  0.00    +0.028 A 
ATOM      4  C   UNL     1      -3.179 -11.685   5.398  0.00  0.00    +0.002 A 
ATOM      5  C   UNL     1      -2.688 -12.976   5.515  0.00  0.00    +0.002 A 
ATOM      6  C   UNL     1      -1.331 -13.208   5.537  0.00  0.00    +0.028 A 
ATOM      7  C   UNL     1      -0.442 -12.135   5.440  0.00  0.00    +0.065 A 
ATOM      8  N   UNL     1       0.914 -12.043   5.434  0.00  0.00    -0.327 N 
ATOM      9  C   UNL     1       1.269 -10.788   5.315  0.00  0.00    +0.175 A 
ATOM     10  N   UNL     1       2.571 -10.334   5.267  0.00  0.00    -0.314 N 
ATOM     11  H   UNL     1       2.750  -9.385   5.180  0.00  0.00    +0.149 HD
ATOM     12  H   UNL     1       1.526 -12.793   5.502  0.00  0.00    +0.169 HD
ENDROOT
BRANCH   1  13
ATOM     13  C   UNL     1       0.140  -8.537   5.116  0.00  0.00    +0.220 C 
BRANCH  13  15
ATOM     14  N   UNL     1       0.109  -6.867   3.292  0.00  0.00    -0.313 N 
ATOM     15  C   UNL     1       0.128  -8.164   3.656  0.00  0.00    +0.233 C 
ATOM     16  O   UNL     1       0.135  -9.032   2.809  0.00  0.00    -0.274 OA
ATOM     17  H   UNL     1       0.103  -6.173   3.969  0.00  0.00    +0.149 HD
BRANCH  14  18
ATOM     18  C   UNL     1       0.097  -6.505   1.872  0.00  0.00    +0.115 C 
BRANCH  18  19
ATOM     19  C   UNL     1       0.077  -4.981   1.735  0.00  0.00    +0.093 C 
BRANCH  19  20
ATOM     20  S   UNL     1       0.062  -4.533  -0.023  0.00  0.00    -0.124 S 
BRANCH  20  25
ATOM     21  C   UNL     1      -0.018   1.503   0.010  0.00  0.00    +0.044 C 
ATOM     22  C   UNL     1       0.002  -0.004   0.002  0.00  0.00    -0.050 A 
ATOM     23  C   UNL     1       0.006  -0.687  -1.200  0.00  0.00    +0.004 A 
ATOM     24  C   UNL     1       0.024  -2.068  -1.212  0.00  0.00    +0.015 A 
ATOM     25  C   UNL     1       0.039  -2.771  -0.013  0.00  0.00    +0.008 A 
ATOM     26  C   UNL     1       0.036  -2.081   1.193  0.00  0.00    +0.015 A 
ATOM     27  C   UNL     1       0.023  -0.700   1.197  0.00  0.00    +0.004 A 
ENDBRANCH  20  25
ENDBRANCH  19  20
ENDBRANCH  18  19
ENDBRANCH  14  18
ENDBRANCH  13  15
ENDBRANCH   1  13
BRANCH  10  28
ATOM     28  C   UNL     1       3.682 -11.286   5.348  0.00  0.00    +0.132 C 
BRANCH  28  29
ATOM     29  C   UNL     1       5.009 -10.528   5.273  0.00  0.00    +0.174 C 
BRANCH  29  30
ATOM     30  O   UNL     1       5.144  -9.689   6.423  0.00  0.00    -0.393 OA
ATOM     31  H   UNL     1       5.965  -9.178   6.442  0.00  0.00    +0.209 HD
ENDBRANCH  29  30
ENDBRANCH  28  29
ENDBRANCH  10  28
TORSDOF 9
