REMARK  Name = ZINC39851362
REMARK  11 active torsions:
REMARK  status: ('A' for Active; 'I' for Inactive)
REMARK    1  A    between atoms: C_1  and  C_2
REMARK    2  A    between atoms: C_2  and  N_3
REMARK    3  A    between atoms: C_4  and  N_30
REMARK    4  A    between atoms: C_5  and  C_13
REMARK    5  A    between atoms: C_6  and  C_12
REMARK    6  A    between atoms: C_7  and  C_10
REMARK    7  A    between atoms: N_17  and  C_21
REMARK    8  A    between atoms: C_21  and  C_23
REMARK    9  A    between atoms: C_21  and  C_24
REMARK   10  A    between atoms: N_30  and  C_31
REMARK   11  A    between atoms: C_31  and  C_32
REMARK                            x       y       z     vdW  Elec       q    Type
REMARK                         _______ _______ _______ _____ _____    ______ ____
ROOT
ATOM      1  N   UNL     1      -1.972  -2.024  -0.661  0.00  0.00    -0.296 N 
ATOM      2  C   UNL     1      -2.185  -2.028   0.680  0.00  0.00    +0.109 A 
ATOM      3  C   UNL     1      -3.438  -2.388   1.203  0.00  0.00    +0.019 A 
ATOM      4  C   UNL     1      -4.475  -2.745   0.326  0.00  0.00    -0.017 A 
ATOM      5  C   UNL     1      -4.232  -2.733  -1.045  0.00  0.00    +0.120 A 
ATOM      6  C   UNL     1      -2.951  -2.357  -1.522  0.00  0.00    +0.270 A 
ATOM      7  O   UNL     1      -2.733  -2.339  -2.720  0.00  0.00    -0.266 OA
ATOM      8  C   UNL     1      -5.829  -3.136   0.860  0.00  0.00    +0.046 C 
ENDROOT
BRANCH   3   9
ATOM      9  C   UNL     1      -3.660  -2.391   2.650  0.00  0.00    +0.032 C 
ATOM     10  C   UNL     1      -4.540  -1.514   3.205  0.00  0.00    +0.077 C 
ATOM     11  C   UNL     1      -5.351  -0.521   2.577  0.00  0.00    +0.259 C 
ATOM     12  O   UNL     1      -5.321  -0.357   1.370  0.00  0.00    -0.269 OA
ATOM     13  N   UNL     1      -6.136   0.216   3.344  0.00  0.00    -0.248 N 
ATOM     14  C   UNL     1      -6.168   0.035   4.683  0.00  0.00    +0.121 C 
ATOM     15  S   UNL     1      -7.098   0.867   5.856  0.00  0.00    -0.027 S 
ATOM     16  S   UNL     1      -5.001  -1.297   4.919  0.00  0.00    -0.061 S 
BRANCH  13  17
ATOM     17  C   UNL     1      -6.981   1.245   2.734  0.00  0.00    +0.110 C 
ATOM     18  C   UNL     1      -6.888   1.145   1.210  0.00  0.00    +0.033 C 
BRANCH  17  19
ATOM     19  C   UNL     1      -6.514   2.608   3.178  0.00  0.00    -0.027 A 
ATOM     20  C   UNL     1      -5.166   2.912   3.171  0.00  0.00    +0.005 A 
ATOM     21  C   UNL     1      -4.737   4.161   3.577  0.00  0.00    +0.000 A 
ATOM     22  C   UNL     1      -5.657   5.107   3.990  0.00  0.00    +0.000 A 
ATOM     23  C   UNL     1      -7.005   4.803   3.997  0.00  0.00    +0.000 A 
ATOM     24  C   UNL     1      -7.434   3.555   3.586  0.00  0.00    +0.005 A 
ENDBRANCH  17  19
ENDBRANCH  13  17
ENDBRANCH   3   9
BRANCH   1  26
ATOM     25  C   UNL     1      -0.576  -0.122  -1.305  0.00  0.00    +0.027 C 
ATOM     26  C   UNL     1      -0.655  -1.644  -1.179  0.00  0.00    +0.123 C 
ENDBRANCH   1  26
BRANCH   5  27
ATOM     27  C   UNL     1      -5.269  -3.092  -1.965  0.00  0.00    +0.105 C 
ATOM     28  N   UNL     1      -6.090  -3.377  -2.696  0.00  0.00    -0.191 NA
ENDBRANCH   5  27
BRANCH   2  29
ATOM     29  N   UNL     1      -1.173  -1.680   1.527  0.00  0.00    -0.326 N 
ATOM     30  H   UNL     1      -1.002  -0.745   1.720  0.00  0.00    +0.148 HD
BRANCH  29  31
ATOM     31  C   UNL     1      -0.344  -2.718   2.144  0.00  0.00    +0.138 C 
BRANCH  31  32
ATOM     32  C   UNL     1       0.611  -2.084   3.121  0.00  0.00    -0.030 A 
ATOM     33  C   UNL     1       1.857  -1.661   2.695  0.00  0.00    +0.005 A 
ATOM     34  C   UNL     1       2.733  -1.079   3.591  0.00  0.00    +0.000 A 
ATOM     35  C   UNL     1       2.365  -0.919   4.914  0.00  0.00    +0.000 A 
ATOM     36  C   UNL     1       1.119  -1.341   5.340  0.00  0.00    +0.000 A 
ATOM     37  C   UNL     1       0.241  -1.919   4.443  0.00  0.00    +0.005 A 
ENDBRANCH  31  32
ENDBRANCH  29  31
ENDBRANCH   2  29
TORSDOF 8
