REMARK  Name = ZINC20205720
REMARK  5 active torsions:
REMARK  status: ('A' for Active; 'I' for Inactive)
REMARK    1  A    between atoms: C_1  and  C_2
REMARK    2  A    between atoms: C_5  and  C_9
REMARK    3  A    between atoms: C_12  and  C_14
REMARK    4  A    between atoms: C_25  and  S_26
REMARK    5  A    between atoms: S_26  and  C_29
REMARK                            x       y       z     vdW  Elec       q    Type
REMARK                         _______ _______ _______ _____ _____    ______ ____
ROOT
ATOM      1  C   UNL     1      -0.871  -7.469  -1.900  0.00  0.00    +0.062 C 
ATOM      2  C   UNL     1      -0.702  -7.282  -3.264  0.00  0.00    +0.082 C 
ATOM      3  C   UNL     1      -0.559  -8.430  -4.202  0.00  0.00    +0.138 C 
ATOM      4  N   UNL     1      -1.149  -9.583  -4.024  0.00  0.00    -0.284 NA
ATOM      5  N   UNL     1       0.276  -8.147  -5.301  0.00  0.00    -0.201 N 
ATOM      6  C   UNL     1       0.452  -6.829  -5.669  0.00  0.00    +0.183 C 
ATOM      7  N   UNL     1      -0.003  -5.772  -5.035  0.00  0.00    -0.152 NA
ATOM      8  C   UNL     1      -0.661  -5.931  -3.868  0.00  0.00    +0.273 C 
ATOM      9  O   UNL     1      -1.205  -4.985  -3.321  0.00  0.00    -0.268 OA
ATOM     10  S   UNL     1       1.372  -6.940  -7.055  0.00  0.00    +0.049 S 
ATOM     11  N   UNL     1       1.609  -8.599  -7.092  0.00  0.00    -0.174 NA
ATOM     12  C   UNL     1       0.941  -9.040  -6.072  0.00  0.00    +0.257 C 
ATOM     13  H   UNL     1      -1.715  -9.724  -3.249  0.00  0.00    +0.188 HD
ENDROOT
BRANCH   1  17
ATOM     14  C   UNL     1      -0.422  -4.342  -0.266  0.00  0.00    +0.136 A 
ATOM     15  C   UNL     1      -0.830  -5.102   0.810  0.00  0.00    +0.050 A 
ATOM     16  C   UNL     1      -1.056  -6.393   0.334  0.00  0.00    +0.050 A 
ATOM     17  C   UNL     1      -0.776  -6.375  -1.024  0.00  0.00    +0.129 A 
ATOM     18  O   UNL     1      -0.400  -5.122  -1.360  0.00  0.00    -0.455 OA
BRANCH  14  23
ATOM     19  C   UNL     1       0.938   1.246  -0.104  0.00  0.00    +0.045 C 
ATOM     20  C   UNL     1       0.582  -0.218  -0.146  0.00  0.00    -0.032 A 
ATOM     21  C   UNL     1       0.647  -0.908  -1.343  0.00  0.00    +0.005 A 
ATOM     22  C   UNL     1       0.323  -2.248  -1.389  0.00  0.00    +0.012 A 
ATOM     23  C   UNL     1      -0.073  -2.909  -0.223  0.00  0.00    +0.019 A 
ATOM     24  C   UNL     1      -0.136  -2.206   0.983  0.00  0.00    +0.031 A 
ATOM     25  C   UNL     1       0.197  -0.867   1.015  0.00  0.00    +0.045 A 
ATOM     26 CL   UNL     1       0.125   0.007   2.513  0.00  0.00    -0.083 Cl
ENDBRANCH  14  23
ENDBRANCH   1  17
BRANCH  12  27
ATOM     27  S   UNL     1       0.900 -10.761  -5.696  0.00  0.00    +0.026 S 
ATOM     28  O   UNL     1       1.939 -11.328  -6.481  0.00  0.00    -0.167 OA
ATOM     29  O   UNL     1       0.948 -10.823  -4.277  0.00  0.00    -0.167 OA
ATOM     30  C   UNL     1      -0.716 -11.330  -6.292  0.00  0.00    +0.203 C 
ENDBRANCH  12  27
TORSDOF 3
