REMARK  Name = ZINC10149375
REMARK  10 active torsions:
REMARK  status: ('A' for Active; 'I' for Inactive)
REMARK    1  A    between atoms: C_1  and  C_2
REMARK    2  A    between atoms: C_2  and  C_3
REMARK    3  A    between atoms: C_4  and  C_27
REMARK    4  A    between atoms: C_6  and  N_11
REMARK    5  A    between atoms: C_7  and  C_8
REMARK    6  A    between atoms: C_12  and  C_14
REMARK    7  A    between atoms: C_14  and  C_16
REMARK    8  A    between atoms: C_14  and  O_17
REMARK    9  A    between atoms: O_17  and  C_18
REMARK   10  A    between atoms: C_23  and  N_24
REMARK                            x       y       z     vdW  Elec       q    Type
REMARK                         _______ _______ _______ _____ _____    ______ ____
ROOT
ATOM      1  N   UNL     1      -2.818   0.945   2.518  0.00  0.00    -0.276 N 
ATOM      2  C   UNL     1      -3.521   0.467   3.563  0.00  0.00    +0.258 C 
ATOM      3  O   UNL     1      -4.629   0.006   3.388  0.00  0.00    -0.271 OA
ATOM      4  H   UNL     1      -1.931   1.314   2.658  0.00  0.00    +0.155 HD
ENDROOT
BRANCH   1   8
ATOM      5  C   UNL     1      -3.588   1.184  -1.144  0.00  0.00    -0.024 A 
ATOM      6  C   UNL     1      -4.803   0.624  -1.002  0.00  0.00    -0.008 A 
ATOM      7  S   UNL     1      -4.907   0.308   0.748  0.00  0.00    -0.078 S 
ATOM      8  C   UNL     1      -3.360   0.910   1.242  0.00  0.00    +0.084 A 
ATOM      9  C   UNL     1      -2.795   1.350   0.051  0.00  0.00    +0.068 A 
ATOM     10  C   UNL     1      -5.829   0.335  -2.067  0.00  0.00    +0.052 C 
BRANCH   9  11
ATOM     11  C   UNL     1      -1.457   1.948   0.009  0.00  0.00    +0.244 C 
ATOM     12  O   UNL     1      -1.324   3.151   0.140  0.00  0.00    -0.270 OA
ATOM     13  N   UNL     1      -0.375   1.166  -0.173  0.00  0.00    -0.325 N 
ATOM     14  H   UNL     1      -0.481   0.208  -0.276  0.00  0.00    +0.145 HD
ATOM     15  H   UNL     1       0.510   1.563  -0.204  0.00  0.00    +0.145 HD
ENDBRANCH   9  11
BRANCH   5  17
ATOM     16  C   UNL     1      -2.325   0.460  -3.151  0.00  0.00    +0.009 C 
ATOM     17  C   UNL     1      -3.076   1.619  -2.493  0.00  0.00    +0.033 C 
ENDBRANCH   5  17
ENDBRANCH   1   8
BRANCH   2  18
ATOM     18  C   UNL     1      -2.932   0.506   4.949  0.00  0.00    +0.256 C 
ATOM     19  C   UNL     1      -2.749   1.961   5.386  0.00  0.00    +0.062 C 
BRANCH  18  20
ATOM     20  O   UNL     1      -3.811  -0.158   5.860  0.00  0.00    -0.478 OA
BRANCH  20  21
ATOM     21  C   UNL     1      -3.256  -0.675   6.987  0.00  0.00    +0.152 A 
ATOM     22  C   UNL     1      -1.916  -0.449   7.269  0.00  0.00    +0.048 A 
ATOM     23  C   UNL     1      -1.355  -0.975   8.416  0.00  0.00    +0.004 A 
ATOM     24  C   UNL     1      -2.127  -1.725   9.284  0.00  0.00    +0.002 A 
ATOM     25  C   UNL     1      -3.462  -1.951   9.006  0.00  0.00    +0.036 A 
ATOM     26  C   UNL     1      -4.029  -1.424   7.862  0.00  0.00    +0.168 A 
BRANCH  26  27
ATOM     27  N   UNL     1      -5.460  -1.661   7.568  0.00  0.00    +0.060 N 
ATOM     28  O   UNL     1      -6.139  -2.319   8.336  0.00  0.00    -0.126 OA
ATOM     29  O   UNL     1      -5.959  -1.200   6.557  0.00  0.00    -0.126 OA
ENDBRANCH  26  27
ENDBRANCH  20  21
ENDBRANCH  18  20
ENDBRANCH   2  18
TORSDOF 7
