REMARK  Name = ZINC01906741
REMARK  7 active torsions:
REMARK  status: ('A' for Active; 'I' for Inactive)
REMARK    1  A    between atoms: C_1  and  C_2
REMARK    2  A    between atoms: C_5  and  S_8
REMARK    3  A    between atoms: N_6  and  N_7
REMARK    4  A    between atoms: S_8  and  C_9
REMARK    5  A    between atoms: C_9  and  C_10
REMARK    6  A    between atoms: C_16  and  C_18
REMARK    7  A    between atoms: C_18  and  C_19
REMARK                            x       y       z     vdW  Elec       q    Type
REMARK                         _______ _______ _______ _____ _____    ______ ____
ROOT
ATOM      1  C   UNL     1       2.506   2.217  -5.266  0.00  0.00    +0.229 C 
ATOM      2  O   UNL     1       3.494   1.830  -4.678  0.00  0.00    -0.275 OA
ATOM      3  N   UNL     1       2.599   2.616  -6.550  0.00  0.00    -0.264 N 
ATOM      4  C   UNL     1       3.827   2.583  -7.201  0.00  0.00    +0.165 A 
ATOM      5  N   UNL     1       5.001   2.205  -6.736  0.00  0.00    -0.233 NA
ATOM      6  C   UNL     1       6.078   2.231  -7.497  0.00  0.00    +0.124 A 
ATOM      7  C   UNL     1       5.956   2.670  -8.774  0.00  0.00    +0.015 A 
ATOM      8  S   UNL     1       4.209   3.038  -8.833  0.00  0.00    -0.057 S 
ATOM      9  H   UNL     1       1.809   2.926  -7.020  0.00  0.00    +0.157 HD
ENDROOT
BRANCH   1  10
ATOM     10  C   UNL     1       1.175   2.253  -4.560  0.00  0.00    +0.173 C 
BRANCH  10  11
ATOM     11  S   UNL     1       1.377   1.661  -2.862  0.00  0.00    -0.075 S 
BRANCH  11  16
ATOM     12  C   UNL     1      -3.042   1.595   0.090  0.00  0.00    +0.090 C 
ATOM     13  C   UNL     1      -2.079   1.768  -1.057  0.00  0.00    +0.148 A 
ATOM     14  N   UNL     1      -2.369   2.211  -2.248  0.00  0.00    -0.132 NA
ATOM     15  N   UNL     1      -1.313   2.232  -2.980  0.00  0.00    -0.121 NA
ATOM     16  C   UNL     1      -0.282   1.804  -2.288  0.00  0.00    +0.209 A 
ATOM     17  N   UNL     1      -0.741   1.490  -1.041  0.00  0.00    -0.228 N 
BRANCH  17  18
ATOM     18  N   UNL     1      -0.012   1.005   0.008  0.00  0.00    -0.295 N 
ATOM     19  H   UNL     1       0.002  -0.004   0.002  0.00  0.00    +0.163 HD
ATOM     20  H   UNL     1       0.925   1.379   0.001  0.00  0.00    +0.163 HD
ENDBRANCH  17  18
ENDBRANCH  11  16
ENDBRANCH  10  11
ENDBRANCH   1  10
BRANCH   7  21
ATOM     21  C   UNL     1       7.005   2.811  -9.846  0.00  0.00    +0.079 C 
BRANCH  21  22
ATOM     22  C   UNL     1       7.091   1.530 -10.636  0.00  0.00    -0.042 A 
ATOM     23  C   UNL     1       7.965   0.533 -10.242  0.00  0.00    +0.005 A 
ATOM     24  C   UNL     1       8.041  -0.644 -10.963  0.00  0.00    +0.015 A 
ATOM     25  C   UNL     1       7.250  -0.820 -12.084  0.00  0.00    +0.018 A 
ATOM     26  C   UNL     1       6.379   0.179 -12.480  0.00  0.00    +0.015 A 
ATOM     27  C   UNL     1       6.300   1.354 -11.755  0.00  0.00    +0.005 A 
ATOM     28 BR   UNL     1       7.357  -2.428 -13.074  0.00  0.00    -0.050 Br
ENDBRANCH  21  22
ENDBRANCH   7  21
TORSDOF 6
