REMARK  Name = ZINC39237742
REMARK  6 active torsions:
REMARK  status: ('A' for Active; 'I' for Inactive)
REMARK    1  A    between atoms: C_1  and  C_2
REMARK    2  A    between atoms: C_4  and  C_32
REMARK    3  A    between atoms: C_10  and  C_17
REMARK    4  A    between atoms: C_20  and  C_22
REMARK    5  A    between atoms: C_22  and  O_23
REMARK    6  A    between atoms: O_23  and  C_24
REMARK                            x       y       z     vdW  Elec       q    Type
REMARK                         _______ _______ _______ _____ _____    ______ ____
ROOT
ATOM      1  C   UNL     1      -0.018   1.503   0.010  0.00  0.00    +0.044 C 
ATOM      2  C   UNL     1       0.002  -0.004   0.002  0.00  0.00    -0.037 A 
ATOM      3  C   UNL     1       0.006  -0.696  -1.189  0.00  0.00    +0.033 A 
ATOM      4  C   UNL     1       0.023  -2.081  -1.193  0.00  0.00    +0.108 A 
ATOM      5  N   UNL     1       0.069  -2.754  -0.057  0.00  0.00    -0.239 NA
ATOM      6  C   UNL     1       0.095  -2.144   1.104  0.00  0.00    +0.108 A 
ATOM      7  C   UNL     1       0.023  -0.728   1.217  0.00  0.00    +0.033 A 
ATOM      8  C   UNL     1      -0.068  -0.212   2.582  0.00  0.00    +0.076 C 
ATOM      9  N   UNL     1      -0.670   0.806   3.143  0.00  0.00    -0.229 NA
ATOM     10  C   UNL     1      -0.809   0.894   4.472  0.00  0.00    +0.188 C 
ATOM     11  N   UNL     1      -0.519  -0.077   5.331  0.00  0.00    -0.157 NA
ATOM     12  C   UNL     1       0.228  -1.125   4.968  0.00  0.00    +0.257 C 
ATOM     13  O   UNL     1       0.494  -2.024   5.741  0.00  0.00    -0.272 OA
ATOM     14  C   UNL     1       0.721  -1.125   3.541  0.00  0.00    +0.190 C 
ATOM     15  S   UNL     1       0.233  -2.735   2.783  0.00  0.00    -0.086 S 
ENDROOT
BRANCH  10  16
ATOM     16  C   UNL     1      -1.318   2.154   5.019  0.00  0.00    +0.170 A 
ATOM     17  C   UNL     1      -1.524   2.436   6.353  0.00  0.00    +0.053 A 
ATOM     18  C   UNL     1      -2.015   3.748   6.412  0.00  0.00    +0.049 A 
ATOM     19  C   UNL     1      -2.089   4.205   5.142  0.00  0.00    +0.143 A 
ATOM     20  O   UNL     1      -1.664   3.247   4.308  0.00  0.00    -0.453 OA
BRANCH  19  21
ATOM     21  C   UNL     1      -2.567   5.574   4.731  0.00  0.00    +0.303 C 
BRANCH  21  22
ATOM     22  O   UNL     1      -1.458   6.475   4.696  0.00  0.00    -0.483 OA
BRANCH  22  23
ATOM     23  C   UNL     1      -1.718   7.761   4.341  0.00  0.00    +0.139 A 
ATOM     24  C   UNL     1      -3.015   8.149   4.038  0.00  0.00    +0.048 A 
ATOM     25  C   UNL     1      -3.278   9.456   3.677  0.00  0.00    +0.023 A 
ATOM     26  C   UNL     1      -2.249  10.379   3.618  0.00  0.00    +0.043 A 
ATOM     27  C   UNL     1      -0.954   9.995   3.919  0.00  0.00    +0.043 A 
ATOM     28  C   UNL     1      -0.688   8.689   4.286  0.00  0.00    +0.084 A 
ATOM     29 CL   UNL     1       0.935   8.209   4.671  0.00  0.00    -0.080 Cl
ATOM     30 CL   UNL     1      -2.582  12.021   3.163  0.00  0.00    -0.083 Cl
ENDBRANCH  22  23
ENDBRANCH  21  22
ENDBRANCH  19  21
ENDBRANCH  10  16
BRANCH   4  31
ATOM     31  C   UNL     1      -0.011  -2.826  -2.503  0.00  0.00    +0.390 C 
ATOM     32  F   UNL     1      -0.649  -4.057  -2.323  0.00  0.00    -0.202 F 
ATOM     33  F   UNL     1      -0.712  -2.071  -3.450  0.00  0.00    -0.202 F 
ENDBRANCH   4  31
TORSDOF 5
