REMARK  Name = ZINC20491830
REMARK  5 active torsions:
REMARK  status: ('A' for Active; 'I' for Inactive)
REMARK    1  A    between atoms: C_1  and  C_2
REMARK    2  A    between atoms: C_2  and  C_3
REMARK    3  A    between atoms: C_3  and  N_4
REMARK    4  A    between atoms: N_7  and  S_10
REMARK    5  A    between atoms: S_10  and  C_13
REMARK                            x       y       z     vdW  Elec       q    Type
REMARK                         _______ _______ _______ _____ _____    ______ ____
ROOT
ATOM      1  S   UNL     1       2.703   1.572  -0.014  0.00  0.00    +0.062 S 
ATOM      2  O   UNL     1       2.861   0.546  -0.984  0.00  0.00    -0.153 OA
ATOM      3  O   UNL     1       3.516   2.737   0.002  0.00  0.00    -0.153 OA
ENDROOT
BRANCH   1   4
ATOM      4  C   UNL     1       1.034   2.124  -0.132  0.00  0.00    +0.127 A 
ATOM      5  C   UNL     1       0.174   1.530  -1.039  0.00  0.00    +0.077 A 
ATOM      6  C   UNL     1      -1.137   1.963  -1.133  0.00  0.00    +0.144 A 
ATOM      7  C   UNL     1      -1.587   2.998  -0.313  0.00  0.00    +0.077 A 
ATOM      8  C   UNL     1      -0.724   3.585   0.597  0.00  0.00    +0.049 A 
ATOM      9  C   UNL     1       0.587   3.149   0.682  0.00  0.00    +0.069 A 
ATOM     10 CL   UNL     1       1.673   3.888   1.818  0.00  0.00    -0.081 Cl
ATOM     11  N   UNL     1      -2.917   3.428  -0.420  0.00  0.00    -0.280 N 
ATOM     12  C   UNL     1      -3.808   2.646  -1.067  0.00  0.00    +0.255 C 
ATOM     13  O   UNL     1      -4.957   3.012  -1.198  0.00  0.00    -0.272 OA
ATOM     14  C   UNL     1      -3.369   1.317  -1.626  0.00  0.00    +0.325 C 
ATOM     15  O   UNL     1      -1.995   1.390  -2.018  0.00  0.00    -0.481 OA
ATOM     16  H   UNL     1      -3.221   4.389   0.021  0.00  0.00    +0.155 HD
ENDBRANCH   1   4
BRANCH   1  20
ATOM     17  N   UNL     1       2.241   0.028   4.052  0.00  0.00    +0.381 N 
ATOM     18  C   UNL     1       1.559  -0.601   2.914  0.00  0.00    -0.061 C 
ATOM     19  C   UNL     1       2.468  -0.543   1.682  0.00  0.00    +0.091 C 
ATOM     20  N   UNL     1       2.877   0.853   1.468  0.00  0.00    -0.180 NA
ATOM     21  C   UNL     1       3.450   1.593   2.603  0.00  0.00    +0.091 C 
ATOM     22  C   UNL     1       2.496   1.453   3.800  0.00  0.00    -0.061 C 
ATOM     23  H   UNL     1       3.214  -0.469   4.175  0.00  0.00    -0.082 HD
BRANCH  17  24
ATOM     24  C   UNL     1       1.476  -0.158   5.293  0.00  0.00    -0.079 C 
BRANCH  24  26
ATOM     25  C   UNL     1       1.528   0.091   7.778  0.00  0.00    +0.002 C 
ATOM     26  C   UNL     1       2.325   0.285   6.486  0.00  0.00    -0.022 C 
ENDBRANCH  24  26
ENDBRANCH  17  24
ENDBRANCH   1  20
TORSDOF 4
