REMARK  Name = ZINC13786952
REMARK  3 active torsions:
REMARK  status: ('A' for Active; 'I' for Inactive)
REMARK    1  A    between atoms: C_3  and  N_8
REMARK    2  A    between atoms: N_8  and  C_9
REMARK    3  A    between atoms: C_14  and  C_15
REMARK                            x       y       z     vdW  Elec       q    Type
REMARK                         _______ _______ _______ _____ _____    ______ ____
ROOT
ATOM      1  C   UNL     1       4.779   1.457   0.067  0.00  0.00    +0.175 C 
ATOM      2  N   UNL     1       4.993   0.151   0.070  0.00  0.00    -0.152 NA
ATOM      3  C   UNL     1       6.200  -0.365   0.161  0.00  0.00    +0.276 C 
ATOM      4  O   UNL     1       6.385  -1.573   0.161  0.00  0.00    -0.267 OA
ATOM      5  C   UNL     1       7.319   0.593   0.261  0.00  0.00    +0.080 C 
ATOM      6  C   UNL     1       8.659   0.363   0.365  0.00  0.00    +0.035 C 
ATOM      7  S   UNL     1       6.424   2.140   0.199  0.00  0.00    -0.050 S 
ENDROOT
BRANCH   6   8
ATOM      8  C   UNL     1       9.558   1.451   0.449  0.00  0.00    +0.013 A 
ATOM      9  C   UNL     1      10.946   1.436   0.554  0.00  0.00    +0.015 A 
ATOM     10  C   UNL     1      11.551   2.668   0.617  0.00  0.00    +0.008 A 
ATOM     11  C   UNL     1      10.781   3.784   0.576  0.00  0.00    +0.046 A 
ATOM     12  S   UNL     1       9.211   3.199   0.441  0.00  0.00    -0.097 S 
ENDBRANCH   6   8
BRANCH   1  13
ATOM     13  N   UNL     1       3.583   2.124  -0.021  0.00  0.00    -0.192 NA
BRANCH  13  16
ATOM     14  C   UNL     1       1.155  -0.498   0.844  0.00  0.00    +0.003 A 
ATOM     15  C   UNL     1       2.346   0.196   0.741  0.00  0.00    +0.025 A 
ATOM     16  C   UNL     1       2.380   1.420   0.085  0.00  0.00    +0.057 A 
ATOM     17  C   UNL     1       1.216   1.943  -0.465  0.00  0.00    +0.040 A 
ATOM     18  C   UNL     1       0.029   1.245  -0.358  0.00  0.00    +0.020 A 
ATOM     19  C   UNL     1      -0.001   0.025   0.296  0.00  0.00    +0.015 A 
ATOM     20 BR   UNL     1      -1.556   1.955  -1.105  0.00  0.00    -0.050 Br
ENDBRANCH  13  16
ENDBRANCH   1  13
TORSDOF 3
