REMARK  Name = ZINC38965203
REMARK  7 active torsions:
REMARK  status: ('A' for Active; 'I' for Inactive)
REMARK    1  A    between atoms: C_1  and  O_2
REMARK    2  A    between atoms: O_2  and  C_3
REMARK    3  A    between atoms: C_8  and  C_9
REMARK    4  A    between atoms: C_9  and  N_10
REMARK    5  A    between atoms: N_10  and  C_11
REMARK    6  A    between atoms: N_14  and  S_15
REMARK    7  A    between atoms: S_15  and  C_18
REMARK                            x       y       z     vdW  Elec       q    Type
REMARK                         _______ _______ _______ _____ _____    ______ ____
ROOT
ATOM      1  C   UNL     1      -2.032  -3.723   0.818  0.00  0.00    +0.218 C 
ATOM      2  C   UNL     1      -2.939  -4.728   0.144  0.00  0.00    +0.167 C 
ATOM      3  N   UNL     1      -2.462  -5.567  -0.728  0.00  0.00    -0.111 NA
ATOM      4  N   UNL     1      -4.244  -4.742   0.460  0.00  0.00    -0.338 N 
ATOM      5  C   UNL     1      -4.751  -3.903   1.339  0.00  0.00    +0.064 A 
ATOM      6  C   UNL     1      -6.134  -3.946   1.648  0.00  0.00    +0.028 A 
ATOM      7  C   UNL     1      -6.659  -3.088   2.549  0.00  0.00    +0.002 A 
ATOM      8  C   UNL     1      -5.888  -2.124   3.219  0.00  0.00    +0.002 A 
ATOM      9  C   UNL     1      -4.561  -1.997   3.000  0.00  0.00    +0.027 A 
ATOM     10  C   UNL     1      -3.912  -2.895   2.032  0.00  0.00    +0.060 A 
ATOM     11  N   UNL     1      -2.634  -2.802   1.795  0.00  0.00    -0.362 N 
ATOM     12  H   UNL     1      -2.092  -2.140   2.252  0.00  0.00    +0.162 HD
ATOM     13  H   UNL     1      -4.828  -5.386   0.029  0.00  0.00    +0.167 HD
ENDROOT
BRANCH   3  14
ATOM     14  S   UNL     1      -3.466  -6.662  -1.458  0.00  0.00    +0.107 S 
ATOM     15  O   UNL     1      -3.910  -7.548  -0.439  0.00  0.00    -0.146 OA
ATOM     16  O   UNL     1      -4.367  -5.914  -2.262  0.00  0.00    -0.146 OA
BRANCH  14  17
ATOM     17  C   UNL     1      -2.480  -7.618  -2.562  0.00  0.00    +0.150 A 
ATOM     18  C   UNL     1      -1.813  -8.774  -2.328  0.00  0.00    +0.037 A 
ATOM     19  C   UNL     1      -1.095  -9.354  -3.357  0.00  0.00    +0.010 A 
ATOM     20  C   UNL     1      -1.079  -8.749  -4.570  0.00  0.00    +0.047 A 
ATOM     21  S   UNL     1      -2.106  -7.317  -4.282  0.00  0.00    -0.076 S 
ENDBRANCH  14  17
ENDBRANCH   3  14
BRANCH   1  22
ATOM     22  N   UNL     1      -1.402  -2.913  -0.233  0.00  0.00    -0.287 NA
ATOM     23  H   UNL     1      -1.815  -1.993  -0.277  0.00  0.00    +0.125 HD
BRANCH  22  24
ATOM     24  C   UNL     1       0.051  -2.828  -0.033  0.00  0.00    +0.122 C 
BRANCH  24  30
ATOM     25  C   UNL     1       0.606  -0.607  -1.056  0.00  0.00    +0.124 A 
ATOM     26  C   UNL     1       1.173   0.161  -2.063  0.00  0.00    +0.046 A 
ATOM     27  C   UNL     1       1.786  -0.455  -3.136  0.00  0.00    +0.004 A 
ATOM     28  C   UNL     1       1.836  -1.835  -3.208  0.00  0.00    +0.001 A 
ATOM     29  C   UNL     1       1.271  -2.602  -2.207  0.00  0.00    +0.008 A 
ATOM     30  C   UNL     1       0.661  -1.991  -1.128  0.00  0.00    +0.008 A 
BRANCH  25  32
ATOM     31  C   UNL     1      -0.017   1.425   0.010  0.00  0.00    +0.277 C 
ATOM     32  O   UNL     1       0.002  -0.004   0.002  0.00  0.00    -0.495 OA
ENDBRANCH  25  32
ENDBRANCH  24  30
ENDBRANCH  22  24
ENDBRANCH   1  22
TORSDOF 6
