REMARK  Name = ZINC21849138
REMARK  8 active torsions:
REMARK  status: ('A' for Active; 'I' for Inactive)
REMARK    1  A    between atoms: C_1  and  C_2
REMARK    2  A    between atoms: C_2  and  C_4
REMARK    3  A    between atoms: C_2  and  N_17
REMARK    4  A    between atoms: N_6  and  C_7
REMARK    5  A    between atoms: C_10  and  N_14
REMARK    6  A    between atoms: N_20  and  S_23
REMARK    7  A    between atoms: S_23  and  C_26
REMARK    8  A    between atoms: C_31  and  N_32
REMARK                            x       y       z     vdW  Elec       q    Type
REMARK                         _______ _______ _______ _____ _____    ______ ____
ROOT
ATOM      1  N   UNL     1      -0.085   1.078   1.564  0.00  0.00    +0.389 N 
ATOM      2  C   UNL     1       0.737   0.670   2.711  0.00  0.00    -0.060 C 
ATOM      3  C   UNL     1       0.137   1.249   3.997  0.00  0.00    +0.091 C 
ATOM      4  N   UNL     1      -1.278   0.852   4.073  0.00  0.00    -0.180 NA
ATOM      5  C   UNL     1      -2.135   1.104   2.905  0.00  0.00    +0.091 C 
ATOM      6  C   UNL     1      -1.445   0.531   1.662  0.00  0.00    -0.060 C 
ATOM      7  H   UNL     1      -0.164   2.175   1.582  0.00  0.00    -0.081 HD
ENDROOT
BRANCH   4   8
ATOM      8  S   UNL     1      -1.889   0.140   5.437  0.00  0.00    +0.063 S 
ATOM      9  O   UNL     1      -1.127   0.636   6.530  0.00  0.00    -0.153 OA
ATOM     10  O   UNL     1      -3.301   0.276   5.369  0.00  0.00    -0.153 OA
BRANCH   8  11
ATOM     11  C   UNL     1      -1.543  -1.584   5.325  0.00  0.00    +0.136 A 
ATOM     12  C   UNL     1      -1.115  -2.127   4.127  0.00  0.00    +0.031 A 
ATOM     13  C   UNL     1      -0.839  -3.478   4.040  0.00  0.00    +0.002 A 
ATOM     14  C   UNL     1      -1.001  -4.290   5.148  0.00  0.00    +0.002 A 
ATOM     15  C   UNL     1      -1.434  -3.748   6.344  0.00  0.00    +0.035 A 
ATOM     16  C   UNL     1      -1.705  -2.395   6.432  0.00  0.00    +0.152 A 
BRANCH  16  17
ATOM     17  N   UNL     1      -2.169  -1.815   7.713  0.00  0.00    +0.058 N 
ATOM     18  O   UNL     1      -2.183  -2.499   8.721  0.00  0.00    -0.126 OA
ATOM     19  O   UNL     1      -2.536  -0.655   7.758  0.00  0.00    -0.126 OA
ENDBRANCH  16  17
ENDBRANCH   8  11
ENDBRANCH   4   8
BRANCH   1  21
ATOM     20  C   UNL     1       0.366  -0.814   0.076  0.00  0.00    -0.004 C 
ATOM     21  C   UNL     1       0.549   0.689   0.297  0.00  0.00    +0.017 C 
BRANCH  21  22
ATOM     22  C   UNL     1      -0.092   1.445  -0.838  0.00  0.00    +0.203 C 
ATOM     23  O   UNL     1      -1.062   2.142  -0.631  0.00  0.00    -0.277 OA
ATOM     24  N   UNL     1       0.414   1.346  -2.083  0.00  0.00    -0.286 N 
ATOM     25  H   UNL     1       1.246   0.656  -2.286  0.00  0.00    +0.155 HD
BRANCH  24  26
ATOM     26  C   UNL     1      -0.120   2.122  -3.119  0.00  0.00    +0.052 A 
ATOM     27  C   UNL     1      -1.476   2.418  -3.138  0.00  0.00    +0.027 A 
ATOM     28  C   UNL     1      -2.000   3.184  -4.162  0.00  0.00    +0.034 A 
ATOM     29  C   UNL     1      -1.175   3.656  -5.166  0.00  0.00    +0.128 A 
ATOM     30  C   UNL     1       0.176   3.364  -5.151  0.00  0.00    +0.054 A 
ATOM     31  C   UNL     1       0.708   2.602  -4.127  0.00  0.00    +0.064 A 
ATOM     32 CL   UNL     1       2.405   2.241  -4.104  0.00  0.00    -0.082 Cl
BRANCH  29  33
ATOM     33  N   UNL     1      -1.741   4.477  -6.261  0.00  0.00    +0.056 N 
ATOM     34  O   UNL     1      -2.931   4.736  -6.276  0.00  0.00    -0.126 OA
ATOM     35  O   UNL     1      -1.016   4.893  -7.147  0.00  0.00    -0.126 OA
ENDBRANCH  29  33
ENDBRANCH  24  26
ENDBRANCH  21  22
ENDBRANCH   1  21
TORSDOF 7
