REMARK  Name = ZINC26505025
REMARK  6 active torsions:
REMARK  status: ('A' for Active; 'I' for Inactive)
REMARK    1  A    between atoms: C_1  and  C_2
REMARK    2  A    between atoms: C_3  and  C_8
REMARK    3  A    between atoms: C_11  and  S_13
REMARK    4  A    between atoms: S_13  and  C_14
REMARK    5  A    between atoms: C_14  and  C_15
REMARK    6  A    between atoms: N_17  and  C_18
REMARK                            x       y       z     vdW  Elec       q    Type
REMARK                         _______ _______ _______ _____ _____    ______ ____
ROOT
ATOM      1  C   UNL     1      -7.201   0.013   0.037  0.00  0.00    +0.258 A 
ATOM      2  N   UNL     1      -6.307  -0.950   0.028  0.00  0.00    -0.106 NA
ATOM      3  N   UNL     1      -5.127  -0.437   0.024  0.00  0.00    -0.101 NA
ATOM      4  C   UNL     1      -5.218   0.872   0.032  0.00  0.00    +0.278 A 
ATOM      5  O   UNL     1      -6.529   1.186   0.045  0.00  0.00    -0.410 OA
ENDROOT
BRANCH   1   8
ATOM      6  C   UNL     1      -8.752  -2.660   0.016  0.00  0.00    +0.067 C 
ATOM      7  C   UNL     1      -9.411  -1.305   0.035  0.00  0.00    +0.060 A 
ATOM      8  C   UNL     1      -8.661  -0.155   0.043  0.00  0.00    +0.100 A 
ATOM      9  S   UNL     1      -9.951   1.081   0.056  0.00  0.00    -0.048 S 
ATOM     10  C   UNL     1     -11.306  -0.005   0.057  0.00  0.00    +0.156 A 
ATOM     11  N   UNL     1     -10.720  -1.189   0.048  0.00  0.00    -0.230 NA
ATOM     12  N   UNL     1     -12.657   0.294   0.064  0.00  0.00    -0.337 N 
ATOM     13  H   UNL     1     -13.400  -0.518   0.064  0.00  0.00    +0.144 HD
ATOM     14  H   UNL     1     -12.988   1.343   0.071  0.00  0.00    +0.144 HD
ENDBRANCH   1   8
BRANCH   4  15
ATOM     15  S   UNL     1      -3.874   2.010   0.031  0.00  0.00    -0.056 S 
BRANCH  15  16
ATOM     16  C   UNL     1      -2.482   0.853   0.018  0.00  0.00    +0.174 C 
BRANCH  16  17
ATOM     17  C   UNL     1      -1.187   1.624   0.017  0.00  0.00    +0.224 C 
ATOM     18  O   UNL     1      -1.204   2.837   0.023  0.00  0.00    -0.275 OA
ATOM     19  N   UNL     1      -0.011   0.966   0.007  0.00  0.00    -0.312 N 
ATOM     20  H   UNL     1       0.004  -0.134   0.006  0.00  0.00    +0.149 HD
BRANCH  19  21
ATOM     21  C   UNL     1       1.248   1.716  -0.001  0.00  0.00    +0.073 C 
ATOM     22  C   UNL     1       1.608   2.092  -1.439  0.00  0.00    +0.022 C 
ATOM     23  C   UNL     1       2.922   2.875  -1.448  0.00  0.00    +0.002 C 
ATOM     24  C   UNL     1       4.035   2.010  -0.853  0.00  0.00    +0.000 C 
ATOM     25  C   UNL     1       3.675   1.633   0.585  0.00  0.00    +0.002 C 
ATOM     26  C   UNL     1       2.361   0.850   0.594  0.00  0.00    +0.022 C 
ENDBRANCH  19  21
ENDBRANCH  16  17
ENDBRANCH  15  16
ENDBRANCH   4  15
TORSDOF 5
