REMARK  Name = ZINC16226705
REMARK  7 active torsions:
REMARK  status: ('A' for Active; 'I' for Inactive)
REMARK    1  A    between atoms: C_1  and  O_2
REMARK    2  A    between atoms: O_2  and  C_3
REMARK    3  A    between atoms: C_6  and  N_10
REMARK    4  A    between atoms: N_10  and  C_11
REMARK    5  A    between atoms: C_11  and  N_13
REMARK    6  A    between atoms: C_14  and  C_16
REMARK    7  A    between atoms: C_19  and  N_23
REMARK                            x       y       z     vdW  Elec       q    Type
REMARK                         _______ _______ _______ _____ _____    ______ ____
ROOT
ATOM      1  N   UNL     1      -4.787   3.799  -0.135  0.00  0.00    -0.264 N 
ATOM      2  C   UNL     1      -5.943   3.114  -0.229  0.00  0.00    +0.251 C 
ATOM      3  O   UNL     1      -5.931   1.899  -0.236  0.00  0.00    -0.270 OA
ATOM      4  H   UNL     1      -4.797   4.769  -0.129  0.00  0.00    +0.157 HD
ENDROOT
BRANCH   2   5
ATOM      5  C   UNL     1      -7.226   3.840  -0.324  0.00  0.00    +0.055 A 
ATOM      6  C   UNL     1      -7.244   5.236  -0.316  0.00  0.00    +0.017 A 
ATOM      7  C   UNL     1      -8.445   5.908  -0.405  0.00  0.00    +0.033 A 
ATOM      8  C   UNL     1      -9.632   5.202  -0.502  0.00  0.00    +0.128 A 
ATOM      9  C   UNL     1      -9.623   3.819  -0.511  0.00  0.00    +0.053 A 
ATOM     10  C   UNL     1      -8.427   3.133  -0.427  0.00  0.00    +0.055 A 
ATOM     11 CL   UNL     1      -8.416   1.397  -0.446  0.00  0.00    -0.083 Cl
BRANCH   8  12
ATOM     12  N   UNL     1     -10.917   5.930  -0.598  0.00  0.00    +0.056 N 
ATOM     13  O   UNL     1     -10.928   7.148  -0.591  0.00  0.00    -0.126 OA
ATOM     14  O   UNL     1     -11.963   5.312  -0.684  0.00  0.00    -0.126 OA
ENDBRANCH   8  12
ENDBRANCH   2   5
BRANCH   1  15
ATOM     15  C   UNL     1      -3.616   3.137  -0.048  0.00  0.00    +0.141 C 
ATOM     16  S   UNL     1      -3.599   1.425  -0.059  0.00  0.00    -0.018 S 
BRANCH  15  17
ATOM     17  N   UNL     1      -2.459   3.822   0.046  0.00  0.00    -0.297 N 
ATOM     18  H   UNL     1      -2.473   4.790   0.114  0.00  0.00    +0.154 HD
BRANCH  17  22
ATOM     19  C   UNL     1       1.178   1.783   0.046  0.00  0.00    +0.134 A 
ATOM     20  C   UNL     1       1.018   2.914  -0.740  0.00  0.00    +0.048 A 
ATOM     21  C   UNL     1      -0.185   3.594  -0.736  0.00  0.00    +0.027 A 
ATOM     22  C   UNL     1      -1.238   3.137   0.046  0.00  0.00    +0.034 A 
ATOM     23  C   UNL     1      -1.077   2.004   0.833  0.00  0.00    +0.042 A 
ATOM     24  C   UNL     1       0.129   1.329   0.832  0.00  0.00    +0.061 A 
ATOM     25 BR   UNL     1       0.348  -0.214   1.903  0.00  0.00    -0.046 Br
BRANCH  19  27
ATOM     26  C   UNL     1       3.401   1.641  -0.788  0.00  0.00    +0.277 C 
ATOM     27  O   UNL     1       2.364   1.118   0.045  0.00  0.00    -0.494 OA
ENDBRANCH  19  27
ENDBRANCH  17  22
ENDBRANCH  15  17
ENDBRANCH   1  15
TORSDOF 6
