REMARK  Name = ZINC36207161
REMARK  17 active torsions:
REMARK  status: ('A' for Active; 'I' for Inactive)
REMARK    1  A    between atoms: C_1  and  C_2
REMARK    2  A    between atoms: C_2  and  C_3
REMARK    3  A    between atoms: C_2  and  C_4
REMARK    4  A    between atoms: C_4  and  C_5
REMARK    5  A    between atoms: C_5  and  N_6
REMARK    6  A    between atoms: N_6  and  C_7
REMARK    7  A    between atoms: N_6  and  C_27
REMARK    8  A    between atoms: C_7  and  C_8
REMARK    9  A    between atoms: C_14  and  C_19
REMARK   10  A    between atoms: C_24  and  O_25
REMARK   11  A    between atoms: O_25  and  C_26
REMARK   12  A    between atoms: C_27  and  C_28
REMARK   13  A    between atoms: C_28  and  C_30
REMARK   14  A    between atoms: C_28  and  O_35
REMARK   15  A    between atoms: C_30  and  O_31
REMARK   16  A    between atoms: O_31  and  C_32
REMARK   17  A    between atoms: C_32  and  C_33
REMARK                            x       y       z     vdW  Elec       q    Type
REMARK                         _______ _______ _______ _____ _____    ______ ____
ROOT
ATOM      1  C   UNL     1       2.658  -0.791   4.974  0.00  0.00    +0.094 A 
ATOM      2  N   UNL     1       3.919  -0.395   5.288  0.00  0.00    -0.312 N 
ATOM      3  H   UNL     1       4.304   0.369   4.832  0.00  0.00    +0.170 HD
ATOM      4  C   UNL     1       4.643  -1.041   6.220  0.00  0.00    +0.260 A 
ATOM      5  O   UNL     1       5.773  -0.673   6.491  0.00  0.00    -0.267 OA
ATOM      6  C   UNL     1       4.066  -2.168   6.889  0.00  0.00    +0.080 A 
ATOM      7  C   UNL     1       4.640  -3.021   7.922  0.00  0.00    +0.007 A 
ATOM      8  C   UNL     1       3.896  -4.041   8.413  0.00  0.00    +0.056 A 
ATOM      9  S   UNL     1       2.367  -3.910   7.506  0.00  0.00    -0.076 S 
ATOM     10  C   UNL     1       2.759  -2.503   6.499  0.00  0.00    +0.116 A 
ATOM     11  N   UNL     1       2.103  -1.811   5.570  0.00  0.00    -0.229 NA
ENDROOT
BRANCH   7  12
ATOM     12  C   UNL     1       6.013  -2.778   8.425  0.00  0.00    +0.025 A 
ATOM     13  C   UNL     1       7.016  -3.720   8.204  0.00  0.00    +0.012 A 
ATOM     14  C   UNL     1       8.293  -3.488   8.675  0.00  0.00    +0.001 A 
ATOM     15  C   UNL     1       8.581  -2.324   9.365  0.00  0.00    +0.004 A 
ATOM     16  C   UNL     1       7.593  -1.383   9.590  0.00  0.00    +0.046 A 
ATOM     17  C   UNL     1       6.309  -1.600   9.118  0.00  0.00    +0.128 A 
BRANCH  17  18
ATOM     18  O   UNL     1       5.338  -0.674   9.334  0.00  0.00    -0.495 OA
ATOM     19  C   UNL     1       5.714   0.505  10.049  0.00  0.00    +0.277 C 
ENDBRANCH  17  18
ENDBRANCH   7  12
BRANCH   1  20
ATOM     20  C   UNL     1       1.885  -0.036   3.924  0.00  0.00    -0.003 C 
BRANCH  20  21
ATOM     21  N   UNL     1       0.508  -0.544   3.869  0.00  0.00    +0.386 N 
ATOM     22  H   UNL     1       0.524  -1.546   3.751  0.00  0.00    -0.081 HD
BRANCH  21  23
ATOM     23  C   UNL     1      -0.197   0.071   2.737  0.00  0.00    -0.078 C 
BRANCH  23  24
ATOM     24  C   UNL     1       0.448  -0.384   1.427  0.00  0.00    -0.016 C 
BRANCH  24  26
ATOM     25  C   UNL     1      -0.307   1.669   0.219  0.00  0.00    +0.007 C 
ATOM     26  C   UNL     1      -0.371   0.140   0.246  0.00  0.00    -0.019 C 
ATOM     27  C   UNL     1       0.201  -0.417  -1.060  0.00  0.00    +0.007 C 
ENDBRANCH  24  26
ENDBRANCH  23  24
ENDBRANCH  21  23
BRANCH  21  28
ATOM     28  C   UNL     1      -0.187  -0.210   5.119  0.00  0.00    -0.044 C 
BRANCH  28  29
ATOM     29  C   UNL     1      -1.579  -0.846   5.115  0.00  0.00    +0.124 C 
BRANCH  29  30
ATOM     30  O   UNL     1      -1.452  -2.269   5.122  0.00  0.00    -0.391 OA
ATOM     31  H   UNL     1      -0.981  -2.618   5.892  0.00  0.00    +0.210 HD
ENDBRANCH  29  30
BRANCH  29  32
ATOM     32  C   UNL     1      -2.349  -0.396   6.358  0.00  0.00    +0.190 C 
BRANCH  32  33
ATOM     33  O   UNL     1      -3.687  -0.895   6.296  0.00  0.00    -0.365 OA
BRANCH  33  34
ATOM     34  C   UNL     1      -4.496  -0.530   7.416  0.00  0.00    +0.248 C 
BRANCH  34  35
ATOM     35  C   UNL     1      -5.846  -1.093   7.250  0.00  0.00    -0.077 C 
ATOM     36  C   UNL     1      -6.922  -1.542   7.118  0.00  0.00    +0.006 C 
ENDBRANCH  34  35
ENDBRANCH  33  34
ENDBRANCH  32  33
ENDBRANCH  29  32
ENDBRANCH  28  29
ENDBRANCH  21  28
ENDBRANCH  20  21
ENDBRANCH   1  20
TORSDOF 14
