REMARK  Name = ZINC62825396
REMARK  4 active torsions:
REMARK  status: ('A' for Active; 'I' for Inactive)
REMARK    1  A    between atoms: C_5  and  N_10
REMARK    2  A    between atoms: C_6  and  C_7
REMARK    3  A    between atoms: C_11  and  C_13
REMARK    4  A    between atoms: C_13  and  N_18
REMARK                            x       y       z     vdW  Elec       q    Type
REMARK                         _______ _______ _______ _____ _____    ______ ____
ROOT
ATOM      1  N   UNL     1       1.245  -2.074  -0.048  0.00  0.00    -0.285 N 
ATOM      2  C   UNL     1       2.408  -2.732   0.125  0.00  0.00    +0.206 C 
ATOM      3  O   UNL     1       3.419  -2.117   0.390  0.00  0.00    -0.277 OA
ATOM      4  H   UNL     1       0.427  -2.569  -0.212  0.00  0.00    +0.155 HD
ENDROOT
BRANCH   1   9
ATOM      5  C   UNL     1       0.196   1.372   0.782  0.00  0.00    +0.032 A 
ATOM      6  C   UNL     1       1.162   2.094   0.114  0.00  0.00    +0.020 A 
ATOM      7  C   UNL     1       2.152   1.441  -0.605  0.00  0.00    +0.032 A 
ATOM      8  C   UNL     1       2.182   0.061  -0.660  0.00  0.00    +0.041 A 
ATOM      9  C   UNL     1       1.217  -0.683   0.007  0.00  0.00    +0.062 A 
ATOM     10  C   UNL     1       0.213  -0.026   0.736  0.00  0.00    +0.086 A 
ATOM     11 BR   UNL     1       3.537  -0.815  -1.646  0.00  0.00    -0.048 Br
ATOM     12 BR   UNL     1       1.137   3.983   0.177  0.00  0.00    -0.050 Br
BRANCH  10  13
ATOM     13  C   UNL     1      -0.814  -0.802   1.448  0.00  0.00    +0.388 C 
ATOM     14  O   UNL     1      -1.746  -0.228   1.994  0.00  0.00    -0.241 OA
ATOM     15  O   UNL     1      -0.736  -2.022   1.494  0.00  0.00    -0.241 OA
ENDBRANCH  10  13
ENDBRANCH   1   9
BRANCH   2  16
ATOM     16  C   UNL     1       2.452  -4.232  -0.010  0.00  0.00    +0.007 C 
ATOM     17  C   UNL     1       2.186  -4.908   1.358  0.00  0.00    -0.004 C 
ATOM     18  C   UNL     1       3.566  -4.822   2.056  0.00  0.00    -0.001 C 
ATOM     19  C   UNL     1       4.580  -5.073   0.922  0.00  0.00    -0.001 C 
ATOM     20  C   UNL     1       3.873  -4.699  -0.392  0.00  0.00    -0.004 C 
BRANCH  16  21
ATOM     21  N   UNL     1       1.476  -4.686  -1.010  0.00  0.00    +0.388 N 
ATOM     22  H   UNL     1       1.698  -4.279  -1.906  0.00  0.00    -0.089 HD
ATOM     23  H   UNL     1       1.510  -5.692  -1.080  0.00  0.00    -0.089 HD
ATOM     24  H   UNL     1       0.550  -4.400  -0.730  0.00  0.00    -0.089 HD
ENDBRANCH  16  21
ENDBRANCH   2  16
TORSDOF 4
