REMARK  Name = ZINC35255283
REMARK  5 active torsions:
REMARK  status: ('A' for Active; 'I' for Inactive)
REMARK    1  A    between atoms: C_1  and  C_2
REMARK    2  A    between atoms: C_2  and  C_4
REMARK    3  A    between atoms: C_2  and  N_12
REMARK    4  A    between atoms: N_12  and  C_13
REMARK    5  A    between atoms: C_13  and  C_14
REMARK                            x       y       z     vdW  Elec       q    Type
REMARK                         _______ _______ _______ _____ _____    ______ ____
ROOT
ATOM      1  N   UNL     1       0.713  -0.491   1.192  0.00  0.00    +0.390 N 
ATOM      2  H   UNL     1       0.290  -0.099   2.020  0.00  0.00    -0.084 HD
ATOM      3  H   UNL     1       0.655  -1.497   1.230  0.00  0.00    -0.084 HD
ENDROOT
BRANCH   1   5
ATOM      4  C   UNL     1      -0.019   1.526   0.010  0.00  0.00    -0.006 C 
ATOM      5  C   UNL     1       0.002  -0.004   0.002  0.00  0.00    -0.005 C 
BRANCH   5   6
ATOM      6  C   UNL     1      -1.412  -0.526   0.013  0.00  0.00    +0.119 A 
ATOM      7  N   UNL     1      -2.224  -0.539   1.034  0.00  0.00    -0.136 NA
ATOM      8  N   UNL     1      -3.349  -1.055   0.686  0.00  0.00    -0.134 NA
ATOM      9  C   UNL     1      -3.303  -1.397  -0.575  0.00  0.00    +0.133 A 
ATOM     10  N   UNL     1      -2.078  -1.063  -1.039  0.00  0.00    -0.316 N 
ATOM     11  C   UNL     1      -1.941  -1.401  -2.461  0.00  0.00    +0.125 C 
ATOM     12  C   UNL     1      -3.086  -2.391  -2.764  0.00  0.00    +0.029 C 
ATOM     13  C   UNL     1      -4.123  -2.021  -1.683  0.00  0.00    +0.078 C 
ENDBRANCH   5   6
ENDBRANCH   1   5
BRANCH   1  14
ATOM     14  C   UNL     1       2.122  -0.083   1.122  0.00  0.00    -0.006 C 
BRANCH  14  15
ATOM     15  C   UNL     1       2.851  -0.582   2.343  0.00  0.00    +0.090 A 
ATOM     16  C   UNL     1       3.470  -1.766   2.436  0.00  0.00    +0.051 A 
ATOM     17  C   UNL     1       4.036  -1.827   3.788  0.00  0.00    +0.020 A 
ATOM     18  C   UNL     1       4.780  -2.773   4.492  0.00  0.00    +0.011 A 
ATOM     19  C   UNL     1       5.162  -2.514   5.779  0.00  0.00    +0.001 A 
ATOM     20  C   UNL     1       4.814  -1.317   6.388  0.00  0.00    +0.004 A 
ATOM     21  C   UNL     1       4.079  -0.370   5.708  0.00  0.00    +0.047 A 
ATOM     22  C   UNL     1       3.681  -0.613   4.399  0.00  0.00    +0.135 A 
ATOM     23  O   UNL     1       2.979   0.099   3.495  0.00  0.00    -0.462 OA
ENDBRANCH  14  15
ENDBRANCH   1  14
TORSDOF 4
