REMARK  Name = ZINC41062376
REMARK  3 active torsions:
REMARK  status: ('A' for Active; 'I' for Inactive)
REMARK    1  A    between atoms: C_1  and  C_2
REMARK    2  A    between atoms: C_2  and  C_3
REMARK    3  A    between atoms: C_6  and  C_8
REMARK                            x       y       z     vdW  Elec       q    Type
REMARK                         _______ _______ _______ _____ _____    ______ ____
ROOT
ATOM      1  C   UNL     1      -5.197  -1.925   1.023  0.00  0.00    +0.098 A 
ATOM      2  C   UNL     1      -5.414  -2.004   2.421  0.00  0.00    +0.036 A 
ATOM      3  C   UNL     1      -6.623  -2.452   2.861  0.00  0.00    +0.073 A 
ATOM      4  C   UNL     1      -7.589  -2.811   1.894  0.00  0.00    +0.265 A 
ATOM      5  O   UNL     1      -8.686  -3.217   2.243  0.00  0.00    -0.266 OA
ATOM      6  N   UNL     1      -7.290  -2.702   0.586  0.00  0.00    -0.243 N 
ATOM      7  H   UNL     1      -7.958  -2.951  -0.072  0.00  0.00    +0.192 HD
ATOM      8  N   UNL     1      -6.148  -2.274   0.186  0.00  0.00    -0.170 NA
ENDROOT
BRANCH   1  12
ATOM      9  C   UNL     1      -1.412  -0.526   0.013  0.00  0.00    -0.010 A 
ATOM     10  C   UNL     1      -2.221  -0.821  -1.037  0.00  0.00    +0.012 A 
ATOM     11  C   UNL     1      -3.492  -1.291  -0.793  0.00  0.00    +0.018 A 
ATOM     12  C   UNL     1      -3.899  -1.445   0.505  0.00  0.00    +0.039 A 
ATOM     13  S   UNL     1      -2.451  -0.922   1.409  0.00  0.00    -0.092 S 
BRANCH   9  15
ATOM     14  C   UNL     1      -0.019   1.526   0.010  0.00  0.00    +0.009 C 
ATOM     15  C   UNL     1       0.002  -0.004   0.002  0.00  0.00    +0.039 C 
ENDBRANCH   9  15
ENDBRANCH   1  12
TORSDOF 2
