REMARK  Name = ZINC38627301
REMARK  4 active torsions:
REMARK  status: ('A' for Active; 'I' for Inactive)
REMARK    1  A    between atoms: C_1  and  N_2
REMARK    2  A    between atoms: C_10  and  C_11
REMARK    3  A    between atoms: C_10  and  S_14
REMARK    4  A    between atoms: S_14  and  C_15
REMARK                            x       y       z     vdW  Elec       q    Type
REMARK                         _______ _______ _______ _____ _____    ______ ____
ROOT
ATOM      1  C   UNL     1      -0.679   0.894  -0.135  0.00  0.00    +0.138 C 
ATOM      2  N   UNL     1      -0.436  -0.550  -0.166  0.00  0.00    -0.270 N 
ATOM      3  C   UNL     1      -1.437  -1.514  -0.139  0.00  0.00    +0.044 A 
ATOM      4  C   UNL     1      -2.822  -1.407  -0.081  0.00  0.00    +0.024 A 
ATOM      5  C   UNL     1      -3.605  -2.544  -0.065  0.00  0.00    +0.002 A 
ATOM      6  C   UNL     1      -3.026  -3.801  -0.107  0.00  0.00    +0.001 A 
ATOM      7  C   UNL     1      -1.653  -3.929  -0.166  0.00  0.00    +0.010 A 
ATOM      8  C   UNL     1      -0.854  -2.789  -0.182  0.00  0.00    +0.010 A 
ATOM      9  C   UNL     1       0.608  -2.579  -0.239  0.00  0.00    +0.067 C 
ATOM     10  C   UNL     1       1.594  -3.543  -0.294  0.00  0.00    +0.116 C 
ATOM     11  C   UNL     1       0.784  -1.112  -0.229  0.00  0.00    +0.253 C 
ATOM     12  O   UNL     1       1.845  -0.517  -0.269  0.00  0.00    -0.270 OA
ENDROOT
BRANCH  10  13
ATOM     13  C   UNL     1       1.227  -4.971  -0.396  0.00  0.00    +0.394 C 
ATOM     14  O   UNL     1       1.215  -5.522  -1.488  0.00  0.00    -0.240 OA
ATOM     15  O   UNL     1       0.935  -5.601   0.610  0.00  0.00    -0.240 OA
ENDBRANCH  10  13
BRANCH  10  16
ATOM     16  S   UNL     1       3.291  -3.072  -0.241  0.00  0.00    -0.041 S 
BRANCH  16  17
ATOM     17  C   UNL     1       3.868  -3.725   1.290  0.00  0.00    +0.212 C 
ATOM     18  N   UNL     1       2.995  -4.292   2.088  0.00  0.00    -0.227 NA
ATOM     19  C   UNL     1       3.494  -4.902   3.318  0.00  0.00    +0.252 C 
ATOM     20  C   UNL     1       4.750  -4.131   3.699  0.00  0.00    +0.117 C 
ATOM     21  C   UNL     1       4.603  -3.820   5.016  0.00  0.00    +0.025 A 
ATOM     22  C   UNL     1       5.474  -3.211   5.953  0.00  0.00    +0.012 A 
ATOM     23  C   UNL     1       5.004  -3.025   7.216  0.00  0.00    +0.001 A 
ATOM     24  C   UNL     1       3.724  -3.395   7.640  0.00  0.00    +0.002 A 
ATOM     25  C   UNL     1       2.809  -3.991   6.831  0.00  0.00    +0.026 A 
ATOM     26  C   UNL     1       3.233  -4.240   5.443  0.00  0.00    +0.046 A 
ATOM     27  N   UNL     1       2.597  -4.801   4.460  0.00  0.00    -0.358 N 
ATOM     28  N   UNL     1       5.652  -3.778   2.777  0.00  0.00    -0.147 NA
ATOM     29  N   UNL     1       5.188  -3.618   1.573  0.00  0.00    -0.122 NA
ATOM     30  H   UNL     1       1.675  -5.102   4.483  0.00  0.00    +0.162 HD
ENDBRANCH  16  17
ENDBRANCH  10  16
TORSDOF 3
