REMARK  Name = ZINC39430064
REMARK  3 active torsions:
REMARK  status: ('A' for Active; 'I' for Inactive)
REMARK    1  A    between atoms: C_4  and  C_7
REMARK    2  A    between atoms: C_7  and  C_8
REMARK    3  A    between atoms: C_18  and  C_20
REMARK                            x       y       z     vdW  Elec       q    Type
REMARK                         _______ _______ _______ _____ _____    ______ ____
ROOT
ATOM      1  C   UNL     1       2.999  -1.962  -2.475  0.00  0.00    +0.051 C 
ATOM      2  N   UNL     1       2.579  -2.751  -1.537  0.00  0.00    -0.158 NA
ATOM      3  N   UNL     1       2.823  -4.094  -1.821  0.00  0.00    -0.158 NA
ATOM      4  C   UNL     1       3.365  -4.253  -2.965  0.00  0.00    +0.053 C 
ATOM      5  C   UNL     1       3.637  -2.854  -3.509  0.00  0.00    +0.099 C 
ATOM      6  C   UNL     1       2.926  -2.778  -4.863  0.00  0.00    +0.123 C 
ATOM      7  N   UNL     1       3.320  -3.966  -5.639  0.00  0.00    -0.299 N 
ATOM      8  C   UNL     1       3.049  -5.317  -5.140  0.00  0.00    +0.114 C 
ATOM      9  C   UNL     1       3.702  -5.495  -3.750  0.00  0.00    +0.072 C 
ATOM     10  C   UNL     1       3.940  -3.808  -6.825  0.00  0.00    +0.236 C 
ATOM     11  O   UNL     1       4.169  -2.693  -7.246  0.00  0.00    -0.274 OA
ENDROOT
BRANCH  10  12
ATOM     12  C   UNL     1       4.349  -5.016  -7.628  0.00  0.00    +0.159 C 
ATOM     13  C   UNL     1       3.141  -5.566  -8.419  0.00  0.00    +0.041 C 
ATOM     14  C   UNL     1       3.813  -6.046  -9.726  0.00  0.00    +0.098 C 
ATOM     15  C   UNL     1       5.068  -5.209  -9.828  0.00  0.00    +0.214 C 
ATOM     16  O   UNL     1       5.731  -5.071 -10.834  0.00  0.00    -0.276 OA
ATOM     17  N   UNL     1       5.344  -4.640  -8.640  0.00  0.00    -0.304 N 
ATOM     18  H   UNL     1       6.100  -4.056  -8.474  0.00  0.00    +0.149 HD
ENDBRANCH  10  12
BRANCH   1  19
ATOM     19  C   UNL     1       2.870  -0.461  -2.526  0.00  0.00    +0.057 C 
BRANCH  19  23
ATOM     20  C   UNL     1      -0.019   1.526   0.010  0.00  0.00    +0.000 C 
ATOM     21  C   UNL     1       1.417   2.055  -0.000  0.00  0.00    +0.000 C 
ATOM     22  C   UNL     1       2.133   1.562  -1.259  0.00  0.00    +0.004 C 
ATOM     23  C   UNL     1       2.154   0.032  -1.268  0.00  0.00    -0.005 C 
ATOM     24  C   UNL     1       0.718  -0.497  -1.257  0.00  0.00    +0.004 C 
ATOM     25  C   UNL     1       0.002  -0.004   0.002  0.00  0.00    +0.000 C 
ENDBRANCH  19  23
ENDBRANCH   1  19
TORSDOF 3
