REMARK  Name = ZINC09293064
REMARK  10 active torsions:
REMARK  status: ('A' for Active; 'I' for Inactive)
REMARK    1  A    between atoms: C_1  and  C_2
REMARK    2  A    between atoms: C_2  and  O_3
REMARK    3  A    between atoms: O_3  and  C_4
REMARK    4  A    between atoms: C_8  and  C_10
REMARK    5  A    between atoms: C_13  and  C_24
REMARK    6  A    between atoms: N_20  and  C_21
REMARK    7  A    between atoms: C_21  and  C_22
REMARK    8  A    between atoms: C_22  and  O_23
REMARK    9  A    between atoms: C_27  and  C_31
REMARK   10  A    between atoms: C_29  and  O_30
REMARK                            x       y       z     vdW  Elec       q    Type
REMARK                         _______ _______ _______ _____ _____    ______ ____
ROOT
ATOM      1  C   UNL     1      -4.023  -4.267  -0.035  0.00  0.00    +0.141 C 
ATOM      2  C   UNL     1      -4.411  -4.702   1.353  0.00  0.00    +0.035 A 
ATOM      3  C   UNL     1      -4.481  -4.394   2.674  0.00  0.00    +0.075 A 
ATOM      4  N   UNL     1      -5.024  -5.480   3.300  0.00  0.00    -0.276 N 
ATOM      5  H   UNL     1      -5.194  -5.546   4.253  0.00  0.00    +0.189 HD
ATOM      6  N   UNL     1      -5.276  -6.401   2.440  0.00  0.00    -0.168 NA
ATOM      7  C   UNL     1      -4.932  -6.009   1.229  0.00  0.00    +0.153 A 
ATOM      8  C   UNL     1      -4.875  -6.387  -0.195  0.00  0.00    +0.268 C 
ATOM      9  O   UNL     1      -5.247  -7.452  -0.645  0.00  0.00    -0.268 OA
ATOM     10  N   UNL     1      -4.352  -5.386  -0.926  0.00  0.00    -0.283 N 
ENDROOT
BRANCH   3  11
ATOM     11  C   UNL     1      -4.054  -3.129   3.311  0.00  0.00    +0.043 A 
ATOM     12  C   UNL     1      -2.990  -3.124   4.213  0.00  0.00    +0.034 A 
ATOM     13  C   UNL     1      -2.595  -1.940   4.804  0.00  0.00    +0.045 A 
ATOM     14  C   UNL     1      -3.252  -0.758   4.504  0.00  0.00    -0.029 A 
ATOM     15  C   UNL     1      -4.307  -0.753   3.612  0.00  0.00    +0.050 A 
ATOM     16  C   UNL     1      -4.711  -1.932   3.007  0.00  0.00    +0.126 A 
ATOM     17  C   UNL     1      -2.814   0.529   5.155  0.00  0.00    +0.045 C 
ATOM     18 CL   UNL     1      -1.270  -1.934   5.926  0.00  0.00    -0.083 Cl
BRANCH  16  19
ATOM     19  O   UNL     1      -5.745  -1.926   2.125  0.00  0.00    -0.506 OA
ATOM     20  H   UNL     1      -6.610  -2.067   2.533  0.00  0.00    +0.292 HD
ENDBRANCH  16  19
ENDBRANCH   3  11
BRANCH   1  25
ATOM     21  C   UNL     1      -0.741  -2.407  -0.246  0.00  0.00    +0.121 A 
ATOM     22  C   UNL     1       0.171  -3.452  -0.197  0.00  0.00    +0.045 A 
ATOM     23  C   UNL     1      -0.279  -4.754  -0.097  0.00  0.00    +0.004 A 
ATOM     24  C   UNL     1      -1.635  -5.017  -0.044  0.00  0.00    +0.006 A 
ATOM     25  C   UNL     1      -2.545  -3.977  -0.092  0.00  0.00    -0.019 A 
ATOM     26  C   UNL     1      -2.101  -2.673  -0.187  0.00  0.00    +0.051 A 
BRANCH  21  27
ATOM     27  O   UNL     1      -0.301  -1.125  -0.344  0.00  0.00    -0.492 OA
BRANCH  27  29
ATOM     28  C   UNL     1       1.414   0.570  -0.509  0.00  0.00    +0.048 C 
ATOM     29  C   UNL     1       1.113  -0.926  -0.400  0.00  0.00    +0.225 C 
ENDBRANCH  27  29
ENDBRANCH  21  27
ENDBRANCH   1  25
BRANCH  10  30
ATOM     30  C   UNL     1      -4.145  -5.407  -2.376  0.00  0.00    +0.137 C 
BRANCH  30  31
ATOM     31  C   UNL     1      -5.438  -4.993  -3.082  0.00  0.00    +0.175 C 
BRANCH  31  32
ATOM     32  O   UNL     1      -5.734  -3.630  -2.772  0.00  0.00    -0.393 OA
ATOM     33  H   UNL     1      -6.542  -3.299  -3.187  0.00  0.00    +0.209 HD
ENDBRANCH  31  32
ENDBRANCH  30  31
ENDBRANCH  10  30
TORSDOF 8
