REMARK  Name = ZINC13582028
REMARK  4 active torsions:
REMARK  status: ('A' for Active; 'I' for Inactive)
REMARK    1  A    between atoms: C_1  and  C_2
REMARK    2  A    between atoms: C_3  and  S_12
REMARK    3  A    between atoms: S_12  and  N_15
REMARK    4  A    between atoms: N_15  and  C_16
REMARK                            x       y       z     vdW  Elec       q    Type
REMARK                         _______ _______ _______ _____ _____    ______ ____
ROOT
ATOM      1  S   UNL     1       0.061  -0.480  -0.152  0.00  0.00    +0.065 S 
ATOM      2  O   UNL     1      -0.810  -1.489  -0.645  0.00  0.00    -0.153 OA
ATOM      3  O   UNL     1       1.475  -0.573  -0.265  0.00  0.00    -0.153 OA
ENDROOT
BRANCH   1   6
ATOM      4  C   UNL     1       1.823   1.946  -0.392  0.00  0.00    +0.065 C 
ATOM      5  C   UNL     1       0.450   2.062  -1.002  0.00  0.00    +0.049 A 
ATOM      6  C   UNL     1      -0.409   1.023  -0.942  0.00  0.00    +0.188 A 
ATOM      7  C   UNL     1      -1.692   1.154  -1.527  0.00  0.00    +0.281 A 
ATOM      8  O   UNL     1      -2.482   0.228  -1.490  0.00  0.00    -0.266 OA
ATOM      9  N   UNL     1      -2.031   2.315  -2.123  0.00  0.00    -0.273 N 
ATOM     10  H   UNL     1      -2.938   2.418  -2.532  0.00  0.00    +0.173 HD
ATOM     11  C   UNL     1      -1.155   3.336  -2.168  0.00  0.00    +0.327 A 
ATOM     12  O   UNL     1      -1.474   4.376  -2.712  0.00  0.00    -0.247 OA
ATOM     13  N   UNL     1       0.068   3.222  -1.619  0.00  0.00    -0.310 N 
ATOM     14  H   UNL     1       0.704   3.993  -1.663  0.00  0.00    +0.170 HD
ENDBRANCH   1   6
BRANCH   1  15
ATOM     15  N   UNL     1      -0.274  -0.312   1.461  0.00  0.00    -0.187 NA
ATOM     16  H   UNL     1       0.448  -0.305   2.108  0.00  0.00    +0.148 HD
BRANCH  15  17
ATOM     17  C   UNL     1      -1.662  -0.173   1.910  0.00  0.00    +0.077 C 
ATOM     18  C   UNL     1      -1.860   1.210   2.534  0.00  0.00    +0.020 C 
ATOM     19  C   UNL     1      -3.356   1.512   2.637  0.00  0.00    +0.002 C 
ATOM     20  C   UNL     1      -4.051   1.106   1.336  0.00  0.00    +0.000 C 
ATOM     21  C   UNL     1      -4.987  -0.074   1.605  0.00  0.00    +0.000 C 
ATOM     22  C   UNL     1      -4.162  -1.355   1.753  0.00  0.00    +0.000 C 
ATOM     23  C   UNL     1      -3.487  -1.371   3.126  0.00  0.00    +0.002 C 
ATOM     24  C   UNL     1      -1.971  -1.252   2.950  0.00  0.00    +0.020 C 
ENDBRANCH  15  17
ENDBRANCH   1  15
TORSDOF 3
