REMARK  Name = ZINC45047052
REMARK  5 active torsions:
REMARK  status: ('A' for Active; 'I' for Inactive)
REMARK    1  A    between atoms: C_1  and  C_2
REMARK    2  A    between atoms: C_2  and  C_4
REMARK    3  A    between atoms: C_2  and  C_6
REMARK    4  A    between atoms: N_8  and  C_9
REMARK    5  A    between atoms: C_9  and  C_15
REMARK                            x       y       z     vdW  Elec       q    Type
REMARK                         _______ _______ _______ _____ _____    ______ ____
ROOT
ATOM      1  C   UNL     1       0.731  -0.503   1.223  0.00  0.00    +0.230 C 
ATOM      2  O   UNL     1       0.159  -1.213   2.023  0.00  0.00    -0.274 OA
ATOM      3  N   UNL     1       2.019  -0.161   1.426  0.00  0.00    -0.309 N 
ATOM      4  H   UNL     1       2.476   0.406   0.786  0.00  0.00    +0.149 HD
ENDROOT
BRANCH   3   5
ATOM      5  C   UNL     1       2.727  -0.647   2.613  0.00  0.00    +0.032 C 
ATOM      6  C   UNL     1       2.748  -2.176   2.604  0.00  0.00    +0.025 C 
ATOM      7  C   UNL     1       3.464  -2.670   1.345  0.00  0.00    +0.002 C 
ATOM      8  C   UNL     1       4.899  -2.140   1.335  0.00  0.00    +0.000 C 
ATOM      9  C   UNL     1       4.879  -0.610   1.343  0.00  0.00    +0.002 C 
ATOM     10  C   UNL     1       4.163  -0.117   2.602  0.00  0.00    +0.025 C 
ATOM     11  C   UNL     1       2.011  -0.153   3.871  0.00  0.00    +0.031 C 
ENDBRANCH   3   5
BRANCH   1  13
ATOM     12  C   UNL     1      -0.019   1.526   0.010  0.00  0.00    +0.033 C 
ATOM     13  C   UNL     1       0.002  -0.004   0.002  0.00  0.00    +0.174 C 
BRANCH  13  14
ATOM     14  C   UNL     1      -1.379  -0.514   0.013  0.00  0.00    +0.075 C 
ATOM     15  N   UNL     1      -2.445  -0.907   0.021  0.00  0.00    -0.196 NA
ENDBRANCH  13  14
ENDBRANCH   1  13
TORSDOF 3
