REMARK  Name = ZINC04989923
REMARK  6 active torsions:
REMARK  status: ('A' for Active; 'I' for Inactive)
REMARK    1  A    between atoms: C_1  and  O_2
REMARK    2  A    between atoms: O_2  and  C_3
REMARK    3  A    between atoms: C_6  and  C_10
REMARK    4  A    between atoms: N_11  and  N_12
REMARK    5  A    between atoms: C_13  and  C_15
REMARK    6  A    between atoms: C_19  and  N_21
REMARK                            x       y       z     vdW  Elec       q    Type
REMARK                         _______ _______ _______ _____ _____    ______ ____
ROOT
ATOM      1  N   UNL     1      -6.154   1.823   0.042  0.00  0.00    -0.203 N 
ATOM      2  C   UNL     1      -4.981   1.161   0.033  0.00  0.00    +0.263 C 
ATOM      3  O   UNL     1      -4.969  -0.055   0.026  0.00  0.00    -0.268 OA
ATOM      4  H   UNL     1      -6.164   2.793   0.047  0.00  0.00    +0.178 HD
ENDROOT
BRANCH   2   5
ATOM      5  C   UNL     1      -3.708   1.912   0.030  0.00  0.00    +0.041 A 
ATOM      6  C   UNL     1      -3.718   3.308   0.038  0.00  0.00    +0.013 A 
ATOM      7  C   UNL     1      -2.526   4.003   0.036  0.00  0.00    +0.003 A 
ATOM      8  C   UNL     1      -1.323   3.320   0.032  0.00  0.00    +0.033 A 
ATOM      9  C   UNL     1      -1.306   1.936   0.019  0.00  0.00    +0.127 A 
ATOM     10  C   UNL     1      -2.491   1.229   0.021  0.00  0.00    +0.045 A 
BRANCH   9  11
ATOM     11  N   UNL     1      -0.014   1.214   0.009  0.00  0.00    +0.056 N 
ATOM     12  O   UNL     1       0.002  -0.004   0.002  0.00  0.00    -0.126 OA
ATOM     13  O   UNL     1       1.032   1.837   0.002  0.00  0.00    -0.126 OA
ENDBRANCH   9  11
ENDBRANCH   2   5
BRANCH   1  15
ATOM     14  C   UNL     1      -8.491   1.749   0.053  0.00  0.00    +0.138 C 
ATOM     15  N   UNL     1      -7.361   1.111   0.044  0.00  0.00    -0.187 NA
BRANCH  14  19
ATOM     16  C   UNL     1     -12.147  -0.410   0.059  0.00  0.00    +0.134 A 
ATOM     17  C   UNL     1     -10.938  -1.095   0.049  0.00  0.00    +0.047 A 
ATOM     18  C   UNL     1      -9.749  -0.398   0.042  0.00  0.00    +0.013 A 
ATOM     19  C   UNL     1      -9.761   1.000   0.055  0.00  0.00    -0.004 A 
ATOM     20  C   UNL     1     -10.979   1.684   0.065  0.00  0.00    +0.028 A 
ATOM     21  C   UNL     1     -12.163   0.979   0.067  0.00  0.00    +0.060 A 
ATOM     22 BR   UNL     1     -13.813   1.904   0.079  0.00  0.00    -0.046 Br
BRANCH  16  24
ATOM     23  C   UNL     1     -13.227  -2.528   0.052  0.00  0.00    +0.277 C 
ATOM     24  O   UNL     1     -13.317  -1.102   0.061  0.00  0.00    -0.494 OA
ENDBRANCH  16  24
ENDBRANCH  14  19
ENDBRANCH   1  15
TORSDOF 5
