REMARK  Name = ZINC40038667
REMARK  5 active torsions:
REMARK  status: ('A' for Active; 'I' for Inactive)
REMARK    1  A    between atoms: C_1  and  C_2
REMARK    2  A    between atoms: C_2  and  C_3
REMARK    3  A    between atoms: C_17  and  C_19
REMARK    4  A    between atoms: C_29  and  C_31
REMARK    5  A    between atoms: C_31  and  C_32
REMARK                            x       y       z     vdW  Elec       q    Type
REMARK                         _______ _______ _______ _____ _____    ______ ____
ROOT
ATOM      1  C   UNL     1      -1.412  -0.526   0.013  0.00  0.00    -0.047 A 
ATOM      2  C   UNL     1      -2.051  -0.766   1.221  0.00  0.00    +0.007 A 
ATOM      3  C   UNL     1      -3.341  -1.245   1.253  0.00  0.00    +0.047 A 
ATOM      4  C   UNL     1      -4.024  -1.495   0.062  0.00  0.00    +0.139 A 
ATOM      5  C   UNL     1      -3.369  -1.242  -1.154  0.00  0.00    +0.065 A 
ATOM      6  C   UNL     1      -2.062  -0.755  -1.168  0.00  0.00    +0.019 A 
ATOM      7  C   UNL     1      -4.093  -1.490  -2.426  0.00  0.00    +0.199 A 
ATOM      8  O   UNL     1      -3.552  -1.460  -3.518  0.00  0.00    -0.287 OA
ATOM      9  C   UNL     1      -5.520  -1.774  -2.244  0.00  0.00    +0.072 A 
ATOM     10  C   UNL     1      -6.041  -1.994  -1.000  0.00  0.00    +0.199 A 
ATOM     11  O   UNL     1      -5.288  -1.972   0.117  0.00  0.00    -0.450 OA
ATOM     12  C   UNL     1      -7.486  -2.241  -1.142  0.00  0.00    +0.289 C 
ATOM     13  O   UNL     1      -8.246  -2.467  -0.222  0.00  0.00    -0.266 OA
ATOM     14  N   UNL     1      -7.842  -2.179  -2.441  0.00  0.00    -0.230 N 
ATOM     15  C   UNL     1      -6.635  -1.883  -3.231  0.00  0.00    +0.151 C 
ATOM     16  C   UNL     1      -9.123  -2.362  -2.945  0.00  0.00    +0.191 A 
ATOM     17  N   UNL     1      -9.560  -2.325  -4.197  0.00  0.00    -0.125 NA
ATOM     18  N   UNL     1     -10.774  -2.516  -4.483  0.00  0.00    -0.145 NA
ATOM     19  C   UNL     1     -11.682  -2.764  -3.560  0.00  0.00    +0.103 A 
ATOM     20  S   UNL     1     -10.656  -2.722  -2.093  0.00  0.00    -0.035 S 
ENDROOT
BRANCH  15  21
ATOM     21  C   UNL     1      -6.804  -0.581  -3.971  0.00  0.00    -0.022 A 
ATOM     22  C   UNL     1      -7.482   0.468  -3.378  0.00  0.00    +0.007 A 
ATOM     23  C   UNL     1      -7.637   1.662  -4.056  0.00  0.00    +0.015 A 
ATOM     24  C   UNL     1      -7.113   1.808  -5.328  0.00  0.00    +0.018 A 
ATOM     25  C   UNL     1      -6.435   0.758  -5.921  0.00  0.00    +0.015 A 
ATOM     26  C   UNL     1      -6.277  -0.434  -5.240  0.00  0.00    +0.007 A 
ATOM     27 BR   UNL     1      -7.325   3.441  -6.256  0.00  0.00    -0.050 Br
ENDBRANCH  15  21
BRANCH   1  29
ATOM     28  C   UNL     1      -0.019   1.526   0.010  0.00  0.00    +0.009 C 
ATOM     29  C   UNL     1       0.002  -0.004   0.002  0.00  0.00    +0.032 C 
ENDBRANCH   1  29
BRANCH  19  30
ATOM     30  C   UNL     1     -13.162  -3.015  -3.700  0.00  0.00    +0.061 C 
ATOM     31  C   UNL     1     -13.409  -4.515  -3.876  0.00  0.00    +0.011 C 
ENDBRANCH  19  30
TORSDOF 3
