REMARK  Name = ZINC57819807
REMARK  8 active torsions:
REMARK  status: ('A' for Active; 'I' for Inactive)
REMARK    1  A    between atoms: C_1  and  C_2
REMARK    2  A    between atoms: C_5  and  C_8
REMARK    3  A    between atoms: C_8  and  N_9
REMARK    4  A    between atoms: C_10  and  N_14
REMARK    5  A    between atoms: C_15  and  C_17
REMARK    6  A    between atoms: C_19  and  S_26
REMARK    7  A    between atoms: C_22  and  N_23
REMARK    8  A    between atoms: S_26  and  C_27
REMARK                            x       y       z     vdW  Elec       q    Type
REMARK                         _______ _______ _______ _____ _____    ______ ____
ROOT
ATOM      1  N   UNL     1       2.228  -5.581  -2.562  0.00  0.00    -0.266 N 
ATOM      2  C   UNL     1       3.005  -5.443  -3.654  0.00  0.00    +0.252 C 
ATOM      3  O   UNL     1       4.209  -5.582  -3.565  0.00  0.00    -0.270 OA
ATOM      4  H   UNL     1       1.267  -5.470  -2.633  0.00  0.00    +0.157 HD
ENDROOT
BRANCH   2   5
ATOM      5  C   UNL     1       2.393  -5.121  -4.961  0.00  0.00    +0.068 A 
ATOM      6  C   UNL     1       1.378  -5.928  -5.476  0.00  0.00    +0.030 A 
ATOM      7  C   UNL     1       0.808  -5.620  -6.702  0.00  0.00    +0.008 A 
ATOM      8  C   UNL     1       1.250  -4.509  -7.414  0.00  0.00    +0.017 A 
ATOM      9  C   UNL     1       2.256  -3.711  -6.904  0.00  0.00    +0.034 A 
ATOM     10  C   UNL     1       2.824  -4.006  -5.681  0.00  0.00    +0.138 A 
BRANCH  10  11
ATOM     11  N   UNL     1       3.897  -3.143  -5.136  0.00  0.00    +0.057 N 
ATOM     12  O   UNL     1       4.356  -2.251  -5.811  0.00  0.00    -0.126 OA
ATOM     13  O   UNL     1       4.312  -3.329  -4.016  0.00  0.00    -0.126 OA
ENDBRANCH  10  11
BRANCH   7  14
ATOM     14  S   UNL     1      -0.474  -6.635  -7.359  0.00  0.00    -0.129 S 
ATOM     15  C   UNL     1      -0.888  -5.850  -8.941  0.00  0.00    +0.090 C 
ENDBRANCH   7  14
ENDBRANCH   2   5
BRANCH   1  17
ATOM     16  N   UNL     1       2.147  -6.052  -0.154  0.00  0.00    -0.246 N 
ATOM     17  C   UNL     1       2.805  -5.885  -1.330  0.00  0.00    +0.124 A 
ATOM     18  C   UNL     1       4.132  -6.068  -1.086  0.00  0.00    +0.065 A 
ATOM     19  C   UNL     1       4.282  -6.353   0.274  0.00  0.00    +0.136 A 
ATOM     20  N   UNL     1       3.099  -6.338   0.833  0.00  0.00    -0.178 NA
BRANCH  16  21
ATOM     21  C   UNL     1       0.700  -5.945   0.048  0.00  0.00    +0.180 C 
BRANCH  21  26
ATOM     22  C   UNL     1      -0.671  -0.483   1.345  0.00  0.00    +0.044 C 
ATOM     23  C   UNL     1      -0.313  -1.908   1.007  0.00  0.00    -0.050 A 
ATOM     24  C   UNL     1      -0.293  -2.321  -0.312  0.00  0.00    +0.004 A 
ATOM     25  C   UNL     1       0.035  -3.627  -0.623  0.00  0.00    +0.006 A 
ATOM     26  C   UNL     1       0.343  -4.521   0.386  0.00  0.00    -0.026 A 
ATOM     27  C   UNL     1       0.324  -4.107   1.705  0.00  0.00    +0.006 A 
ATOM     28  C   UNL     1       0.000  -2.800   2.015  0.00  0.00    +0.004 A 
ENDBRANCH  21  26
ENDBRANCH  16  21
ENDBRANCH   1  17
TORSDOF 6
