REMARK  Name = ZINC36358982
REMARK  5 active torsions:
REMARK  status: ('A' for Active; 'I' for Inactive)
REMARK    1  A    between atoms: C_1  and  C_2
REMARK    2  A    between atoms: C_15  and  N_16
REMARK    3  A    between atoms: N_16  and  C_17
REMARK    4  A    between atoms: C_21  and  C_23
REMARK    5  A    between atoms: C_27  and  C_29
REMARK                            x       y       z     vdW  Elec       q    Type
REMARK                         _______ _______ _______ _____ _____    ______ ____
ROOT
ATOM      1  C   UNL     1      -0.130   1.340  -0.046  0.00  0.00    +0.090 C 
ATOM      2  C   UNL     1       0.411  -0.067  -0.043  0.00  0.00    +0.152 A 
ATOM      3  N   UNL     1       0.750  -0.767  -1.097  0.00  0.00    -0.132 NA
ATOM      4  N   UNL     1       1.175  -1.929  -0.741  0.00  0.00    -0.128 NA
ATOM      5  C   UNL     1       1.124  -2.026   0.578  0.00  0.00    +0.178 A 
ATOM      6  N   UNL     1       0.638  -0.831   1.047  0.00  0.00    -0.196 N 
ATOM      7  N   UNL     1       0.477  -0.631   2.420  0.00  0.00    -0.146 NA
ATOM      8  C   UNL     1       0.789  -1.579   3.272  0.00  0.00    +0.170 A 
ATOM      9  C   UNL     1       1.293  -2.814   2.824  0.00  0.00    +0.051 A 
ATOM     10  C   UNL     1       1.454  -3.044   1.494  0.00  0.00    +0.053 A 
ATOM     11  N   UNL     1       0.620  -1.358   4.640  0.00  0.00    -0.136 N 
ATOM     12  C   UNL     1       0.143  -0.222   5.187  0.00  0.00    +0.275 C 
ATOM     13  O   UNL     1      -0.214   0.783   4.595  0.00  0.00    -0.268 OA
ATOM     14  C   UNL     1       0.140  -0.439   6.638  0.00  0.00    +0.075 C 
ATOM     15  C   UNL     1      -0.266   0.446   7.623  0.00  0.00    +0.087 C 
ATOM     16  C   UNL     1       0.661  -1.802   6.819  0.00  0.00    +0.070 C 
ATOM     17  N   UNL     1       0.914  -2.284   5.641  0.00  0.00    -0.175 NA
ATOM     18  C   UNL     1       0.859  -2.513   8.133  0.00  0.00    +0.068 C 
ENDROOT
BRANCH  15  19
ATOM     19  N   UNL     1      -0.322   0.044   8.911  0.00  0.00    -0.320 N 
ATOM     20  H   UNL     1      -0.162  -0.885   9.136  0.00  0.00    +0.152 HD
BRANCH  19  21
ATOM     21  C   UNL     1      -0.609   0.968   9.919  0.00  0.00    +0.031 A 
ATOM     22  C   UNL     1      -0.844   2.300   9.597  0.00  0.00    +0.023 A 
ATOM     23  C   UNL     1      -1.129   3.209  10.596  0.00  0.00    +0.002 A 
ATOM     24  C   UNL     1      -1.179   2.797  11.915  0.00  0.00    +0.012 A 
ATOM     25  C   UNL     1      -0.946   1.474  12.239  0.00  0.00    +0.057 A 
ATOM     26  C   UNL     1      -0.666   0.557  11.244  0.00  0.00    +0.035 A 
BRANCH  25  27
ATOM     27  C   UNL     1      -1.002   1.029  13.678  0.00  0.00    +0.417 C 
ATOM     28  F   UNL     1      -1.305   2.125  14.493  0.00  0.00    -0.166 F 
ATOM     29  F   UNL     1      -1.991   0.051  13.825  0.00  0.00    -0.166 F 
ATOM     30  F   UNL     1       0.238   0.499  14.051  0.00  0.00    -0.166 F 
ENDBRANCH  25  27
ENDBRANCH  19  21
ENDBRANCH  15  19
TORSDOF 3
