REMARK  Name = ZINC63842606
REMARK  9 active torsions:
REMARK  status: ('A' for Active; 'I' for Inactive)
REMARK    1  A    between atoms: C_1  and  C_2
REMARK    2  A    between atoms: C_2  and  C_3
REMARK    3  A    between atoms: C_3  and  C_4
REMARK    4  A    between atoms: C_4  and  N_5
REMARK    5  A    between atoms: C_6  and  C_10
REMARK    6  A    between atoms: C_10  and  S_11
REMARK    7  A    between atoms: S_11  and  C_12
REMARK    8  A    between atoms: C_15  and  C_20
REMARK    9  A    between atoms: N_16  and  C_17
REMARK                            x       y       z     vdW  Elec       q    Type
REMARK                         _______ _______ _______ _____ _____    ______ ____
ROOT
ATOM      1  C   UNL     1      -2.631  -3.206   5.885  0.00  0.00    +0.193 A 
ATOM      2  N   UNL     1      -3.476  -2.691   5.004  0.00  0.00    -0.122 NA
ATOM      3  N   UNL     1      -4.582  -2.381   5.581  0.00  0.00    -0.129 NA
ATOM      4  C   UNL     1      -4.513  -2.678   6.870  0.00  0.00    +0.163 A 
ATOM      5  N   UNL     1      -3.259  -3.220   7.093  0.00  0.00    -0.299 N 
ENDROOT
BRANCH   4   6
ATOM      6  C   UNL     1      -5.521  -2.484   7.827  0.00  0.00    +0.025 C 
ATOM      7  C   UNL     1      -6.792  -1.950   7.617  0.00  0.00    +0.006 A 
ATOM      8  C   UNL     1      -7.442  -1.462   6.463  0.00  0.00    +0.010 A 
ATOM      9  C   UNL     1      -8.712  -0.991   6.554  0.00  0.00    +0.001 A 
ATOM     10  C   UNL     1      -9.401  -0.973   7.769  0.00  0.00    +0.002 A 
ATOM     11  C   UNL     1      -8.838  -1.425   8.916  0.00  0.00    +0.026 A 
ATOM     12  C   UNL     1      -7.514  -1.934   8.900  0.00  0.00    +0.043 A 
ATOM     13  N   UNL     1      -6.756  -2.424   9.861  0.00  0.00    -0.380 N 
ATOM     14  C   UNL     1      -5.459  -2.818   9.302  0.00  0.00    +0.152 C 
ATOM     15  H   UNL     1      -7.017  -2.514  10.791  0.00  0.00    +0.160 HD
ENDBRANCH   4   6
BRANCH   5  16
ATOM     16  C   UNL     1      -2.719  -3.705   8.365  0.00  0.00    +0.091 C 
ATOM     17  C   UNL     1      -1.204  -3.891   8.464  0.00  0.00    +0.027 C 
ATOM     18  C   UNL     1      -2.121  -5.113   8.387  0.00  0.00    +0.027 C 
ENDBRANCH   5  16
BRANCH   1  19
ATOM     19  S   UNL     1      -0.997  -3.775   5.553  0.00  0.00    -0.078 S 
BRANCH  19  20
ATOM     20  C   UNL     1      -0.780  -3.477   3.777  0.00  0.00    +0.152 C 
BRANCH  20  22
ATOM     21  N   UNL     1       1.108  -3.849   2.070  0.00  0.00    -0.235 N 
ATOM     22  C   UNL     1       0.596  -3.925   3.357  0.00  0.00    +0.142 C 
ATOM     23  N   UNL     1       1.484  -4.441   4.136  0.00  0.00    -0.158 NA
ATOM     24  N   UNL     1       2.631  -4.728   3.385  0.00  0.00    -0.184 N 
ATOM     25  N   UNL     1       2.377  -4.356   2.093  0.00  0.00    -0.144 NA
ATOM     26  H   UNL     1       3.453  -5.121   3.719  0.00  0.00    +0.191 HD
ATOM     27  H   UNL     1       2.465  -5.141   1.465  0.00  0.00    +0.169 HD
BRANCH  21  28
ATOM     28  C   UNL     1       0.410  -3.323   0.894  0.00  0.00    +0.127 C 
BRANCH  28  29
ATOM     29  C   UNL     1       0.688  -1.824   0.764  0.00  0.00    +0.020 C 
BRANCH  29  31
ATOM     30  C   UNL     1       0.237   0.224  -0.595  0.00  0.00    +0.004 C 
ATOM     31  C   UNL     1      -0.041  -1.275  -0.465  0.00  0.00    -0.002 C 
ENDBRANCH  29  31
ENDBRANCH  28  29
ENDBRANCH  21  28
ENDBRANCH  20  22
ENDBRANCH  19  20
ENDBRANCH   1  19
TORSDOF 8
