REMARK  Name = ZINC06625657
REMARK  4 active torsions:
REMARK  status: ('A' for Active; 'I' for Inactive)
REMARK    1  A    between atoms: C_1  and  N_2
REMARK    2  A    between atoms: C_5  and  C_10
REMARK    3  A    between atoms: N_17  and  C_19
REMARK    4  A    between atoms: C_19  and  C_20
REMARK                            x       y       z     vdW  Elec       q    Type
REMARK                         _______ _______ _______ _____ _____    ______ ____
ROOT
ATOM      1  C   UNL     1       3.601  -0.724  -0.036  0.00  0.00    +0.139 C 
ATOM      2  N   UNL     1       2.353   0.044  -0.020  0.00  0.00    -0.260 N 
ATOM      3  C   UNL     1       2.434   1.407  -0.013  0.00  0.00    +0.042 C 
ATOM      4  C   UNL     1       1.324   2.173   0.001  0.00  0.00    +0.058 C 
ATOM      5  C   UNL     1      -0.018   1.468   0.010  0.00  0.00    +0.148 C 
ATOM      6  N   UNL     1       0.002  -0.004   0.002  0.00  0.00    -0.287 N 
ATOM      7  C   UNL     1       1.196  -0.630  -0.013  0.00  0.00    +0.307 C 
ATOM      8  O   UNL     1       1.222  -1.845  -0.019  0.00  0.00    -0.252 OA
ATOM      9  C   UNL     1       1.671   3.539   0.005  0.00  0.00    +0.247 C 
ATOM     10  O   UNL     1       0.867   4.453   0.018  0.00  0.00    -0.270 OA
ATOM     11  N   UNL     1       3.006   3.701  -0.006  0.00  0.00    -0.285 N 
ATOM     12  C   UNL     1       3.608   2.360  -0.019  0.00  0.00    +0.160 C 
ATOM     13  H   UNL     1      -0.825  -0.512   0.007  0.00  0.00    +0.151 HD
ENDROOT
BRANCH   5  14
ATOM     14  C   UNL     1      -0.769   1.916   1.237  0.00  0.00    +0.015 A 
ATOM     15  C   UNL     1      -1.654   2.934   1.372  0.00  0.00    +0.013 A 
ATOM     16  C   UNL     1      -2.229   3.163   2.608  0.00  0.00    +0.008 A 
ATOM     17  C   UNL     1      -1.891   2.364   3.649  0.00  0.00    +0.045 A 
ATOM     18  S   UNL     1      -0.732   1.239   2.889  0.00  0.00    -0.099 S 
ENDBRANCH   5  14
BRANCH  11  19
ATOM     19  C   UNL     1       3.727   4.977  -0.006  0.00  0.00    +0.182 C 
BRANCH  19  20
ATOM     20  C   UNL     1       3.960   5.422  -1.427  0.00  0.00    +0.122 A 
ATOM     21  C   UNL     1       3.129   6.186  -2.159  0.00  0.00    +0.046 A 
ATOM     22  C   UNL     1       3.738   6.359  -3.423  0.00  0.00    +0.041 A 
ATOM     23  C   UNL     1       4.901   5.683  -3.391  0.00  0.00    +0.195 A 
ATOM     24  O   UNL     1       5.030   5.117  -2.180  0.00  0.00    -0.466 OA
ENDBRANCH  19  20
ENDBRANCH  11  19
TORSDOF 3
