REMARK  Name = ZINC35228817
REMARK  6 active torsions:
REMARK  status: ('A' for Active; 'I' for Inactive)
REMARK    1  A    between atoms: C_12  and  C_34
REMARK    2  A    between atoms: C_15  and  C_17
REMARK    3  A    between atoms: C_17  and  N_18
REMARK    4  A    between atoms: N_18  and  C_19
REMARK    5  A    between atoms: C_22  and  C_24
REMARK    6  A    between atoms: C_27  and  N_31
REMARK                            x       y       z     vdW  Elec       q    Type
REMARK                         _______ _______ _______ _____ _____    ______ ____
ROOT
ATOM      1  C   UNL     1       0.992  -3.557  -0.978  0.00  0.00    +0.002 A 
ATOM      2  C   UNL     1       1.869  -3.126  -1.958  0.00  0.00    +0.002 A 
ATOM      3  C   UNL     1       2.365  -1.836  -1.935  0.00  0.00    +0.025 A 
ATOM      4  C   UNL     1       1.981  -0.965  -0.927  0.00  0.00    +0.061 A 
ATOM      5  C   UNL     1       1.088  -1.403   0.057  0.00  0.00    +0.068 A 
ATOM      6  C   UNL     1       0.601  -2.695   0.031  0.00  0.00    +0.028 A 
ATOM      7  N   UNL     1       0.704  -0.486   1.045  0.00  0.00    -0.316 N 
ATOM      8  C   UNL     1       0.056  -0.686   2.218  0.00  0.00    +0.092 A 
ATOM      9  C   UNL     1      -0.082   0.510   2.833  0.00  0.00    +0.020 A 
ATOM     10  C   UNL     1       0.505   1.488   2.000  0.00  0.00    +0.025 A 
ATOM     11  C   UNL     1       0.975   0.859   0.917  0.00  0.00    +0.052 A 
ATOM     12  C   UNL     1       1.685   1.424  -0.290  0.00  0.00    +0.194 C 
ATOM     13  N   UNL     1       2.487   0.342  -0.885  0.00  0.00    -0.252 N 
ATOM     14  C   UNL     1       3.708   0.608  -1.389  0.00  0.00    +0.238 C 
ATOM     15  O   UNL     1       4.405  -0.296  -1.798  0.00  0.00    -0.273 OA
ENDROOT
BRANCH  12  16
ATOM     16  C   UNL     1       0.674   1.923  -1.290  0.00  0.00    +0.131 A 
ATOM     17  C   UNL     1       0.310   3.205  -1.468  0.00  0.00    +0.047 A 
ATOM     18  C   UNL     1      -0.655   3.218  -2.501  0.00  0.00    +0.041 A 
ATOM     19  C   UNL     1      -0.823   1.942  -2.893  0.00  0.00    +0.195 A 
ATOM     20  O   UNL     1      -0.011   1.163  -2.160  0.00  0.00    -0.466 OA
ENDBRANCH  12  16
BRANCH  14  21
ATOM     21  C   UNL     1       4.206   2.029  -1.446  0.00  0.00    +0.204 C 
BRANCH  21  22
ATOM     22  N   UNL     1       5.496   2.067  -2.140  0.00  0.00    -0.286 N 
ATOM     23  C   UNL     1       6.610   2.428  -1.473  0.00  0.00    +0.249 C 
ATOM     24  O   UNL     1       7.667   2.529  -2.065  0.00  0.00    -0.270 OA
BRANCH  23  25
ATOM     25  C   UNL     1       6.546   2.702  -0.023  0.00  0.00    +0.055 A 
ATOM     26  C   UNL     1       5.650   1.999   0.785  0.00  0.00    +0.017 A 
ATOM     27  C   UNL     1       5.596   2.259   2.139  0.00  0.00    +0.033 A 
ATOM     28  C   UNL     1       6.427   3.215   2.697  0.00  0.00    +0.128 A 
ATOM     29  C   UNL     1       7.316   3.916   1.904  0.00  0.00    +0.053 A 
ATOM     30  C   UNL     1       7.386   3.662   0.548  0.00  0.00    +0.055 A 
ATOM     31 CL   UNL     1       8.508   4.537  -0.446  0.00  0.00    -0.083 Cl
BRANCH  28  32
ATOM     32  N   UNL     1       6.362   3.489   4.150  0.00  0.00    +0.056 N 
ATOM     33  O   UNL     1       5.585   2.878   4.846  0.00  0.00    -0.126 OA
ATOM     34  O   UNL     1       7.087   4.323   4.641  0.00  0.00    -0.126 OA
ENDBRANCH  28  32
ENDBRANCH  23  25
BRANCH  22  35
ATOM     35  C   UNL     1       5.574   1.711  -3.559  0.00  0.00    +0.077 C 
ATOM     36  C   UNL     1       6.956   1.384  -4.130  0.00  0.00    +0.024 C 
ATOM     37  C   UNL     1       6.269   2.701  -4.498  0.00  0.00    +0.024 C 
ENDBRANCH  22  35
ENDBRANCH  21  22
ENDBRANCH  14  21
TORSDOF 6
