REMARK  Name = ZINC62320434
REMARK  4 active torsions:
REMARK  status: ('A' for Active; 'I' for Inactive)
REMARK    1  A    between atoms: C_1  and  N_2
REMARK    2  A    between atoms: C_4  and  C_14
REMARK    3  A    between atoms: C_12  and  N_13
REMARK    4  A    between atoms: N_16  and  C_17
REMARK                            x       y       z     vdW  Elec       q    Type
REMARK                         _______ _______ _______ _____ _____    ______ ____
ROOT
ATOM      1  C   UNL     1      -0.024   1.772   0.189  0.00  0.00    +0.149 C 
ATOM      2  N   UNL     1      -0.031   0.321  -0.014  0.00  0.00    -0.349 N 
ATOM      3  C   UNL     1      -0.060  -0.151  -1.268  0.00  0.00    +0.102 A 
ATOM      4  C   UNL     1      -0.068  -1.502  -1.545  0.00  0.00    +0.100 A 
ATOM      5  C   UNL     1      -0.043  -2.458  -0.425  0.00  0.00    +0.203 A 
ATOM      6  O   UNL     1      -0.048  -3.661  -0.617  0.00  0.00    -0.286 OA
ATOM      7  C   UNL     1      -0.011  -1.899   0.936  0.00  0.00    +0.066 A 
ATOM      8  C   UNL     1      -0.000  -0.502   1.092  0.00  0.00    +0.054 A 
ATOM      9  C   UNL     1       0.035   0.039   2.373  0.00  0.00    +0.026 A 
ATOM     10  C   UNL     1       0.065  -0.791   3.475  0.00  0.00    +0.004 A 
ATOM     11  C   UNL     1       0.061  -2.167   3.328  0.00  0.00    +0.023 A 
ATOM     12  C   UNL     1       0.014  -2.733   2.062  0.00  0.00    +0.037 A 
ENDROOT
BRANCH   4  13
ATOM     13  C   UNL     1      -0.101  -1.980  -2.935  0.00  0.00    +0.249 C 
ATOM     14  O   UNL     1      -0.230  -1.187  -3.849  0.00  0.00    -0.270 OA
ATOM     15  N   UNL     1       0.011  -3.298  -3.198  0.00  0.00    -0.308 N 
ATOM     16  H   UNL     1       0.040  -3.937  -2.469  0.00  0.00    +0.149 HD
BRANCH  15  17
ATOM     17  C   UNL     1       0.090  -3.764  -4.584  0.00  0.00    +0.073 C 
ATOM     18  C   UNL     1      -1.337  -3.848  -5.165  0.00  0.00    +0.022 C 
ATOM     19  C   UNL     1      -1.244  -3.820  -6.666  0.00  0.00    +0.002 C 
ATOM     20  C   UNL     1      -1.218  -5.232  -7.282  0.00  0.00    +0.000 C 
ATOM     21  C   UNL     1      -0.329  -6.212  -6.493  0.00  0.00    +0.000 C 
ATOM     22  C   UNL     1       0.963  -5.584  -6.045  0.00  0.00    +0.002 C 
ATOM     23  C   UNL     1       0.776  -5.047  -4.611  0.00  0.00    +0.022 C 
ENDBRANCH  15  17
ENDBRANCH   4  13
BRANCH  12  24
ATOM     24  N   UNL     1       0.009  -4.115   1.912  0.00  0.00    -0.357 N 
ATOM     25  H   UNL     1       0.072  -4.506   1.027  0.00  0.00    +0.142 HD
ATOM     26  H   UNL     1      -0.057  -4.687   2.692  0.00  0.00    +0.142 HD
ENDBRANCH  12  24
TORSDOF 3
