REMARK  Name = ZINC45135475
REMARK  6 active torsions:
REMARK  status: ('A' for Active; 'I' for Inactive)
REMARK    1  A    between atoms: C_1  and  C_2
REMARK    2  A    between atoms: C_2  and  C_18
REMARK    3  A    between atoms: C_4  and  N_6
REMARK    4  A    between atoms: C_7  and  C_9
REMARK    5  A    between atoms: C_9  and  C_16
REMARK    6  A    between atoms: C_16  and  N_17
REMARK                            x       y       z     vdW  Elec       q    Type
REMARK                         _______ _______ _______ _____ _____    ______ ____
ROOT
ATOM      1  C   UNL     1       3.191  -3.588   1.264  0.00  0.00    +0.031 C 
ATOM      2  C   UNL     1       2.259  -4.769   1.225  0.00  0.00    +0.014 C 
ATOM      3  C   UNL     1       1.041  -4.589   2.150  0.00  0.00    +0.001 C 
ATOM      4  C   UNL     1       1.410  -3.970   3.512  0.00  0.00    +0.000 C 
ATOM      5  C   UNL     1       2.683  -4.540   4.077  0.00  0.00    +0.000 C 
ATOM      6  C   UNL     1       3.855  -3.625   3.666  0.00  0.00    +0.001 C 
ATOM      7  C   UNL     1       4.297  -3.871   2.301  0.00  0.00    +0.014 C 
ENDROOT
BRANCH   1   9
ATOM      8  N   UNL     1       3.069  -1.321   2.247  0.00  0.00    -0.312 N 
ATOM      9  C   UNL     1       2.426  -2.352   1.665  0.00  0.00    +0.218 C 
ATOM     10  O   UNL     1       1.232  -2.287   1.463  0.00  0.00    -0.275 OA
ATOM     11  H   UNL     1       4.010  -1.399   2.468  0.00  0.00    +0.149 HD
BRANCH   8  15
ATOM     12  C   UNL     1       1.869   1.548   4.535  0.00  0.00    +0.013 C 
ATOM     13  C   UNL     1       2.887   0.797   3.675  0.00  0.00    -0.015 C 
ATOM     14  C   UNL     1       3.045   1.240   2.219  0.00  0.00    +0.031 C 
ATOM     15  C   UNL     1       2.346  -0.082   2.545  0.00  0.00    +0.079 C 
ATOM     16  C   UNL     1       4.141   0.314   4.407  0.00  0.00    +0.013 C 
ENDBRANCH   8  15
ENDBRANCH   1   9
BRANCH   1  17
ATOM     17  C   UNL     1       3.820  -3.378  -0.115  0.00  0.00    -0.070 C 
BRANCH  17  18
ATOM     18  N   UNL     1       2.777  -2.995  -1.076  0.00  0.00    +0.379 N 
ATOM     19  H   UNL     1       2.129  -3.760  -1.191  0.00  0.00    -0.090 HD
ATOM     20  H   UNL     1       2.284  -2.185  -0.732  0.00  0.00    -0.090 HD
ATOM     21  H   UNL     1       3.202  -2.778  -1.965  0.00  0.00    -0.090 HD
ENDBRANCH  17  18
ENDBRANCH   1  17
TORSDOF 4
