REMARK  Name = ZINC39483998
REMARK  10 active torsions:
REMARK  status: ('A' for Active; 'I' for Inactive)
REMARK    1  A    between atoms: C_1  and  C_2
REMARK    2  A    between atoms: C_2  and  C_3
REMARK    3  A    between atoms: C_3  and  C_5
REMARK    4  A    between atoms: C_7  and  C_29
REMARK    5  A    between atoms: C_17  and  C_19
REMARK    6  A    between atoms: C_24  and  O_25
REMARK    7  A    between atoms: C_33  and  S_35
REMARK    8  A    between atoms: S_35  and  C_38
REMARK    9  A    between atoms: C_38  and  C_39
REMARK   10  A    between atoms: C_38  and  C_40
REMARK                            x       y       z     vdW  Elec       q    Type
REMARK                         _______ _______ _______ _____ _____    ______ ____
ROOT
ATOM      1  C   UNL     1       0.863  -1.968  -1.486  0.00  0.00    +0.082 C 
ATOM      2  C   UNL     1       1.014  -2.220  -2.983  0.00  0.00    +0.061 C 
ATOM      3  C   UNL     1       1.304  -3.670  -3.266  0.00  0.00    -0.025 A 
ATOM      4  C   UNL     1       1.013  -4.180  -4.516  0.00  0.00    +0.054 A 
ATOM      5  C   UNL     1       1.272  -5.511  -4.811  0.00  0.00    +0.167 A 
ATOM      6  C   UNL     1       1.830  -6.349  -3.842  0.00  0.00    +0.167 A 
ATOM      7  C   UNL     1       2.124  -5.850  -2.590  0.00  0.00    +0.061 A 
ATOM      8  C   UNL     1       1.860  -4.507  -2.295  0.00  0.00    +0.025 A 
ATOM      9  C   UNL     1       2.166  -3.982  -0.954  0.00  0.00    +0.172 C 
ATOM     10  O   UNL     1       2.454  -4.726  -0.039  0.00  0.00    -0.291 OA
ATOM     11  C   UNL     1       2.110  -2.482  -0.755  0.00  0.00    +0.105 C 
ATOM     12  O   UNL     1       1.983  -7.595  -4.380  0.00  0.00    -0.453 OA
ATOM     13  C   UNL     1       1.138  -7.615  -5.545  0.00  0.00    +0.466 C 
ATOM     14  O   UNL     1       1.078  -6.235  -5.950  0.00  0.00    -0.453 OA
ENDROOT
BRANCH  11  15
ATOM     15  C   UNL     1       2.011  -2.163   0.715  0.00  0.00    +0.005 A 
ATOM     16  C   UNL     1       0.966  -2.670   1.463  0.00  0.00    +0.008 A 
ATOM     17  C   UNL     1       0.874  -2.377   2.811  0.00  0.00    +0.001 A 
ATOM     18  C   UNL     1       1.826  -1.576   3.414  0.00  0.00    +0.004 A 
ATOM     19  C   UNL     1       2.873  -1.067   2.670  0.00  0.00    +0.046 A 
ATOM     20  C   UNL     1       2.970  -1.363   1.318  0.00  0.00    +0.121 A 
BRANCH  20  21
ATOM     21  O   UNL     1       4.002  -0.868   0.586  0.00  0.00    -0.506 OA
ATOM     22  H   UNL     1       3.822  -0.007   0.185  0.00  0.00    +0.292 HD
ENDBRANCH  20  21
ENDBRANCH  11  15
BRANCH   2  23
ATOM     23  C   UNL     1      -0.262  -1.828  -3.682  0.00  0.00    -0.037 A 
ATOM     24  C   UNL     1      -1.452  -2.449  -3.347  0.00  0.00    +0.004 A 
ATOM     25  C   UNL     1      -2.623  -2.089  -3.987  0.00  0.00    +0.002 A 
ATOM     26  C   UNL     1      -2.604  -1.109  -4.962  0.00  0.00    +0.027 A 
ATOM     27  C   UNL     1      -1.415  -0.488  -5.296  0.00  0.00    +0.089 A 
ATOM     28  C   UNL     1      -0.245  -0.845  -4.652  0.00  0.00    +0.031 A 
BRANCH  27  29
ATOM     29  S   UNL     1      -1.392   0.761  -6.539  0.00  0.00    -0.001 S 
ATOM     30  O   UNL     1      -0.069   0.733  -7.056  0.00  0.00    -0.169 OA
ATOM     31  O   UNL     1      -2.503   0.463  -7.373  0.00  0.00    -0.169 OA
BRANCH  29  32
ATOM     32  C   UNL     1      -1.681   2.313  -5.645  0.00  0.00    +0.130 C 
ATOM     33  C   UNL     1      -1.805   3.463  -6.647  0.00  0.00    +0.032 C 
ATOM     34  C   UNL     1      -2.973   2.202  -4.833  0.00  0.00    +0.032 C 
ENDBRANCH  29  32
ENDBRANCH  27  29
ENDBRANCH   2  23
BRANCH   1  35
ATOM     35  C   UNL     1       0.707  -0.490  -1.238  0.00  0.00    +0.138 C 
ATOM     36  O   UNL     1       1.148   0.305  -2.033  0.00  0.00    -0.297 OA
BRANCH  35  38
ATOM     37  C   UNL     1      -0.019   1.526   0.010  0.00  0.00    +0.012 C 
ATOM     38  C   UNL     1       0.002  -0.004   0.002  0.00  0.00    +0.071 C 
ENDBRANCH  35  38
ENDBRANCH   1  35
TORSDOF 7
