REMARK  Name = ZINC05352326
REMARK  10 active torsions:
REMARK  status: ('A' for Active; 'I' for Inactive)
REMARK    1  A    between atoms: C_1  and  C_2
REMARK    2  A    between atoms: C_7  and  C_8
REMARK    3  A    between atoms: C_17  and  C_19
REMARK    4  A    between atoms: C_19  and  C_20
REMARK    5  A    between atoms: C_20  and  C_21
REMARK    6  A    between atoms: C_20  and  C_22
REMARK    7  A    between atoms: N_25  and  C_28
REMARK    8  A    between atoms: C_28  and  C_29
REMARK    9  A    between atoms: C_29  and  O_30
REMARK   10  A    between atoms: O_30  and  C_31
REMARK                            x       y       z     vdW  Elec       q    Type
REMARK                         _______ _______ _______ _____ _____    ______ ____
ROOT
ATOM      1  C   UNL     1      -3.693   3.611   7.012  0.00  0.00    +0.044 C 
ATOM      2  C   UNL     1      -2.805   3.747   5.803  0.00  0.00    -0.046 A 
ATOM      3  C   UNL     1      -2.349   2.615   5.152  0.00  0.00    +0.004 A 
ATOM      4  C   UNL     1      -1.534   2.740   4.041  0.00  0.00    +0.005 A 
ATOM      5  C   UNL     1      -1.177   3.989   3.585  0.00  0.00    -0.027 A 
ATOM      6  C   UNL     1      -1.630   5.136   4.232  0.00  0.00    +0.039 A 
ATOM      7  C   UNL     1      -2.450   5.000   5.349  0.00  0.00    -0.026 A 
ATOM      8  C   UNL     1      -2.953   6.228   6.065  0.00  0.00    +0.046 C 
ATOM      9  N   UNL     1      -1.141   6.276   3.591  0.00  0.00    -0.286 N 
ATOM     10  C   UNL     1      -0.371   5.972   2.529  0.00  0.00    +0.211 C 
ATOM     11  O   UNL     1       0.184   6.756   1.788  0.00  0.00    -0.277 OA
ATOM     12  C   UNL     1      -0.332   4.470   2.441  0.00  0.00    +0.050 C 
ATOM     13  C   UNL     1      -0.870   3.975   1.093  0.00  0.00    +0.088 C 
ATOM     14  C   UNL     1       0.400   3.717   0.236  0.00  0.00    +0.073 C 
ATOM     15  C   UNL     1       1.582   4.094   1.154  0.00  0.00    -0.057 C 
ATOM     16  C   UNL     1       0.384   2.220   0.029  0.00  0.00    +0.224 C 
ATOM     17  O   UNL     1       1.215   1.589  -0.588  0.00  0.00    -0.275 OA
ATOM     18  N   UNL     1      -0.691   1.699   0.632  0.00  0.00    -0.240 N 
ATOM     19  C   UNL     1      -1.467   2.595   1.254  0.00  0.00    +0.225 C 
ATOM     20  O   UNL     1      -2.487   2.339   1.856  0.00  0.00    -0.275 OA
ATOM     21  H   UNL     1      -1.333   7.183   3.879  0.00  0.00    +0.155 HD
ATOM     22  N   UNL     1       1.032   3.975   2.506  0.00  0.00    +0.394 N 
ATOM     23  H   UNL     1       1.039   2.994   2.807  0.00  0.00    -0.083 HD
ATOM     24  H   UNL     1       1.583   4.539   3.164  0.00  0.00    -0.083 HD
ENDROOT
BRANCH  15  25
ATOM     25  C   UNL     1       2.023   5.535   0.889  0.00  0.00    -0.012 C 
BRANCH  25  26
ATOM     26  C   UNL     1       2.675   6.109   2.148  0.00  0.00    -0.019 C 
ATOM     27  C   UNL     1       3.963   5.340   2.451  0.00  0.00    +0.007 C 
ATOM     28  C   UNL     1       3.004   7.586   1.925  0.00  0.00    +0.007 C 
ENDBRANCH  25  26
ENDBRANCH  15  25
BRANCH  18  29
ATOM     29  C   UNL     1      -0.997   0.267   0.609  0.00  0.00    +0.144 C 
BRANCH  29  30
ATOM     30  C   UNL     1      -2.000  -0.022  -0.510  0.00  0.00    +0.179 C 
BRANCH  30  31
ATOM     31  O   UNL     1      -1.429   0.344  -1.768  0.00  0.00    -0.381 OA
ATOM     32  C   UNL     1      -2.289   0.114  -2.885  0.00  0.00    +0.194 C 
ENDBRANCH  30  31
ENDBRANCH  29  30
ENDBRANCH  18  29
TORSDOF 5
