REMARK  Name = ZINC09327313
REMARK  10 active torsions:
REMARK  status: ('A' for Active; 'I' for Inactive)
REMARK    1  A    between atoms: C_1  and  C_2
REMARK    2  A    between atoms: C_4  and  C_32
REMARK    3  A    between atoms: N_8  and  C_28
REMARK    4  A    between atoms: N_10  and  C_11
REMARK    5  A    between atoms: C_11  and  C_13
REMARK    6  A    between atoms: N_18  and  S_19
REMARK    7  A    between atoms: S_19  and  C_22
REMARK    8  A    between atoms: C_28  and  C_29
REMARK    9  A    between atoms: C_29  and  O_30
REMARK   10  A    between atoms: O_30  and  C_31
REMARK                            x       y       z     vdW  Elec       q    Type
REMARK                         _______ _______ _______ _____ _____    ______ ____
ROOT
ATOM      1  C   UNL     1      -0.061   3.546  -0.834  0.00  0.00    +0.044 C 
ATOM      2  C   UNL     1       0.299   2.098  -0.625  0.00  0.00    -0.048 A 
ATOM      3  C   UNL     1       1.615   1.696  -0.784  0.00  0.00    +0.008 A 
ATOM      4  C   UNL     1       1.942   0.365  -0.593  0.00  0.00    -0.034 A 
ATOM      5  C   UNL     1       0.960  -0.533  -0.248  0.00  0.00    +0.042 A 
ATOM      6  C   UNL     1      -0.380  -0.155  -0.080  0.00  0.00    +0.058 A 
ATOM      7  C   UNL     1      -0.684   1.201  -0.281  0.00  0.00    +0.030 A 
ATOM      8  N   UNL     1      -1.236  -1.183   0.267  0.00  0.00    -0.319 N 
ATOM      9  C   UNL     1      -0.757  -2.446   0.419  0.00  0.00    +0.167 A 
ATOM     10  N   UNL     1      -1.427  -3.549   0.747  0.00  0.00    -0.155 NA
ATOM     11  S   UNL     1       0.936  -2.276   0.085  0.00  0.00    -0.052 S 
ATOM     12  C   UNL     1       3.367  -0.097  -0.760  0.00  0.00    +0.045 C 
ENDROOT
BRANCH  10  13
ATOM     13  C   UNL     1      -2.745  -3.502   0.910  0.00  0.00    +0.257 C 
ATOM     14  O   UNL     1      -3.466  -3.236  -0.033  0.00  0.00    -0.272 OA
BRANCH  13  15
ATOM     15  C   UNL     1      -3.347  -3.777   2.264  0.00  0.00    +0.168 C 
ATOM     16  C   UNL     1      -2.848  -2.731   3.283  0.00  0.00    +0.031 C 
ATOM     17  C   UNL     1      -4.008  -1.695   3.308  0.00  0.00    +0.019 C 
ATOM     18  C   UNL     1      -5.246  -2.609   3.134  0.00  0.00    +0.110 C 
ATOM     19  N   UNL     1      -4.811  -3.658   2.194  0.00  0.00    -0.164 NA
BRANCH  19  20
ATOM     20  S   UNL     1      -5.806  -4.554   1.219  0.00  0.00    +0.068 S 
ATOM     21  O   UNL     1      -6.990  -3.789   1.035  0.00  0.00    -0.152 OA
ATOM     22  O   UNL     1      -5.012  -5.003   0.130  0.00  0.00    -0.152 OA
BRANCH  20  23
ATOM     23  C   UNL     1      -6.271  -5.990   2.129  0.00  0.00    +0.143 A 
ATOM     24  C   UNL     1      -7.330  -6.171   2.956  0.00  0.00    +0.036 A 
ATOM     25  C   UNL     1      -7.500  -7.399   3.567  0.00  0.00    +0.010 A 
ATOM     26  C   UNL     1      -6.599  -8.383   3.329  0.00  0.00    +0.047 A 
ATOM     27  S   UNL     1      -5.466  -7.582   2.206  0.00  0.00    -0.077 S 
ENDBRANCH  20  23
ENDBRANCH  19  20
ENDBRANCH  13  15
ENDBRANCH  10  13
BRANCH   8  28
ATOM     28  C   UNL     1      -2.661  -0.912   0.470  0.00  0.00    +0.152 C 
BRANCH  28  29
ATOM     29  C   UNL     1      -3.376  -0.901  -0.882  0.00  0.00    +0.181 C 
BRANCH  29  30
ATOM     30  O   UNL     1      -4.785  -0.780  -0.675  0.00  0.00    -0.381 OA
ATOM     31  C   UNL     1      -5.550  -0.761  -1.882  0.00  0.00    +0.194 C 
ENDBRANCH  29  30
ENDBRANCH  28  29
ENDBRANCH   8  28
TORSDOF 7
