REMARK  Name = ZINC12438653
REMARK  2 active torsions:
REMARK  status: ('A' for Active; 'I' for Inactive)
REMARK    1  A    between atoms: C_3  and  N_9
REMARK    2  A    between atoms: C_15  and  C_16
REMARK                            x       y       z     vdW  Elec       q    Type
REMARK                         _______ _______ _______ _____ _____    ______ ____
ROOT
ATOM      1  N   UNL     1       3.995   1.460   1.184  0.00  0.00    -0.224 NA
ATOM      2  C   UNL     1       4.024   2.688   1.648  0.00  0.00    +0.166 C 
ATOM      3  N   UNL     1       5.097   3.549   1.729  0.00  0.00    -0.260 N 
ATOM      4  C   UNL     1       4.951   4.764   2.229  0.00  0.00    +0.256 C 
ATOM      5  O   UNL     1       5.888   5.537   2.308  0.00  0.00    -0.269 OA
ATOM      6  C   UNL     1       3.598   5.141   2.686  0.00  0.00    +0.078 C 
ATOM      7  C   UNL     1       3.168   6.306   3.232  0.00  0.00    +0.028 C 
ATOM      8  S   UNL     1       2.680   3.652   2.321  0.00  0.00    -0.049 S 
ATOM      9  H   UNL     1       5.969   3.260   1.417  0.00  0.00    +0.157 HD
ENDROOT
BRANCH   1  12
ATOM     10  C   UNL     1       0.443   0.679   0.843  0.00  0.00    +0.004 A 
ATOM     11  C   UNL     1       1.624   1.393   0.845  0.00  0.00    +0.029 A 
ATOM     12  C   UNL     1       2.821   0.757   1.180  0.00  0.00    +0.086 A 
ATOM     13  C   UNL     1       2.814  -0.601   1.511  0.00  0.00    +0.085 A 
ATOM     14  C   UNL     1       1.625  -1.304   1.504  0.00  0.00    +0.061 A 
ATOM     15  C   UNL     1       0.442  -0.665   1.171  0.00  0.00    +0.021 A 
ATOM     16 CL   UNL     1       1.613  -2.990   1.915  0.00  0.00    -0.082 Cl
ATOM     17 CL   UNL     1       4.297  -1.403   1.928  0.00  0.00    -0.080 Cl
ENDBRANCH   1  12
BRANCH   7  18
ATOM     18  C   UNL     1       1.804   6.405   3.770  0.00  0.00    -0.024 A 
ATOM     19  C   UNL     1       1.068   5.245   4.041  0.00  0.00    +0.009 A 
ATOM     20  C   UNL     1      -0.210   5.347   4.546  0.00  0.00    +0.020 A 
ATOM     21  C   UNL     1      -0.768   6.592   4.785  0.00  0.00    +0.041 A 
ATOM     22  C   UNL     1      -0.046   7.745   4.519  0.00  0.00    +0.020 A 
ATOM     23  C   UNL     1       1.236   7.660   4.019  0.00  0.00    +0.009 A 
ATOM     24 CL   UNL     1      -2.379   6.710   5.421  0.00  0.00    -0.084 Cl
ENDBRANCH   7  18
TORSDOF 2
