REMARK  Name = ZINC25455642
REMARK  10 active torsions:
REMARK  status: ('A' for Active; 'I' for Inactive)
REMARK    1  A    between atoms: C_1  and  C_2
REMARK    2  A    between atoms: C_2  and  C_3
REMARK    3  A    between atoms: N_5  and  C_29
REMARK    4  A    between atoms: C_9  and  S_11
REMARK    5  A    between atoms: S_11  and  C_12
REMARK    6  A    between atoms: C_12  and  C_14
REMARK    7  A    between atoms: C_12  and  C_15
REMARK    8  A    between atoms: N_20  and  C_21
REMARK    9  A    between atoms: C_24  and  C_28
REMARK   10  A    between atoms: C_26  and  C_27
REMARK                            x       y       z     vdW  Elec       q    Type
REMARK                         _______ _______ _______ _____ _____    ______ ____
ROOT
ATOM      1  C   UNL     1       3.722   3.931  -0.001  0.00  0.00    +0.136 C 
ATOM      2  C   UNL     1       3.061   4.334   1.319  0.00  0.00    +0.029 C 
ENDROOT
BRANCH   1   3
ATOM      3  C   UNL     1       5.066   4.604  -0.116  0.00  0.00    +0.233 C 
ATOM      4  O   UNL     1       6.076   3.987   0.145  0.00  0.00    -0.274 OA
ATOM      5  N   UNL     1       5.143   5.891  -0.509  0.00  0.00    -0.239 N 
ATOM      6  C   UNL     1       6.345   6.492  -0.612  0.00  0.00    +0.310 C 
ATOM      7  O   UNL     1       7.358   5.874  -0.350  0.00  0.00    -0.252 OA
ATOM      8  N   UNL     1       6.423   7.779  -1.005  0.00  0.00    -0.269 N 
ATOM      9  H   UNL     1       4.226   6.450  -0.746  0.00  0.00    +0.159 HD
ATOM     10  H   UNL     1       5.504   8.358  -1.179  0.00  0.00    +0.156 HD
BRANCH   8  11
ATOM     11  C   UNL     1       7.673   8.379  -1.192  0.00  0.00    +0.038 A 
ATOM     12  C   UNL     1       8.783   7.902  -0.507  0.00  0.00    +0.024 A 
ATOM     13  C   UNL     1      10.016   8.496  -0.693  0.00  0.00    +0.005 A 
ATOM     14  C   UNL     1      10.146   9.566  -1.561  0.00  0.00    -0.050 A 
ATOM     15  C   UNL     1       9.042  10.043  -2.244  0.00  0.00    +0.008 A 
ATOM     16  C   UNL     1       7.808   9.449  -2.066  0.00  0.00    -0.029 A 
ATOM     17  C   UNL     1       6.607   9.966  -2.816  0.00  0.00    +0.045 C 
ATOM     18  C   UNL     1      11.492  10.211  -1.763  0.00  0.00    +0.044 C 
ENDBRANCH   8  11
ENDBRANCH   1   3
BRANCH   1  19
ATOM     19  S   UNL     1       3.942   2.131  -0.042  0.00  0.00    -0.084 S 
BRANCH  19  26
ATOM     20  C   UNL     1      -0.984  -1.959  -0.216  0.00  0.00    +0.221 C 
ATOM     21  O   UNL     1       0.130  -2.427  -0.327  0.00  0.00    -0.275 OA
ATOM     22  N   UNL     1      -1.145  -0.628  -0.080  0.00  0.00    -0.246 N 
ATOM     23  C   UNL     1      -0.033   0.210  -0.067  0.00  0.00    +0.191 A 
ATOM     24  N   UNL     1       0.035   1.531  -0.038  0.00  0.00    -0.125 NA
ATOM     25  N   UNL     1       1.138   2.144  -0.029  0.00  0.00    -0.133 NA
ATOM     26  C   UNL     1       2.296   1.501  -0.049  0.00  0.00    +0.161 A 
ATOM     27  S   UNL     1       1.711  -0.191  -0.084  0.00  0.00    -0.024 S 
BRANCH  22  28
ATOM     28  C   UNL     1      -2.490  -0.064   0.054  0.00  0.00    +0.084 C 
ATOM     29  C   UNL     1      -2.614   1.460   0.115  0.00  0.00    +0.025 C 
ATOM     30  C   UNL     1      -2.840   0.623   1.376  0.00  0.00    +0.025 C 
ENDBRANCH  22  28
BRANCH  20  32
ATOM     31  C   UNL     1      -1.729  -4.317  -0.395  0.00  0.00    +0.013 C 
ATOM     32  C   UNL     1      -2.187  -2.867  -0.230  0.00  0.00    +0.093 C 
ENDBRANCH  20  32
ENDBRANCH  19  26
ENDBRANCH   1  19
TORSDOF 6
