REMARK  Name = ZINC13283996
REMARK  8 active torsions:
REMARK  status: ('A' for Active; 'I' for Inactive)
REMARK    1  A    between atoms: C_1  and  O_2
REMARK    2  A    between atoms: O_2  and  C_3
REMARK    3  A    between atoms: C_7  and  O_9
REMARK    4  A    between atoms: O_9  and  C_10
REMARK    5  A    between atoms: C_10  and  C_11
REMARK    6  A    between atoms: C_11  and  N_12
REMARK    7  A    between atoms: C_14  and  C_21
REMARK    8  A    between atoms: C_26  and  C_33
REMARK                            x       y       z     vdW  Elec       q    Type
REMARK                         _______ _______ _______ _____ _____    ______ ____
ROOT
ATOM      1  N   UNL     1      -5.160  -6.655   0.173  0.00  0.00    -0.343 N 
ATOM      2  C   UNL     1      -5.879  -7.110   1.218  0.00  0.00    +0.095 A 
ATOM      3  C   UNL     1      -6.874  -7.954   0.763  0.00  0.00    +0.001 A 
ATOM      4  C   UNL     1      -6.730  -8.004  -0.706  0.00  0.00    +0.007 A 
ATOM      5  C   UNL     1      -5.646  -7.167  -1.014  0.00  0.00    +0.050 A 
ATOM      6  C   UNL     1      -5.266  -7.006  -2.342  0.00  0.00    +0.026 A 
ATOM      7  C   UNL     1      -5.955  -7.662  -3.339  0.00  0.00    +0.002 A 
ATOM      8  C   UNL     1      -7.029  -8.484  -3.033  0.00  0.00    +0.001 A 
ATOM      9  C   UNL     1      -7.415  -8.663  -1.722  0.00  0.00    +0.010 A 
ENDROOT
BRANCH   3  10
ATOM     10  C   UNL     1      -7.835  -8.633   1.546  0.00  0.00    +0.026 C 
ATOM     11  C   UNL     1      -7.463  -9.222   2.740  0.00  0.00    +0.079 C 
ATOM     12  C   UNL     1      -8.466  -9.801   3.675  0.00  0.00    +0.136 C 
ATOM     13  N   UNL     1      -9.574 -10.369   3.276  0.00  0.00    -0.284 NA
ATOM     14  N   UNL     1      -8.104  -9.677   5.035  0.00  0.00    -0.233 N 
ATOM     15  C   UNL     1      -8.977  -9.705   6.090  0.00  0.00    +0.056 C 
ATOM     16  C   UNL     1      -8.512  -9.634   7.356  0.00  0.00    +0.072 C 
ATOM     17  S   UNL     1      -6.748  -9.512   7.099  0.00  0.00    -0.062 S 
ATOM     18  C   UNL     1      -6.764  -9.523   5.326  0.00  0.00    +0.163 C 
ATOM     19  N   UNL     1      -5.776  -9.391   4.476  0.00  0.00    -0.154 NA
ATOM     20  C   UNL     1      -6.044  -9.316   3.155  0.00  0.00    +0.273 C 
ATOM     21  O   UNL     1      -5.147  -9.321   2.328  0.00  0.00    -0.268 OA
ATOM     22  H   UNL     1      -9.741 -10.495   2.329  0.00  0.00    +0.188 HD
BRANCH  15  23
ATOM     23  C   UNL     1     -10.431  -9.813   5.843  0.00  0.00    -0.003 A 
ATOM     24  C   UNL     1     -11.188 -10.772   6.519  0.00  0.00    +0.010 A 
ATOM     25  C   UNL     1     -12.544 -10.868   6.284  0.00  0.00    +0.001 A 
ATOM     26  C   UNL     1     -13.154 -10.016   5.380  0.00  0.00    +0.000 A 
ATOM     27  C   UNL     1     -12.410  -9.063   4.707  0.00  0.00    +0.001 A 
ATOM     28  C   UNL     1     -11.054  -8.954   4.937  0.00  0.00    +0.010 A 
ENDBRANCH  15  23
ENDBRANCH   3  10
BRANCH   1  29
ATOM     29  C   UNL     1      -4.024  -5.737   0.280  0.00  0.00    +0.163 C 
BRANCH  29  30
ATOM     30  C   UNL     1      -4.508  -4.300   0.075  0.00  0.00    +0.250 C 
BRANCH  30  31
ATOM     31  O   UNL     1      -3.400  -3.404   0.180  0.00  0.00    -0.490 OA
BRANCH  31  36
ATOM     32  C   UNL     1      -2.899   0.195  -0.051  0.00  0.00    +0.124 A 
ATOM     33  C   UNL     1      -4.197   0.619  -0.303  0.00  0.00    +0.046 A 
ATOM     34  C   UNL     1      -5.220  -0.305  -0.392  0.00  0.00    +0.007 A 
ATOM     35  C   UNL     1      -4.955  -1.652  -0.231  0.00  0.00    +0.046 A 
ATOM     36  C   UNL     1      -3.660  -2.080   0.021  0.00  0.00    +0.124 A 
ATOM     37  C   UNL     1      -2.630  -1.155   0.105  0.00  0.00    +0.091 A 
BRANCH  32  39
ATOM     38  C   UNL     1      -2.243   2.479  -0.135  0.00  0.00    +0.277 C 
ATOM     39  O   UNL     1      -1.892   1.104   0.036  0.00  0.00    -0.495 OA
ENDBRANCH  32  39
ENDBRANCH  31  36
ENDBRANCH  30  31
ENDBRANCH  29  30
ENDBRANCH   1  29
TORSDOF 7
