REMARK  Name = ZINC20542487
REMARK  5 active torsions:
REMARK  status: ('A' for Active; 'I' for Inactive)
REMARK    1  A    between atoms: C_1  and  C_2
REMARK    2  A    between atoms: C_7  and  C_11
REMARK    3  A    between atoms: C_11  and  N_12
REMARK    4  A    between atoms: N_15  and  C_18
REMARK    5  A    between atoms: C_24  and  O_26
REMARK                            x       y       z     vdW  Elec       q    Type
REMARK                         _______ _______ _______ _____ _____    ______ ____
ROOT
ATOM      1  N   UNL     1       0.053  -0.003  -0.041  0.00  0.00    -0.294 NA
ATOM      2  C   UNL     1       0.531  -0.516  -1.332  0.00  0.00    +0.100 C 
ATOM      3  C   UNL     1       0.612  -2.043  -1.273  0.00  0.00    +0.100 C 
ATOM      4  N   UNL     1      -0.713  -2.590  -0.951  0.00  0.00    -0.295 NA
ATOM      5  C   UNL     1      -1.191  -2.077   0.341  0.00  0.00    +0.100 C 
ATOM      6  C   UNL     1      -1.273  -0.550   0.281  0.00  0.00    +0.100 C 
ENDROOT
BRANCH   4   7
ATOM      7  C   UNL     1      -0.693  -4.059  -0.959  0.00  0.00    +0.085 C 
ATOM      8  C   UNL     1       0.073  -4.565   0.265  0.00  0.00    +0.021 C 
ATOM      9  C   UNL     1       0.093  -6.095   0.257  0.00  0.00    +0.002 C 
ATOM     10  C   UNL     1      -1.341  -6.625   0.298  0.00  0.00    +0.003 C 
ATOM     11  C   UNL     1      -2.107  -6.118  -0.926  0.00  0.00    +0.033 C 
ATOM     12  C   UNL     1      -2.128  -4.588  -0.917  0.00  0.00    +0.132 C 
BRANCH  12  13
ATOM     13  O   UNL     1      -2.843  -4.115  -2.061  0.00  0.00    -0.390 OA
ATOM     14  H   UNL     1      -3.897  -4.395  -2.204  0.00  0.00    +0.210 HD
ENDBRANCH  12  13
ENDBRANCH   4   7
BRANCH   1  15
ATOM     15  C   UNL     1       0.033   1.466  -0.033  0.00  0.00    +0.139 C 
BRANCH  15  22
ATOM     16  C   UNL     1       6.700   4.096  -1.837  0.00  0.00    +0.045 C 
ATOM     17  C   UNL     1       5.544   3.579  -1.019  0.00  0.00    -0.034 A 
ATOM     18  C   UNL     1       5.674   3.456   0.374  0.00  0.00    +0.008 A 
ATOM     19  C   UNL     1       4.629   2.990   1.109  0.00  0.00    +0.045 A 
ATOM     20  C   UNL     1       3.430   2.636   0.458  0.00  0.00    +0.115 A 
ATOM     21  N   UNL     1       2.276   2.163   0.907  0.00  0.00    -0.342 N 
ATOM     22  C   UNL     1       1.444   1.988  -0.122  0.00  0.00    +0.048 A 
ATOM     23  C   UNL     1       2.080   2.350  -1.258  0.00  0.00    +0.115 A 
ATOM     24  N   UNL     1       3.334   2.767  -0.903  0.00  0.00    -0.308 N 
ATOM     25  C   UNL     1       4.390   3.236  -1.629  0.00  0.00    +0.096 A 
ATOM     26  H   UNL     1       2.137   1.982   1.983  0.00  0.00    +0.167 HD
ENDBRANCH  15  22
ENDBRANCH   1  15
TORSDOF 4
