REMARK  Name = ZINC08302198
REMARK  7 active torsions:
REMARK  status: ('A' for Active; 'I' for Inactive)
REMARK    1  A    between atoms: C_1  and  C_2
REMARK    2  A    between atoms: C_5  and  C_32
REMARK    3  A    between atoms: C_6  and  O_8
REMARK    4  A    between atoms: O_8  and  C_9
REMARK    5  A    between atoms: C_11  and  O_31
REMARK    6  A    between atoms: C_13  and  O_30
REMARK    7  A    between atoms: C_22  and  C_25
REMARK                            x       y       z     vdW  Elec       q    Type
REMARK                         _______ _______ _______ _____ _____    ______ ____
ROOT
ATOM      1  C   UNL     1       2.072   5.858   1.421  0.00  0.00    +0.339 C 
ATOM      2  C   UNL     1       2.857   5.428   0.180  0.00  0.00    +0.214 C 
ATOM      3  C   UNL     1       2.851   3.898   0.069  0.00  0.00    +0.180 C 
ATOM      4  C   UNL     1       1.399   3.421   0.049  0.00  0.00    +0.184 C 
ATOM      5  C   UNL     1       0.707   3.902   1.330  0.00  0.00    +0.179 C 
ATOM      6  O   UNL     1       0.744   5.327   1.369  0.00  0.00    -0.331 OA
ATOM      7  C   UNL     1      -0.733   3.386   1.324  0.00  0.00    +0.197 C 
ATOM      8  O   UNL     1      -0.701   1.961   1.179  0.00  0.00    -0.342 OA
ATOM      9  C   UNL     1      -0.018   1.503   0.010  0.00  0.00    +0.319 C 
ATOM     10  O   UNL     1       1.326   1.996   0.000  0.00  0.00    -0.336 OA
ENDROOT
BRANCH   9  11
ATOM     11  C   UNL     1       0.002  -0.004   0.002  0.00  0.00    +0.161 A 
ATOM     12  C   UNL     1      -1.078  -0.805   0.013  0.00  0.00    +0.050 A 
ATOM     13  C   UNL     1      -0.601  -2.136  -0.003  0.00  0.00    +0.041 A 
ATOM     14  C   UNL     1       0.742  -2.068  -0.015  0.00  0.00    +0.195 A 
ATOM     15  O   UNL     1       1.102  -0.775  -0.012  0.00  0.00    -0.463 OA
ENDBRANCH   9  11
BRANCH   3  16
ATOM     16  O   UNL     1       3.505   3.502  -1.138  0.00  0.00    -0.386 OA
ATOM     17  H   UNL     1       4.431   3.773  -1.191  0.00  0.00    +0.210 HD
ENDBRANCH   3  16
BRANCH   2  18
ATOM     18  O   UNL     1       2.251   5.992  -0.985  0.00  0.00    -0.383 OA
ATOM     19  H   UNL     1       2.223   6.958  -0.985  0.00  0.00    +0.210 HD
ENDBRANCH   2  18
BRANCH   1  20
ATOM     20  O   UNL     1       2.732   5.371   2.591  0.00  0.00    -0.461 OA
BRANCH  20  26
ATOM     21  C   UNL     1      -0.590   7.902   5.117  0.00  0.00    +0.044 C 
ATOM     22  C   UNL     1       0.612   6.994   5.062  0.00  0.00    -0.047 A 
ATOM     23  C   UNL     1       1.203   6.559   6.234  0.00  0.00    +0.004 A 
ATOM     24  C   UNL     1       2.305   5.727   6.187  0.00  0.00    +0.007 A 
ATOM     25  C   UNL     1       2.820   5.327   4.968  0.00  0.00    -0.009 A 
ATOM     26  C   UNL     1       2.228   5.762   3.791  0.00  0.00    +0.127 A 
ATOM     27  C   UNL     1       1.125   6.603   3.841  0.00  0.00    +0.049 A 
ATOM     28  C   UNL     1       4.021   4.419   4.918  0.00  0.00    +0.047 C 
ENDBRANCH  20  26
ENDBRANCH   1  20
TORSDOF 5
