REMARK  Name = ZINC64111091
REMARK  7 active torsions:
REMARK  status: ('A' for Active; 'I' for Inactive)
REMARK    1  A    between atoms: C_1  and  N_2
REMARK    2  A    between atoms: N_2  and  C_3
REMARK    3  A    between atoms: C_3  and  C_4
REMARK    4  A    between atoms: C_4  and  C_5
REMARK    5  A    between atoms: C_16  and  C_18
REMARK    6  A    between atoms: N_20  and  C_23
REMARK    7  A    between atoms: C_23  and  C_24
REMARK                            x       y       z     vdW  Elec       q    Type
REMARK                         _______ _______ _______ _____ _____    ______ ____
ROOT
ATOM      1  C   UNL     1      -0.064   1.461   0.012  0.00  0.00    +0.132 C 
ATOM      2  N   UNL     1      -0.017  -0.003   0.003  0.00  0.00    -0.299 N 
ATOM      3  C   UNL     1      -0.102  -0.673  -1.163  0.00  0.00    +0.268 C 
ATOM      4  O   UNL     1      -0.160  -1.888  -1.164  0.00  0.00    -0.268 OA
ENDROOT
BRANCH   3   5
ATOM      5  C   UNL     1      -0.124   0.067  -2.439  0.00  0.00    +0.167 A 
ATOM      6  C   UNL     1      -0.326  -0.478  -3.675  0.00  0.00    +0.143 A 
ATOM      7  N   UNL     1      -0.271   0.535  -4.563  0.00  0.00    -0.247 N 
ATOM      8  N   UNL     1      -0.030   1.705  -3.829  0.00  0.00    -0.065 NA
ATOM      9  N   UNL     1       0.045   1.393  -2.582  0.00  0.00    -0.125 NA
BRANCH   7  10
ATOM     10  C   UNL     1      -0.432   0.433  -6.016  0.00  0.00    +0.180 C 
BRANCH  10  11
ATOM     11  C   UNL     1      -1.525   1.367  -6.466  0.00  0.00    -0.026 A 
ATOM     12  C   UNL     1      -2.834   0.924  -6.518  0.00  0.00    +0.007 A 
ATOM     13  C   UNL     1      -3.838   1.780  -6.931  0.00  0.00    +0.020 A 
ATOM     14  C   UNL     1      -3.532   3.080  -7.294  0.00  0.00    +0.041 A 
ATOM     15  C   UNL     1      -2.222   3.522  -7.243  0.00  0.00    +0.020 A 
ATOM     16  C   UNL     1      -1.220   2.667  -6.824  0.00  0.00    +0.007 A 
ATOM     17 CL   UNL     1      -4.792   4.155  -7.814  0.00  0.00    -0.084 Cl
ENDBRANCH  10  11
ENDBRANCH   7  10
ENDBRANCH   3   5
BRANCH   2  18
ATOM     18  C   UNL     1       0.122  -0.739   1.262  0.00  0.00    +0.111 C 
BRANCH  18  19
ATOM     19  C   UNL     1      -1.265  -1.042   1.832  0.00  0.00    +0.065 C 
BRANCH  19  20
ATOM     20  C   UNL     1      -1.119  -1.811   3.147  0.00  0.00    +0.175 C 
ATOM     21  N   UNL     1      -0.517  -0.948   4.170  0.00  0.00    -0.363 N 
ATOM     22  C   UNL     1      -1.372  -0.842   5.145  0.00  0.00    +0.060 A 
ATOM     23  C   UNL     1      -1.341  -0.124   6.428  0.00  0.00    +0.030 A 
ATOM     24  C   UNL     1      -2.399  -0.199   7.258  0.00  0.00    +0.040 A 
ATOM     25  C   UNL     1      -3.554  -0.946   6.950  0.00  0.00    +0.125 A 
ATOM     26  C   UNL     1      -3.684  -1.642   5.799  0.00  0.00    +0.065 A 
ATOM     27  C   UNL     1      -2.592  -1.632   4.820  0.00  0.00    +0.063 A 
ATOM     28  N   UNL     1      -2.442  -2.196   3.654  0.00  0.00    -0.363 N 
ATOM     29  F   UNL     1      -4.570  -0.968   7.841  0.00  0.00    -0.205 F 
ATOM     30  H   UNL     1       0.359  -0.533   4.128  0.00  0.00    +0.162 HD
ATOM     31  H   UNL     1      -3.086  -2.766   3.204  0.00  0.00    +0.162 HD
ENDBRANCH  19  20
ENDBRANCH  18  19
ENDBRANCH   2  18
TORSDOF 6
