REMARK  Name = ZINC53381219
REMARK  7 active torsions:
REMARK  status: ('A' for Active; 'I' for Inactive)
REMARK    1  A    between atoms: C_1  and  C_2
REMARK    2  A    between atoms: C_7  and  C_8
REMARK    3  A    between atoms: C_14  and  C_16
REMARK    4  A    between atoms: C_16  and  S_17
REMARK    5  A    between atoms: S_17  and  C_18
REMARK    6  A    between atoms: C_21  and  C_24
REMARK    7  A    between atoms: N_22  and  N_23
REMARK                            x       y       z     vdW  Elec       q    Type
REMARK                         _______ _______ _______ _____ _____    ______ ____
ROOT
ATOM      1  C   UNL     1       0.174   0.156   2.409  0.00  0.00    +0.080 A 
ATOM      2  C   UNL     1       0.390  -0.459   3.611  0.00  0.00    +0.076 A 
ATOM      3  S   UNL     1       0.389   0.952   4.710  0.00  0.00    -0.060 S 
ATOM      4  C   UNL     1       0.103   2.204   3.466  0.00  0.00    +0.165 A 
ATOM      5  N   UNL     1       0.041   1.474   2.368  0.00  0.00    -0.225 NA
ATOM      6  N   UNL     1      -0.017   3.580   3.615  0.00  0.00    -0.264 N 
ATOM      7  C   UNL     1       0.084   4.137   4.838  0.00  0.00    +0.229 C 
ATOM      8  O   UNL     1       0.280   3.437   5.809  0.00  0.00    -0.275 OA
ATOM      9  H   UNL     1      -0.173   4.140   2.838  0.00  0.00    +0.157 HD
ENDROOT
BRANCH   1  16
ATOM     10  C   UNL     1      -1.987   0.622   0.542  0.00  0.00    +0.044 C 
ATOM     11  C   UNL     1      -0.942  -0.426   0.257  0.00  0.00    -0.041 A 
ATOM     12  C   UNL     1      -1.007  -1.169  -0.904  0.00  0.00    +0.004 A 
ATOM     13  C   UNL     1      -0.050  -2.132  -1.167  0.00  0.00    +0.000 A 
ATOM     14  C   UNL     1       0.979  -2.356  -0.269  0.00  0.00    +0.001 A 
ATOM     15  C   UNL     1       1.054  -1.619   0.895  0.00  0.00    +0.010 A 
ATOM     16  C   UNL     1       0.095  -0.643   1.163  0.00  0.00    +0.004 A 
ENDBRANCH   1  16
BRANCH   7  17
ATOM     17  C   UNL     1      -0.046   5.629   4.999  0.00  0.00    +0.173 C 
BRANCH  17  18
ATOM     18  S   UNL     1       0.134   6.066   6.750  0.00  0.00    -0.075 S 
BRANCH  18  19
ATOM     19  C   UNL     1      -0.040   7.819   6.772  0.00  0.00    +0.209 A 
ATOM     20  N   UNL     1      -0.258   8.595   5.736  0.00  0.00    -0.121 NA
ATOM     21  N   UNL     1      -0.331   9.821   6.116  0.00  0.00    -0.132 NA
ATOM     22  C   UNL     1      -0.166   9.900   7.406  0.00  0.00    +0.148 A 
ATOM     23  N   UNL     1       0.019   8.627   7.872  0.00  0.00    -0.228 N 
ATOM     24  C   UNL     1      -0.182  11.160   8.233  0.00  0.00    +0.090 C 
BRANCH  23  25
ATOM     25  N   UNL     1       0.225   8.245   9.167  0.00  0.00    -0.295 N 
ATOM     26  H   UNL     1       1.208   8.238   9.390  0.00  0.00    +0.163 HD
ATOM     27  H   UNL     1      -0.287   8.836   9.804  0.00  0.00    +0.163 HD
ENDBRANCH  23  25
ENDBRANCH  18  19
ENDBRANCH  17  18
ENDBRANCH   7  17
TORSDOF 5
