REMARK  Name = ZINC07456457
REMARK  6 active torsions:
REMARK  status: ('A' for Active; 'I' for Inactive)
REMARK    1  A    between atoms: C_1  and  C_2
REMARK    2  A    between atoms: C_10  and  C_11
REMARK    3  A    between atoms: C_11  and  O_13
REMARK    4  A    between atoms: O_13  and  C_14
REMARK    5  A    between atoms: C_14  and  C_15
REMARK    6  A    between atoms: N_17  and  C_18
REMARK                            x       y       z     vdW  Elec       q    Type
REMARK                         _______ _______ _______ _____ _____    ______ ____
ROOT
ATOM      1  O   UNL     1      -3.424  -2.491  -0.307  0.00  0.00    -0.450 OA
ENDROOT
BRANCH   1   2
ATOM      2  C   UNL     1      -4.483  -3.319  -0.415  0.00  0.00    +0.376 C 
ATOM      3  O   UNL     1      -5.611  -2.866  -0.421  0.00  0.00    -0.241 OA
BRANCH   2  13
ATOM      4  C   UNL     1      -6.745  -5.439  -0.662  0.00  0.00    +0.048 C 
ATOM      5  C   UNL     1      -5.261  -5.696  -0.633  0.00  0.00    +0.010 A 
ATOM      6  C   UNL     1      -4.591  -6.992  -0.719  0.00  0.00    +0.025 A 
ATOM      7  C   UNL     1      -5.035  -8.311  -0.844  0.00  0.00    +0.032 A 
ATOM      8  C   UNL     1      -4.125  -9.331  -0.893  0.00  0.00    +0.042 A 
ATOM      9  C   UNL     1      -2.764  -9.063  -0.818  0.00  0.00    +0.023 A 
ATOM     10  C   UNL     1      -2.306  -7.769  -0.695  0.00  0.00    +0.048 A 
ATOM     11  C   UNL     1      -3.213  -6.716  -0.644  0.00  0.00    +0.136 A 
ATOM     12  O   UNL     1      -3.071  -5.381  -0.529  0.00  0.00    -0.448 OA
ATOM     13  C   UNL     1      -4.273  -4.768  -0.525  0.00  0.00    +0.216 A 
ATOM     14 CL   UNL     1      -4.674 -10.970  -1.047  0.00  0.00    -0.084 Cl
ENDBRANCH   2  13
ENDBRANCH   1   2
BRANCH   1  15
ATOM     15  C   UNL     1      -3.707  -1.071  -0.202  0.00  0.00    +0.328 C 
BRANCH  15  16
ATOM     16  C   UNL     1      -2.412  -0.308  -0.090  0.00  0.00    +0.255 C 
ATOM     17  O   UNL     1      -1.355  -0.903  -0.098  0.00  0.00    -0.272 OA
ATOM     18  N   UNL     1      -2.428   1.035   0.019  0.00  0.00    -0.283 N 
ATOM     19  H   UNL     1      -3.273   1.505   0.103  0.00  0.00    +0.155 HD
BRANCH  18  20
ATOM     20  C   UNL     1      -1.225   1.753   0.012  0.00  0.00    +0.037 A 
ATOM     21  C   UNL     1      -0.152   1.303  -0.747  0.00  0.00    +0.027 A 
ATOM     22  C   UNL     1       1.033   2.013  -0.760  0.00  0.00    +0.051 A 
ATOM     23  C   UNL     1       1.156   3.173  -0.012  0.00  0.00    +0.166 A 
ATOM     24  C   UNL     1       0.084   3.624   0.754  0.00  0.00    +0.168 A 
ATOM     25  C   UNL     1      -1.103   2.912   0.767  0.00  0.00    +0.072 A 
ATOM     26  O   UNL     1       0.455   4.774   1.389  0.00  0.00    -0.453 OA
ATOM     27  C   UNL     1       1.621   5.243   0.687  0.00  0.00    +0.466 C 
ATOM     28  O   UNL     1       2.199   4.042   0.144  0.00  0.00    -0.453 OA
ENDBRANCH  18  20
ENDBRANCH  15  16
ENDBRANCH   1  15
TORSDOF 5
