REMARK  Name = ZINC01025541
REMARK  5 active torsions:
REMARK  status: ('A' for Active; 'I' for Inactive)
REMARK    1  A    between atoms: C_1  and  C_2
REMARK    2  A    between atoms: C_3  and  N_13
REMARK    3  A    between atoms: C_4  and  C_7
REMARK    4  A    between atoms: N_16  and  C_17
REMARK    5  A    between atoms: C_17  and  C_18
REMARK                            x       y       z     vdW  Elec       q    Type
REMARK                         _______ _______ _______ _____ _____    ______ ____
ROOT
ATOM      1  N   UNL     1       1.616   9.783   0.859  0.00  0.00    -0.265 N 
ATOM      2  C   UNL     1       0.430   9.156   0.731  0.00  0.00    +0.304 C 
ATOM      3  O   UNL     1      -0.586   9.804   0.564  0.00  0.00    -0.253 OA
ATOM      4  N   UNL     1       0.369   7.811   0.787  0.00  0.00    -0.296 N 
ATOM      5  H   UNL     1       2.422   9.268   1.020  0.00  0.00    +0.157 HD
ATOM      6  H   UNL     1       1.179   7.294   0.920  0.00  0.00    +0.150 HD
ENDROOT
BRANCH   1   9
ATOM      7  C   UNL     1       0.144  11.593  -1.309  0.00  0.00    +0.071 C 
ATOM      8  C   UNL     1       1.049  12.023  -0.184  0.00  0.00    +0.102 A 
ATOM      9  C   UNL     1       1.685  11.182   0.760  0.00  0.00    +0.105 A 
ATOM     10  C   UNL     1       2.389  12.054   1.553  0.00  0.00    +0.189 A 
ATOM     11  O   UNL     1       2.140  13.285   1.065  0.00  0.00    -0.352 OA
ATOM     12  N   UNL     1       1.398  13.243   0.112  0.00  0.00    -0.081 NA
BRANCH  10  13
ATOM     13  C   UNL     1       3.245  11.712   2.707  0.00  0.00    +0.022 A 
ATOM     14  C   UNL     1       3.347  10.387   3.136  0.00  0.00    +0.012 A 
ATOM     15  C   UNL     1       4.153  10.074   4.211  0.00  0.00    +0.001 A 
ATOM     16  C   UNL     1       4.850  11.071   4.871  0.00  0.00    +0.000 A 
ATOM     17  C   UNL     1       4.749  12.386   4.454  0.00  0.00    +0.001 A 
ATOM     18  C   UNL     1       3.951  12.713   3.377  0.00  0.00    +0.012 A 
ENDBRANCH  10  13
ENDBRANCH   1   9
BRANCH   4  19
ATOM     19  C   UNL     1      -0.920   7.129   0.648  0.00  0.00    +0.153 C 
BRANCH  19  20
ATOM     20  C   UNL     1      -0.711   5.617   0.749  0.00  0.00    +0.228 C 
ATOM     21  C   UNL     1      -2.058   4.897   0.604  0.00  0.00    +0.275 C 
ATOM     22  O   UNL     1      -1.825   3.487   0.688  0.00  0.00    -0.485 OA
ATOM     23  C   UNL     1      -0.791   2.993  -0.046  0.00  0.00    +0.162 A 
ATOM     24  C   UNL     1      -0.729   1.632  -0.306  0.00  0.00    +0.049 A 
ATOM     25  C   UNL     1       0.319   1.115  -1.043  0.00  0.00    +0.004 A 
ATOM     26  C   UNL     1       1.303   1.953  -1.532  0.00  0.00    +0.004 A 
ATOM     27  C   UNL     1       1.244   3.311  -1.283  0.00  0.00    +0.049 A 
ATOM     28  C   UNL     1       0.197   3.836  -0.540  0.00  0.00    +0.163 A 
ATOM     29  O   UNL     1       0.149   5.177  -0.308  0.00  0.00    -0.480 OA
ENDBRANCH  19  20
ENDBRANCH   4  19
TORSDOF 4
