REMARK  Name = ZINC66898823
REMARK  7 active torsions:
REMARK  status: ('A' for Active; 'I' for Inactive)
REMARK    1  A    between atoms: C_3  and  C_11
REMARK    2  A    between atoms: N_16  and  C_17
REMARK    3  A    between atoms: C_17  and  C_18
REMARK    4  A    between atoms: C_18  and  C_20
REMARK    5  A    between atoms: C_18  and  O_31
REMARK    6  A    between atoms: C_20  and  O_21
REMARK    7  A    between atoms: O_21  and  C_22
REMARK                            x       y       z     vdW  Elec       q    Type
REMARK                         _______ _______ _______ _____ _____    ______ ____
ROOT
ATOM      1  C   UNL     1       3.650   2.228   0.056  0.00  0.00    -0.034 C 
ATOM      2  C   UNL     1       4.170   2.498   1.484  0.00  0.00    -0.012 C 
ATOM      3  C   UNL     1       4.767   3.926   1.374  0.00  0.00    -0.020 C 
ATOM      4  C   UNL     1       3.788   4.600   0.381  0.00  0.00    -0.078 C 
ATOM      5  N   UNL     1       3.444   3.536  -0.592  0.00  0.00    +0.386 N 
ATOM      6  H   UNL     1       4.039   3.610  -1.404  0.00  0.00    -0.081 HD
ENDROOT
BRANCH   1   9
ATOM      7  C   UNL     1       0.332   0.913   1.290  0.00  0.00    +0.004 A 
ATOM      8  C   UNL     1       1.530   1.601   1.229  0.00  0.00    +0.006 A 
ATOM      9  C   UNL     1       2.345   1.476   0.120  0.00  0.00    -0.016 A 
ATOM     10  C   UNL     1       1.964   0.660  -0.935  0.00  0.00    +0.164 A 
ATOM     11  C   UNL     1       0.761  -0.033  -0.873  0.00  0.00    +0.162 A 
ATOM     12  C   UNL     1      -0.053   0.098   0.242  0.00  0.00    +0.049 A 
ATOM     13  O   UNL     1       0.372  -0.845  -1.893  0.00  0.00    -0.485 OA
ATOM     14  C   UNL     1       1.032  -0.661  -3.150  0.00  0.00    +0.270 C 
ATOM     15  C   UNL     1       2.541  -0.563  -2.890  0.00  0.00    +0.270 C 
ATOM     16  O   UNL     1       2.776   0.551  -2.022  0.00  0.00    -0.485 OA
ENDBRANCH   1   9
BRANCH   5  17
ATOM     17  C   UNL     1       2.038   3.671  -0.998  0.00  0.00    -0.043 C 
BRANCH  17  18
ATOM     18  C   UNL     1       1.862   4.957  -1.808  0.00  0.00    +0.135 C 
BRANCH  18  19
ATOM     19  O   UNL     1       2.237   6.080  -1.007  0.00  0.00    -0.390 OA
ATOM     20  H   UNL     1       1.715   6.178  -0.199  0.00  0.00    +0.210 HD
ENDBRANCH  18  19
BRANCH  18  21
ATOM     21  C   UNL     1       0.399   5.097  -2.230  0.00  0.00    +0.258 C 
BRANCH  21  22
ATOM     22  O   UNL     1       0.256   6.235  -3.083  0.00  0.00    -0.489 OA
BRANCH  22  23
ATOM     23  C   UNL     1      -0.993   6.503  -3.551  0.00  0.00    +0.124 A 
ATOM     24  C   UNL     1      -2.057   5.691  -3.190  0.00  0.00    +0.049 A 
ATOM     25  C   UNL     1      -3.327   5.962  -3.664  0.00  0.00    +0.053 A 
ATOM     26  C   UNL     1      -3.540   7.045  -4.501  0.00  0.00    +0.166 A 
ATOM     27  C   UNL     1      -2.472   7.862  -4.864  0.00  0.00    +0.170 A 
ATOM     28  C   UNL     1      -1.201   7.592  -4.384  0.00  0.00    +0.095 A 
ATOM     29  O   UNL     1      -2.937   8.849  -5.686  0.00  0.00    -0.452 OA
ATOM     30  C   UNL     1      -4.221   8.390  -6.149  0.00  0.00    +0.466 C 
ATOM     31  O   UNL     1      -4.675   7.521  -5.095  0.00  0.00    -0.453 OA
ENDBRANCH  22  23
ENDBRANCH  21  22
ENDBRANCH  18  21
ENDBRANCH  17  18
ENDBRANCH   5  17
TORSDOF 7
