REMARK  Name = ZINC20810773
REMARK  9 active torsions:
REMARK  status: ('A' for Active; 'I' for Inactive)
REMARK    1  A    between atoms: C_1  and  C_2
REMARK    2  A    between atoms: C_6  and  C_38
REMARK    3  A    between atoms: C_7  and  N_8
REMARK    4  A    between atoms: C_9  and  C_11
REMARK    5  A    between atoms: C_11  and  N_12
REMARK    6  A    between atoms: N_15  and  C_18
REMARK    7  A    between atoms: C_18  and  C_20
REMARK    8  A    between atoms: C_18  and  C_21
REMARK    9  A    between atoms: C_33  and  C_37
REMARK                            x       y       z     vdW  Elec       q    Type
REMARK                         _______ _______ _______ _____ _____    ______ ____
ROOT
ATOM      1  N   UNL     1      -0.685  -0.938   6.083  0.00  0.00    -0.298 NA
ATOM      2  C   UNL     1      -1.974  -1.639   6.000  0.00  0.00    +0.066 C 
ATOM      3  C   UNL     1      -2.049  -2.695   7.106  0.00  0.00    -0.062 C 
ATOM      4  N   UNL     1      -1.909  -2.043   8.415  0.00  0.00    +0.388 N 
ATOM      5  C   UNL     1      -0.607  -1.368   8.491  0.00  0.00    -0.062 C 
ATOM      6  C   UNL     1      -0.520  -0.301   7.397  0.00  0.00    +0.066 C 
ATOM      7  H   UNL     1      -2.647  -1.365   8.534  0.00  0.00    -0.081 HD
ENDROOT
BRANCH   4   8
ATOM      8  C   UNL     1      -1.999  -3.054   9.477  0.00  0.00    -0.004 C 
ATOM      9  C   UNL     1      -0.794  -3.993   9.391  0.00  0.00    -0.005 C 
BRANCH   8  10
ATOM     10  C   UNL     1      -2.009  -2.371  10.821  0.00  0.00    +0.097 A 
ATOM     11  N   UNL     1      -1.949  -3.122  11.951  0.00  0.00    -0.312 N 
ATOM     12  H   UNL     1      -1.901  -4.088  11.877  0.00  0.00    +0.170 HD
ATOM     13  C   UNL     1      -1.955  -2.553  13.171  0.00  0.00    +0.260 A 
ATOM     14  O   UNL     1      -1.900  -3.241  14.175  0.00  0.00    -0.267 OA
ATOM     15  C   UNL     1      -2.027  -1.125  13.269  0.00  0.00    +0.075 A 
ATOM     16  C   UNL     1      -2.047  -0.297  14.474  0.00  0.00    -0.023 A 
ATOM     17  C   UNL     1      -2.119   1.039  14.297  0.00  0.00    -0.004 A 
ATOM     18  S   UNL     1      -2.163   1.269  12.540  0.00  0.00    -0.073 S 
ATOM     19  C   UNL     1      -2.085  -0.435  12.048  0.00  0.00    +0.116 A 
ATOM     20  N   UNL     1      -2.070  -1.068  10.878  0.00  0.00    -0.228 NA
ATOM     21  C   UNL     1      -2.156   2.095  15.360  0.00  0.00    +0.046 C 
ATOM     22  C   UNL     1      -2.474   1.420  16.702  0.00  0.00    -0.009 C 
ATOM     23  C   UNL     1      -1.569   0.194  16.862  0.00  0.00    +0.008 C 
ATOM     24  C   UNL     1      -1.992  -0.896  15.877  0.00  0.00    +0.037 C 
ATOM     25  C   UNL     1      -2.218   2.404  17.845  0.00  0.00    +0.008 C 
ENDBRANCH   8  10
ENDBRANCH   4   8
BRANCH   1  26
ATOM     26  C   UNL     1      -0.552   0.046   5.000  0.00  0.00    +0.180 C 
BRANCH  26  28
ATOM     27  N   UNL     1      -0.355   0.036   2.535  0.00  0.00    -0.284 N 
ATOM     28  C   UNL     1      -0.480  -0.670   3.676  0.00  0.00    +0.231 C 
ATOM     29  O   UNL     1      -0.535  -1.881   3.638  0.00  0.00    -0.274 OA
ATOM     30  H   UNL     1      -0.363   1.005   2.560  0.00  0.00    +0.155 HD
BRANCH  27  37
ATOM     31  C   UNL     1       1.745  -1.867   2.276  0.00  0.00    +0.045 C 
ATOM     32  C   UNL     1       0.797  -1.567   1.143  0.00  0.00    -0.029 A 
ATOM     33  C   UNL     1       0.930  -2.228  -0.062  0.00  0.00    +0.005 A 
ATOM     34  C   UNL     1       0.062  -1.953  -1.102  0.00  0.00    +0.001 A 
ATOM     35  C   UNL     1      -0.943  -1.017  -0.939  0.00  0.00    +0.005 A 
ATOM     36  C   UNL     1      -1.081  -0.353   0.264  0.00  0.00    -0.029 A 
ATOM     37  C   UNL     1      -0.214  -0.631   1.312  0.00  0.00    +0.039 A 
ATOM     38  C   UNL     1      -2.176   0.667   0.441  0.00  0.00    +0.045 C 
ENDBRANCH  27  37
ENDBRANCH  26  28
ENDBRANCH   1  26
TORSDOF 5
