REMARK  Name = ZINC16622891
REMARK  6 active torsions:
REMARK  status: ('A' for Active; 'I' for Inactive)
REMARK    1  A    between atoms: C_1  and  N_2
REMARK    2  A    between atoms: C_3  and  C_24
REMARK    3  A    between atoms: C_6  and  S_7
REMARK    4  A    between atoms: S_7  and  C_8
REMARK    5  A    between atoms: C_8  and  C_9
REMARK    6  A    between atoms: N_14  and  C_15
REMARK                            x       y       z     vdW  Elec       q    Type
REMARK                         _______ _______ _______ _____ _____    ______ ____
ROOT
ATOM      1  C   UNL     1       6.872  -2.907   4.291  0.00  0.00    +0.231 C 
ATOM      2  O   UNL     1       6.074  -3.805   4.449  0.00  0.00    -0.274 OA
ATOM      3  N   UNL     1       6.523  -1.811   3.589  0.00  0.00    -0.239 N 
ATOM      4  C   UNL     1       5.286  -1.713   3.063  0.00  0.00    +0.310 C 
ATOM      5  O   UNL     1       4.486  -2.614   3.221  0.00  0.00    -0.252 OA
ATOM      6  N   UNL     1       4.937  -0.617   2.361  0.00  0.00    -0.269 N 
ATOM      7  H   UNL     1       7.162  -1.092   3.462  0.00  0.00    +0.159 HD
ATOM      8  H   UNL     1       5.597   0.068   2.171  0.00  0.00    +0.156 HD
ENDROOT
BRANCH   6   9
ATOM      9  C   UNL     1       3.620  -0.466   1.906  0.00  0.00    +0.038 A 
ATOM     10  C   UNL     1       2.576  -1.076   2.588  0.00  0.00    +0.027 A 
ATOM     11  C   UNL     1       1.277  -0.928   2.140  0.00  0.00    +0.051 A 
ATOM     12  C   UNL     1       1.013  -0.172   1.010  0.00  0.00    +0.166 A 
ATOM     13  C   UNL     1       2.059   0.441   0.323  0.00  0.00    +0.168 A 
ATOM     14  C   UNL     1       3.360   0.292   0.773  0.00  0.00    +0.073 A 
ATOM     15  O   UNL     1       1.542   1.120  -0.742  0.00  0.00    -0.453 OA
ATOM     16  C   UNL     1       0.135   1.254  -0.468  0.00  0.00    +0.466 C 
ATOM     17  O   UNL     1      -0.159   0.123   0.373  0.00  0.00    -0.453 OA
ENDBRANCH   6   9
BRANCH   1  18
ATOM     18  C   UNL     1       8.256  -3.016   4.879  0.00  0.00    +0.173 C 
BRANCH  18  19
ATOM     19  S   UNL     1       8.416  -4.591   5.756  0.00  0.00    -0.077 S 
BRANCH  19  25
ATOM     20  C   UNL     1      10.259  -6.674   7.543  0.00  0.00    +0.153 C 
ATOM     21  N   UNL     1      10.758  -5.382   7.065  0.00  0.00    -0.305 N 
ATOM     22  C   UNL     1      12.009  -4.847   7.269  0.00  0.00    +0.165 A 
ATOM     23  N   UNL     1      12.030  -3.678   6.671  0.00  0.00    -0.128 NA
ATOM     24  N   UNL     1      10.896  -3.451   6.112  0.00  0.00    -0.122 NA
ATOM     25  C   UNL     1      10.078  -4.457   6.325  0.00  0.00    +0.192 A 
BRANCH  22  26
ATOM     26  C   UNL     1      13.120  -5.471   8.018  0.00  0.00    +0.019 A 
ATOM     27  C   UNL     1      14.188  -4.692   8.465  0.00  0.00    +0.013 A 
ATOM     28  C   UNL     1      15.219  -5.279   9.169  0.00  0.00    +0.021 A 
ATOM     29  C   UNL     1      15.201  -6.640   9.423  0.00  0.00    +0.041 A 
ATOM     30  C   UNL     1      14.147  -7.419   8.977  0.00  0.00    +0.021 A 
ATOM     31  C   UNL     1      13.107  -6.843   8.277  0.00  0.00    +0.013 A 
ATOM     32 CL   UNL     1      16.506  -7.372  10.303  0.00  0.00    -0.084 Cl
ENDBRANCH  22  26
ENDBRANCH  19  25
ENDBRANCH  18  19
ENDBRANCH   1  18
TORSDOF 5
