REMARK  Name = ZINC08594208
REMARK  5 active torsions:
REMARK  status: ('A' for Active; 'I' for Inactive)
REMARK    1  A    between atoms: C_1  and  N_2
REMARK    2  A    between atoms: N_7  and  C_10
REMARK    3  A    between atoms: C_11  and  C_17
REMARK    4  A    between atoms: C_14  and  O_16
REMARK    5  A    between atoms: C_21  and  O_23
REMARK                            x       y       z     vdW  Elec       q    Type
REMARK                         _______ _______ _______ _____ _____    ______ ____
ROOT
ATOM      1  C   UNL     1      -0.018   1.461   0.010  0.00  0.00    +0.155 C 
ATOM      2  N   UNL     1       0.002  -0.004   0.002  0.00  0.00    -0.281 N 
ATOM      3  C   UNL     1      -1.184  -0.708   0.004  0.00  0.00    +0.150 A 
ATOM      4  C   UNL     1      -1.143  -2.087   0.022  0.00  0.00    +0.068 A 
ATOM      5  C   UNL     1       0.100  -2.737   0.014  0.00  0.00    +0.262 A 
ATOM      6  O   UNL     1       0.157  -3.955   0.024  0.00  0.00    -0.267 OA
ATOM      7  N   UNL     1       1.230  -2.003  -0.005  0.00  0.00    -0.264 N 
ATOM      8  C   UNL     1       1.178  -0.659  -0.013  0.00  0.00    +0.333 A 
ATOM      9  O   UNL     1       2.214  -0.022  -0.028  0.00  0.00    -0.246 OA
ATOM     10  C   UNL     1       2.531  -2.676  -0.025  0.00  0.00    +0.157 C 
ATOM     11  C   UNL     1      -2.424  -2.877   0.066  0.00  0.00    +0.067 C 
ATOM     12  C   UNL     1      -3.507  -2.110  -0.697  0.00  0.00    +0.108 C 
ATOM     13  C   UNL     1      -3.480  -0.661  -0.287  0.00  0.00    +0.190 C 
ATOM     14  N   UNL     1      -2.365  -0.062   0.006  0.00  0.00    -0.199 NA
ENDROOT
BRANCH  11  15
ATOM     15  C   UNL     1      -2.851  -3.068   1.498  0.00  0.00    -0.036 A 
ATOM     16  C   UNL     1      -3.117  -1.967   2.292  0.00  0.00    +0.004 A 
ATOM     17  C   UNL     1      -3.510  -2.138   3.606  0.00  0.00    +0.004 A 
ATOM     18  C   UNL     1      -3.636  -3.410   4.131  0.00  0.00    +0.045 A 
ATOM     19  C   UNL     1      -3.370  -4.516   3.337  0.00  0.00    +0.117 A 
ATOM     20  C   UNL     1      -2.982  -4.341   2.016  0.00  0.00    +0.049 A 
BRANCH  19  21
ATOM     21  O   UNL     1      -3.494  -5.768   3.850  0.00  0.00    -0.507 OA
ATOM     22  H   UNL     1      -4.375  -6.151   3.744  0.00  0.00    +0.292 HD
ENDBRANCH  19  21
ENDBRANCH  11  15
BRANCH  13  23
ATOM     23  O   UNL     1      -4.633   0.027  -0.224  0.00  0.00    -0.495 OA
ATOM     24  H   UNL     1      -4.527   0.949   0.047  0.00  0.00    +0.293 HD
ENDBRANCH  13  23
TORSDOF 3
