REMARK  Name = ZINC32072569
REMARK  7 active torsions:
REMARK  status: ('A' for Active; 'I' for Inactive)
REMARK    1  A    between atoms: C_1  and  C_2
REMARK    2  A    between atoms: C_3  and  C_26
REMARK    3  A    between atoms: C_11  and  C_13
REMARK    4  A    between atoms: N_15  and  C_16
REMARK    5  A    between atoms: C_21  and  C_22
REMARK    6  A    between atoms: C_29  and  O_32
REMARK    7  A    between atoms: O_32  and  C_33
REMARK                            x       y       z     vdW  Elec       q    Type
REMARK                         _______ _______ _______ _____ _____    ______ ____
ROOT
ATOM      1  C   UNL     1       0.606   1.552   0.400  0.00  0.00    +0.049 C 
ATOM      2  C   UNL     1       0.481   0.062   0.210  0.00  0.00    +0.017 A 
ATOM      3  C   UNL     1       0.454  -0.620  -1.025  0.00  0.00    +0.098 A 
ATOM      4  N   UNL     1       0.335  -1.911  -0.780  0.00  0.00    -0.169 NA
ATOM      5  N   UNL     1       0.284  -2.089   0.599  0.00  0.00    -0.237 N 
ATOM      6  C   UNL     1       0.380  -0.859   1.188  0.00  0.00    +0.128 A 
ATOM      7  N   UNL     1       0.362  -0.702   2.575  0.00  0.00    -0.270 N 
ATOM      8  C   UNL     1       0.538  -1.809   3.331  0.00  0.00    +0.221 C 
ATOM      9  O   UNL     1       0.420  -1.727   4.536  0.00  0.00    -0.275 OA
ATOM     10  C   UNL     1       0.876  -3.137   2.716  0.00  0.00    +0.132 C 
ATOM     11  C   UNL     1       0.158  -3.326   1.373  0.00  0.00    +0.204 C 
ATOM     12  H   UNL     1       0.229   0.169   2.981  0.00  0.00    +0.156 HD
ENDROOT
BRANCH   3  13
ATOM     13  C   UNL     1       0.544   0.007  -2.367  0.00  0.00    +0.003 A 
ATOM     14  C   UNL     1       1.448   1.042  -2.595  0.00  0.00    +0.013 A 
ATOM     15  C   UNL     1       1.530   1.622  -3.844  0.00  0.00    +0.046 A 
ATOM     16  C   UNL     1       0.712   1.176  -4.873  0.00  0.00    +0.120 A 
ATOM     17  C   UNL     1      -0.190   0.145  -4.649  0.00  0.00    +0.046 A 
ATOM     18  C   UNL     1      -0.272  -0.443  -3.404  0.00  0.00    +0.013 A 
BRANCH  16  19
ATOM     19  O   UNL     1       0.795   1.750  -6.102  0.00  0.00    -0.495 OA
ATOM     20  C   UNL     1      -0.076   1.242  -7.115  0.00  0.00    +0.277 C 
ENDBRANCH  16  19
ENDBRANCH   3  13
BRANCH  11  21
ATOM     21  C   UNL     1      -1.299  -3.634   1.602  0.00  0.00    +0.242 C 
ATOM     22  O   UNL     1      -2.152  -2.892   1.161  0.00  0.00    -0.273 OA
ATOM     23  N   UNL     1      -1.655  -4.733   2.296  0.00  0.00    -0.283 N 
ATOM     24  H   UNL     1      -0.974  -5.289   2.707  0.00  0.00    +0.155 HD
BRANCH  23  25
ATOM     25  C   UNL     1      -3.006  -5.073   2.424  0.00  0.00    +0.045 A 
ATOM     26  C   UNL     1      -3.970  -4.075   2.509  0.00  0.00    +0.024 A 
ATOM     27  C   UNL     1      -5.302  -4.414   2.635  0.00  0.00    +0.002 A 
ATOM     28  C   UNL     1      -5.679  -5.744   2.677  0.00  0.00    +0.001 A 
ATOM     29  C   UNL     1      -4.722  -6.739   2.592  0.00  0.00    +0.014 A 
ATOM     30  C   UNL     1      -3.388  -6.407   2.459  0.00  0.00    +0.076 A 
BRANCH  30  31
ATOM     31  C   UNL     1      -2.347  -7.492   2.360  0.00  0.00    +0.419 C 
ATOM     32  F   UNL     1      -2.970  -8.743   2.418  0.00  0.00    -0.166 F 
ATOM     33  F   UNL     1      -1.660  -7.370   1.147  0.00  0.00    -0.166 F 
ATOM     34  F   UNL     1      -1.444  -7.371   3.421  0.00  0.00    -0.166 F 
ENDBRANCH  30  31
ENDBRANCH  23  25
ENDBRANCH  11  21
TORSDOF 5
