REMARK  Name = ZINC29454455
REMARK  5 active torsions:
REMARK  status: ('A' for Active; 'I' for Inactive)
REMARK    1  A    between atoms: C_9  and  C_11
REMARK    2  A    between atoms: C_11  and  C_12
REMARK    3  A    between atoms: C_12  and  N_13
REMARK    4  A    between atoms: C_14  and  C_16
REMARK    5  A    between atoms: C_20  and  C_21
REMARK                            x       y       z     vdW  Elec       q    Type
REMARK                         _______ _______ _______ _____ _____    ______ ____
ROOT
ATOM      1  N   UNL     1       6.782  -0.251  -0.513  0.00  0.00    -0.311 N 
ATOM      2  C   UNL     1       5.930   0.756  -0.788  0.00  0.00    +0.248 C 
ATOM      3  O   UNL     1       6.322   1.737  -1.391  0.00  0.00    -0.270 OA
ATOM      4  H   UNL     1       6.427  -1.138   0.033  0.00  0.00    +0.149 HD
ENDROOT
BRANCH   2   5
ATOM      5  C   UNL     1       4.522   0.669  -0.359  0.00  0.00    +0.086 A 
ATOM      6  C   UNL     1       3.925  -0.402   0.345  0.00  0.00    +0.148 A 
ATOM      7  N   UNL     1       2.670  -0.104   0.545  0.00  0.00    -0.172 NA
ATOM      8  N   UNL     1       2.405   1.147  -0.021  0.00  0.00    -0.208 N 
ATOM      9  C   UNL     1       3.541   1.617  -0.569  0.00  0.00    +0.161 A 
ATOM     10  C   UNL     1       1.168   1.803  -0.014  0.00  0.00    +0.177 A 
ATOM     11  C   UNL     1      -0.014   1.065   0.026  0.00  0.00    +0.055 A 
ATOM     12  C   UNL     1      -1.213   1.758   0.026  0.00  0.00    +0.077 A 
ATOM     13  C   UNL     1      -1.163   3.150  -0.005  0.00  0.00    +0.289 A 
ATOM     14  N   UNL     1       0.007   3.766  -0.042  0.00  0.00    -0.105 NA
ATOM     15  N   UNL     1       1.118   3.124  -0.047  0.00  0.00    -0.126 NA
ATOM     16  O   UNL     1      -2.312   3.872  -0.002  0.00  0.00    -0.264 OA
BRANCH   9  17
ATOM     17  C   UNL     1       3.711   2.934  -1.281  0.00  0.00    +0.435 C 
ATOM     18  F   UNL     1       4.194   3.891  -0.382  0.00  0.00    -0.164 F 
ATOM     19  F   UNL     1       4.620   2.782  -2.334  0.00  0.00    -0.164 F 
ATOM     20  F   UNL     1       2.476   3.353  -1.788  0.00  0.00    -0.164 F 
ENDBRANCH   9  17
ENDBRANCH   2   5
BRANCH   1  21
ATOM     21  C   UNL     1       8.181  -0.164  -0.939  0.00  0.00    +0.109 C 
BRANCH  21  22
ATOM     22  C   UNL     1       8.926  -1.427  -0.505  0.00  0.00    +0.056 C 
BRANCH  22  31
ATOM     23  C   UNL     1      12.082  -1.833  -2.543  0.00  0.00    +0.001 A 
ATOM     24  C   UNL     1      13.023  -1.194  -1.793  0.00  0.00    +0.010 A 
ATOM     25  C   UNL     1      12.654  -0.599  -0.576  0.00  0.00    +0.001 A 
ATOM     26  C   UNL     1      13.596   0.070   0.228  0.00  0.00    +0.011 A 
ATOM     27  C   UNL     1      13.161   0.640   1.390  0.00  0.00    +0.020 A 
ATOM     28  C   UNL     1      11.821   0.534   1.758  0.00  0.00    +0.111 A 
ATOM     29  N   UNL     1      10.948  -0.095   1.010  0.00  0.00    -0.255 NA
ATOM     30  C   UNL     1      11.306  -0.665  -0.145  0.00  0.00    +0.074 A 
ATOM     31  C   UNL     1      10.365  -1.338  -0.944  0.00  0.00    -0.020 A 
ATOM     32  C   UNL     1      10.757  -1.903  -2.118  0.00  0.00    +0.006 A 
ENDBRANCH  22  31
ENDBRANCH  21  22
ENDBRANCH   1  21
TORSDOF 5
