REMARK  Name = ZINC57054397
REMARK  9 active torsions:
REMARK  status: ('A' for Active; 'I' for Inactive)
REMARK    1  A    between atoms: C_7  and  C_37
REMARK    2  A    between atoms: C_11  and  S_15
REMARK    3  A    between atoms: C_12  and  C_13
REMARK    4  A    between atoms: S_15  and  C_16
REMARK    5  A    between atoms: C_16  and  C_17
REMARK    6  A    between atoms: C_17  and  S_18
REMARK    7  A    between atoms: S_18  and  C_19
REMARK    8  A    between atoms: C_20  and  C_34
REMARK    9  A    between atoms: C_27  and  C_32
REMARK                            x       y       z     vdW  Elec       q    Type
REMARK                         _______ _______ _______ _____ _____    ______ ____
ROOT
ATOM      1  C   UNL     1       3.219  -4.551  -3.322  0.00  0.00    +0.086 C 
ENDROOT
BRANCH   1   2
ATOM      2  S   UNL     1       3.059  -2.831  -3.874  0.00  0.00    -0.111 S 
BRANCH   2  12
ATOM      3  C   UNL     1      -0.019   1.526   0.010  0.00  0.00    +0.000 C 
ATOM      4  C   UNL     1       1.417   2.056  -0.000  0.00  0.00    +0.001 C 
ATOM      5  C   UNL     1       2.132   1.564  -1.260  0.00  0.00    +0.010 C 
ATOM      6  C   UNL     1       2.150   0.036  -1.273  0.00  0.00    +0.016 C 
ATOM      7  C   UNL     1       0.717  -0.497  -1.258  0.00  0.00    +0.010 C 
ATOM      8  C   UNL     1       0.002  -0.004   0.002  0.00  0.00    +0.001 C 
ATOM      9  C   UNL     1       2.902  -0.481  -0.042  0.00  0.00    +0.187 C 
ATOM     10  C   UNL     1       3.034  -1.978  -0.142  0.00  0.00    +0.254 C 
ATOM     11  N   UNL     1       3.076  -2.592  -1.320  0.00  0.00    -0.176 NA
ATOM     12  C   UNL     1       3.003  -1.960  -2.462  0.00  0.00    +0.084 C 
ATOM     13  C   UNL     1       2.870  -0.461  -2.530  0.00  0.00    +0.152 C 
ATOM     14  O   UNL     1       3.103  -2.638   0.876  0.00  0.00    -0.272 OA
BRANCH  13  15
ATOM     15  C   UNL     1       2.091  -0.090  -3.722  0.00  0.00    +0.073 C 
ATOM     16  N   UNL     1       1.490   0.197  -4.643  0.00  0.00    -0.196 NA
ENDBRANCH  13  15
BRANCH   9  17
ATOM     17  C   UNL     1       4.240   0.132   0.010  0.00  0.00    +0.076 C 
ATOM     18  N   UNL     1       5.272   0.604   0.050  0.00  0.00    -0.196 NA
ENDBRANCH   9  17
ENDBRANCH   2  12
ENDBRANCH   1   2
BRANCH   1  19
ATOM     19  C   UNL     1       3.282  -5.474  -4.541  0.00  0.00    +0.086 C 
BRANCH  19  20
ATOM     20  S   UNL     1       3.443  -7.195  -3.989  0.00  0.00    -0.111 S 
BRANCH  20  21
ATOM     21  C   UNL     1       3.498  -8.066  -5.401  0.00  0.00    +0.084 C 
ATOM     22  C   UNL     1       3.626  -9.565  -5.334  0.00  0.00    +0.152 C 
ATOM     23  C   UNL     1       2.966 -10.181  -6.571  0.00  0.00    +0.016 C 
ATOM     24  C   UNL     1       1.463  -9.902  -6.543  0.00  0.00    +0.010 C 
ATOM     25  C   UNL     1       0.850 -10.532  -5.290  0.00  0.00    +0.001 C 
ATOM     26  C   UNL     1       1.092 -12.042  -5.308  0.00  0.00    +0.000 C 
ATOM     27  C   UNL     1       2.597 -12.319  -5.333  0.00  0.00    +0.001 C 
ATOM     28  C   UNL     1       3.210 -11.690  -6.586  0.00  0.00    +0.010 C 
ATOM     29  C   UNL     1       3.583  -9.547  -7.821  0.00  0.00    +0.187 C 
ATOM     30  C   UNL     1       3.460  -8.049  -7.722  0.00  0.00    +0.254 C 
ATOM     31  N   UNL     1       3.425  -7.434  -6.544  0.00  0.00    -0.176 NA
ATOM     32  O   UNL     1       3.386  -7.389  -8.739  0.00  0.00    -0.272 OA
BRANCH  29  33
ATOM     33  C   UNL     1       2.871 -10.023  -9.018  0.00  0.00    +0.076 C 
ATOM     34  N   UNL     1       2.321 -10.391  -9.942  0.00  0.00    -0.196 NA
ENDBRANCH  29  33
BRANCH  22  35
ATOM     35  C   UNL     1       5.050  -9.937  -5.300  0.00  0.00    +0.073 C 
ATOM     36  N   UNL     1       6.148 -10.223  -5.273  0.00  0.00    -0.196 NA
ENDBRANCH  22  35
ENDBRANCH  20  21
ENDBRANCH  19  20
ENDBRANCH   1  19
TORSDOF 9
