REMARK  Name = ZINC64678554
REMARK  7 active torsions:
REMARK  status: ('A' for Active; 'I' for Inactive)
REMARK    1  A    between atoms: C_1  and  C_2
REMARK    2  A    between atoms: C_7  and  C_12
REMARK    3  A    between atoms: C_15  and  C_18
REMARK    4  A    between atoms: C_18  and  C_19
REMARK    5  A    between atoms: C_19  and  N_20
REMARK    6  A    between atoms: N_20  and  C_21
REMARK    7  A    between atoms: C_22  and  C_24
REMARK                            x       y       z     vdW  Elec       q    Type
REMARK                         _______ _______ _______ _____ _____    ______ ____
ROOT
ATOM      1  C   UNL     1       1.501  -5.158   1.924  0.00  0.00    +0.318 C 
ATOM      2  N   UNL     1       1.536  -6.409   1.149  0.00  0.00    -0.291 N 
ATOM      3  C   UNL     1       1.505  -7.441   2.057  0.00  0.00    +0.139 C 
ATOM      4  N   UNL     1       1.457  -7.005   3.263  0.00  0.00    -0.072 NA
ATOM      5  O   UNL     1       1.451  -5.588   3.294  0.00  0.00    -0.367 OA
ATOM      6  H   UNL     1       1.574  -6.489   0.183  0.00  0.00    +0.151 HD
ENDROOT
BRANCH   1  13
ATOM      7  C   UNL     1       0.317   1.581   0.181  0.00  0.00    +0.044 C 
ATOM      8  C   UNL     1       0.294   0.075   0.155  0.00  0.00    -0.050 A 
ATOM      9  C   UNL     1       0.262  -0.587  -1.080  0.00  0.00    +0.005 A 
ATOM     10  C   UNL     1       0.240  -1.932  -1.187  0.00  0.00    +0.026 A 
ATOM     11  C   UNL     1       0.249  -2.746  -0.020  0.00  0.00    +0.043 A 
ATOM     12  N   UNL     1       0.231  -4.047   0.137  0.00  0.00    -0.373 N 
ATOM     13  C   UNL     1       0.253  -4.346   1.573  0.00  0.00    +0.165 C 
ATOM     14  C   UNL     1       0.286  -3.006   2.274  0.00  0.00    +0.012 C 
ATOM     15  C   UNL     1       0.283  -2.071   1.297  0.00  0.00    -0.004 A 
ATOM     16  C   UNL     1       0.311  -0.604   1.325  0.00  0.00    +0.013 A 
ATOM     17  H   UNL     1       0.208  -4.703  -0.578  0.00  0.00    +0.160 HD
ENDBRANCH   1  13
BRANCH   3  18
ATOM     18  C   UNL     1       1.526  -8.900   1.683  0.00  0.00    +0.094 C 
BRANCH  18  19
ATOM     19  C   UNL     1       1.480  -9.753   2.952  0.00  0.00    +0.115 C 
BRANCH  19  20
ATOM     20  N   UNL     1       1.500 -11.172   2.588  0.00  0.00    -0.300 N 
ATOM     21  C   UNL     1       2.777 -11.877   2.454  0.00  0.00    +0.132 C 
ATOM     22  C   UNL     1       0.343 -11.829   2.376  0.00  0.00    +0.248 C 
ATOM     23  O   UNL     1      -0.711 -11.223   2.382  0.00  0.00    -0.270 OA
BRANCH  22  24
ATOM     24  C   UNL     1       0.354 -13.288   2.136  0.00  0.00    +0.056 A 
ATOM     25  C   UNL     1       1.282 -14.109   2.788  0.00  0.00    +0.031 A 
ATOM     26  C   UNL     1       1.251 -15.469   2.529  0.00  0.00    +0.037 A 
ATOM     27  C   UNL     1       0.313 -15.968   1.642  0.00  0.00    +0.126 A 
ATOM     28  N   UNL     1      -0.549 -15.169   1.042  0.00  0.00    -0.261 NA
ATOM     29  C   UNL     1      -0.563 -13.870   1.260  0.00  0.00    +0.123 A 
ATOM     30 BR   UNL     1       2.477 -16.632   3.377  0.00  0.00    -0.049 Br
ENDBRANCH  22  24
ENDBRANCH  19  20
ENDBRANCH  18  19
ENDBRANCH   3  18
TORSDOF 5
