REMARK  Name = ZINC35924574
REMARK  10 active torsions:
REMARK  status: ('A' for Active; 'I' for Inactive)
REMARK    1  A    between atoms: C_1  and  C_2
REMARK    2  A    between atoms: C_4  and  C_13
REMARK    3  A    between atoms: N_6  and  C_7
REMARK    4  A    between atoms: C_14  and  C_36
REMARK    5  A    between atoms: C_17  and  O_24
REMARK    6  A    between atoms: O_24  and  C_25
REMARK    7  A    between atoms: C_25  and  C_26
REMARK    8  A    between atoms: C_26  and  C_28
REMARK    9  A    between atoms: C_32  and  O_34
REMARK   10  A    between atoms: O_34  and  C_35
REMARK                            x       y       z     vdW  Elec       q    Type
REMARK                         _______ _______ _______ _____ _____    ______ ____
ROOT
ATOM      1  C   UNL     1       0.041  -3.331  -1.536  0.00  0.00    +0.088 A 
ATOM      2  C   UNL     1       0.054  -4.612  -0.989  0.00  0.00    +0.055 A 
ATOM      3  N   UNL     1       0.065  -5.668  -1.783  0.00  0.00    -0.230 NA
ATOM      4  C   UNL     1       0.062  -5.543  -3.109  0.00  0.00    +0.183 A 
ATOM      5  C   UNL     1       0.073  -6.702  -3.914  0.00  0.00    +0.164 A 
ATOM      6  C   UNL     1       0.071  -6.574  -5.275  0.00  0.00    +0.051 A 
ATOM      7  C   UNL     1       0.057  -5.295  -5.848  0.00  0.00    +0.022 A 
ATOM      8  C   UNL     1       0.047  -4.197  -5.060  0.00  0.00    +0.096 A 
ATOM      9  N   UNL     1       0.049  -4.311  -3.702  0.00  0.00    -0.265 N 
ATOM     10  C   UNL     1       0.033  -3.196  -2.941  0.00  0.00    +0.268 A 
ATOM     11  O   UNL     1       0.015  -2.091  -3.458  0.00  0.00    -0.267 OA
ATOM     12  C   UNL     1       0.058  -4.794   0.507  0.00  0.00    +0.066 C 
ENDROOT
BRANCH   1  16
ATOM     13  C   UNL     1      -0.018   1.503   0.010  0.00  0.00    +0.066 C 
ATOM     14  C   UNL     1       0.002  -0.004   0.002  0.00  0.00    +0.042 A 
ATOM     15  C   UNL     1       0.008  -0.793  -1.094  0.00  0.00    +0.053 A 
ATOM     16  C   UNL     1       0.028  -2.135  -0.662  0.00  0.00    +0.100 A 
ATOM     17  N   UNL     1       0.034  -2.139   0.655  0.00  0.00    -0.166 NA
ATOM     18  N   UNL     1       0.023  -0.810   1.096  0.00  0.00    -0.236 N 
BRANCH  18  19
ATOM     19  C   UNL     1       0.030  -0.385   2.431  0.00  0.00    +0.066 A 
ATOM     20  C   UNL     1       0.703   0.776   2.788  0.00  0.00    +0.028 A 
ATOM     21  C   UNL     1       0.708   1.193   4.105  0.00  0.00    +0.002 A 
ATOM     22  C   UNL     1       0.044   0.454   5.067  0.00  0.00    +0.000 A 
ATOM     23  C   UNL     1      -0.626  -0.703   4.715  0.00  0.00    +0.002 A 
ATOM     24  C   UNL     1      -0.640  -1.121   3.399  0.00  0.00    +0.028 A 
ENDBRANCH  18  19
ENDBRANCH   1  16
BRANCH   5  25
ATOM     25  O   UNL     1       0.087  -7.935  -3.341  0.00  0.00    -0.480 OA
BRANCH  25  26
ATOM     26  C   UNL     1       0.098  -9.060  -4.223  0.00  0.00    +0.308 C 
BRANCH  26  27
ATOM     27  C   UNL     1       0.112 -10.331  -3.414  0.00  0.00    +0.200 C 
ATOM     28  O   UNL     1       0.113 -10.279  -2.203  0.00  0.00    -0.288 OA
BRANCH  27  29
ATOM     29  C   UNL     1       0.125 -11.636  -4.095  0.00  0.00    +0.024 A 
ATOM     30  C   UNL     1       0.130 -11.699  -5.492  0.00  0.00    +0.012 A 
ATOM     31  C   UNL     1       0.143 -12.924  -6.125  0.00  0.00    +0.004 A 
ATOM     32  C   UNL     1       0.150 -14.092  -5.384  0.00  0.00    +0.045 A 
ATOM     33  C   UNL     1       0.145 -14.040  -3.996  0.00  0.00    +0.121 A 
ATOM     34  C   UNL     1       0.138 -12.817  -3.348  0.00  0.00    +0.057 A 
BRANCH  33  35
ATOM     35  O   UNL     1       0.152 -15.192  -3.274  0.00  0.00    -0.495 OA
ATOM     36  C   UNL     1       0.164 -16.418  -4.008  0.00  0.00    +0.277 C 
ENDBRANCH  33  35
ENDBRANCH  27  29
ENDBRANCH  26  27
ENDBRANCH  25  26
ENDBRANCH   5  25
TORSDOF 7
