REMARK  Name = ZINC55406512
REMARK  8 active torsions:
REMARK  status: ('A' for Active; 'I' for Inactive)
REMARK    1  A    between atoms: C_1  and  C_2
REMARK    2  A    between atoms: N_7  and  C_9
REMARK    3  A    between atoms: C_9  and  C_10
REMARK    4  A    between atoms: C_10  and  C_12
REMARK    5  A    between atoms: C_10  and  N_13
REMARK    6  A    between atoms: C_14  and  C_16
REMARK    7  A    between atoms: C_16  and  N_17
REMARK    8  A    between atoms: C_18  and  C_20
REMARK                            x       y       z     vdW  Elec       q    Type
REMARK                         _______ _______ _______ _____ _____    ______ ____
ROOT
ATOM      1  N   UNL     1      -0.082  -4.397   2.396  0.00  0.00    -0.313 N 
ATOM      2  C   UNL     1      -0.388  -5.622   1.923  0.00  0.00    +0.230 C 
ATOM      3  O   UNL     1       0.497  -6.386   1.600  0.00  0.00    -0.274 OA
ATOM      4  H   UNL     1      -0.789  -3.786   2.655  0.00  0.00    +0.149 HD
ENDROOT
BRANCH   1   5
ATOM      5  C   UNL     1       1.320  -3.989   2.519  0.00  0.00    +0.053 C 
ATOM      6  C   UNL     1       1.879  -4.484   3.854  0.00  0.00    +0.026 C 
BRANCH   5   7
ATOM      7  C   UNL     1       1.413  -2.463   2.461  0.00  0.00    -0.057 C 
BRANCH   7  13
ATOM      8  C   UNL     1      -0.019   1.526   0.010  0.00  0.00    +0.005 C 
ATOM      9  C   UNL     1       0.002  -0.004   0.002  0.00  0.00    -0.031 C 
ATOM     10  C   UNL     1       0.721  -0.499  -1.257  0.00  0.00    -0.001 C 
ATOM     11  C   UNL     1       0.805  -2.027  -1.217  0.00  0.00    -0.018 C 
ATOM     12  C   UNL     1       1.518  -2.460   0.066  0.00  0.00    -0.079 C 
ATOM     13  N   UNL     1       0.768  -1.979   1.233  0.00  0.00    +0.381 N 
ATOM     14  C   UNL     1       0.744  -0.512   1.240  0.00  0.00    -0.076 C 
ATOM     15  H   UNL     1      -0.177  -2.330   1.192  0.00  0.00    -0.082 HD
ENDBRANCH   7  13
ENDBRANCH   5   7
ENDBRANCH   1   5
BRANCH   2  16
ATOM     16  C   UNL     1      -1.830  -6.042   1.797  0.00  0.00    +0.200 C 
BRANCH  16  17
ATOM     17  N   UNL     1      -1.897  -7.404   1.263  0.00  0.00    -0.303 N 
ATOM     18  C   UNL     1      -3.093  -7.992   1.064  0.00  0.00    +0.246 C 
ATOM     19  O   UNL     1      -4.117  -7.392   1.327  0.00  0.00    -0.270 OA
ATOM     20  H   UNL     1      -1.080  -7.884   1.053  0.00  0.00    +0.150 HD
BRANCH  18  21
ATOM     21  C   UNL     1      -3.160  -9.366   0.526  0.00  0.00    +0.055 A 
ATOM     22  C   UNL     1      -1.986 -10.061   0.229  0.00  0.00    +0.016 A 
ATOM     23  C   UNL     1      -2.055 -11.343  -0.273  0.00  0.00    +0.021 A 
ATOM     24  C   UNL     1      -3.286 -11.944  -0.483  0.00  0.00    +0.042 A 
ATOM     25  C   UNL     1      -4.454 -11.261  -0.191  0.00  0.00    +0.040 A 
ATOM     26  C   UNL     1      -4.399  -9.979   0.319  0.00  0.00    +0.054 A 
ATOM     27 CL   UNL     1      -5.864  -9.127   0.692  0.00  0.00    -0.083 Cl
ATOM     28 CL   UNL     1      -3.363 -13.558  -1.116  0.00  0.00    -0.083 Cl
ENDBRANCH  18  21
ENDBRANCH  16  17
ENDBRANCH   2  16
TORSDOF 6
