REMARK  Name = ZINC18195289
REMARK  7 active torsions:
REMARK  status: ('A' for Active; 'I' for Inactive)
REMARK    1  A    between atoms: C_1  and  C_2
REMARK    2  A    between atoms: C_2  and  O_3
REMARK    3  A    between atoms: O_3  and  C_4
REMARK    4  A    between atoms: C_4  and  C_6
REMARK    5  A    between atoms: C_9  and  C_12
REMARK    6  A    between atoms: C_15  and  C_17
REMARK    7  A    between atoms: C_28  and  N_54
REMARK                            x       y       z     vdW  Elec       q    Type
REMARK                         _______ _______ _______ _____ _____    ______ ____
ROOT
ATOM      1  C   UNL     1      -1.276   1.724   0.017  0.00  0.00    +0.227 C 
ATOM      2  N   UNL     1      -0.011   0.966   0.007  0.00  0.00    -0.314 N 
ATOM      3  C   UNL     1       1.145   1.702   0.000  0.00  0.00    +0.080 A 
ATOM      4  C   UNL     1       1.204   3.021  -0.477  0.00  0.00    +0.068 A 
ATOM      5  C   UNL     1       2.506   3.661  -0.404  0.00  0.00    -0.027 A 
ATOM      6  C   UNL     1       3.504   2.904   0.108  0.00  0.00    -0.021 A 
ATOM      7  S   UNL     1       2.744   1.352   0.502  0.00  0.00    -0.080 S 
ATOM      8  C   UNL     1       4.930   3.316   0.289  0.00  0.00    -0.036 C 
ATOM      9  C   UNL     1       4.112   5.536  -0.229  0.00  0.00    -0.074 C 
ATOM     10  C   UNL     1       2.789   5.089  -0.857  0.00  0.00    +0.018 C 
ATOM     11  C   UNL     1       6.494   5.097  -0.231  0.00  0.00    -0.096 C 
ATOM     12  C   UNL     1      -0.047   3.612  -1.005  0.00  0.00    +0.248 C 
ATOM     13  O   UNL     1      -0.046   4.678  -1.593  0.00  0.00    -0.270 OA
ATOM     14  N   UNL     1      -1.189   2.919  -0.808  0.00  0.00    -0.287 N 
ATOM     15  H   UNL     1       0.002  -0.004   0.002  0.00  0.00    +0.149 HD
ATOM     16  H   UNL     1      -1.996   3.233  -1.244  0.00  0.00    +0.151 HD
ATOM     17  N   UNL     1       5.158   4.535  -0.524  0.00  0.00    +0.381 N 
ATOM     18  H   UNL     1       5.111   4.287  -1.519  0.00  0.00    -0.082 HD
ENDROOT
BRANCH   1  22
ATOM     19  C   UNL     1      -1.704   2.107   3.625  0.00  0.00    +0.135 A 
ATOM     20  C   UNL     1      -2.350   3.229   3.204  0.00  0.00    +0.050 A 
ATOM     21  C   UNL     1      -2.276   3.236   1.798  0.00  0.00    +0.049 A 
ATOM     22  C   UNL     1      -1.596   2.130   1.433  0.00  0.00    +0.144 A 
ATOM     23  O   UNL     1      -1.258   1.448   2.538  0.00  0.00    -0.456 OA
BRANCH  19  27
ATOM     24  C   UNL     1      -1.199   0.891   7.655  0.00  0.00    +0.059 A 
ATOM     25  C   UNL     1      -0.677   0.110   6.618  0.00  0.00    +0.015 A 
ATOM     26  C   UNL     1      -0.840   0.502   5.320  0.00  0.00    +0.012 A 
ATOM     27  C   UNL     1      -1.528   1.684   5.027  0.00  0.00    +0.017 A 
ATOM     28  C   UNL     1      -2.046   2.467   6.064  0.00  0.00    +0.012 A 
ATOM     29  C   UNL     1      -1.887   2.073   7.362  0.00  0.00    +0.015 A 
BRANCH  24  30
ATOM     30  C   UNL     1      -1.024   0.468   9.056  0.00  0.00    +0.339 C 
ATOM     31  O   UNL     1      -0.426  -0.559   9.310  0.00  0.00    -0.245 OA
BRANCH  30  32
ATOM     32  O   UNL     1      -1.526   1.220  10.055  0.00  0.00    -0.461 OA
BRANCH  32  34
ATOM     33  C   UNL     1      -1.953   1.719  12.400  0.00  0.00    +0.048 C 
ATOM     34  C   UNL     1      -1.316   0.742  11.410  0.00  0.00    +0.229 C 
ENDBRANCH  32  34
ENDBRANCH  30  32
ENDBRANCH  24  30
ENDBRANCH  19  27
ENDBRANCH   1  22
TORSDOF 5
