REMARK  Name = ZINC40328581
REMARK  5 active torsions:
REMARK  status: ('A' for Active; 'I' for Inactive)
REMARK    1  A    between atoms: C_1  and  N_2
REMARK    2  A    between atoms: N_2  and  C_3
REMARK    3  A    between atoms: C_3  and  C_4
REMARK    4  A    between atoms: C_12  and  C_14
REMARK    5  A    between atoms: C_16  and  N_20
REMARK                            x       y       z     vdW  Elec       q    Type
REMARK                         _______ _______ _______ _____ _____    ______ ____
ROOT
ATOM      1  C   UNL     1      -0.169   1.459   0.014  0.00  0.00    +0.132 C 
ATOM      2  N   UNL     1      -0.058  -0.002   0.004  0.00  0.00    -0.295 N 
ATOM      3  C   UNL     1      -0.102  -0.673  -1.163  0.00  0.00    +0.263 C 
ATOM      4  O   UNL     1      -0.123  -1.890  -1.165  0.00  0.00    -0.268 OA
ENDROOT
BRANCH   3   5
ATOM      5  C   UNL     1      -0.124   0.063  -2.432  0.00  0.00    +0.104 A 
ATOM      6  C   UNL     1      -0.328  -0.479  -3.684  0.00  0.00    +0.055 A 
ATOM      7  C   UNL     1      -0.270   0.576  -4.605  0.00  0.00    +0.043 A 
ATOM      8  C   UNL     1      -0.036   1.720  -3.910  0.00  0.00    +0.106 A 
ATOM      9  N   UNL     1       0.049   1.419  -2.587  0.00  0.00    -0.355 N 
ATOM     10  H   UNL     1       0.207   2.054  -1.871  0.00  0.00    +0.166 HD
BRANCH   7  11
ATOM     11  N   UNL     1      -0.426   0.469  -5.999  0.00  0.00    -0.357 N 
ATOM     12  H   UNL     1      -0.591  -0.397  -6.404  0.00  0.00    +0.142 HD
ATOM     13  H   UNL     1      -0.369   1.262  -6.556  0.00  0.00    +0.142 HD
ENDBRANCH   7  11
ENDBRANCH   3   5
BRANCH   2  14
ATOM     14  C   UNL     1       0.101  -0.733   1.264  0.00  0.00    +0.143 C 
BRANCH  14  15
ATOM     15  C   UNL     1      -1.257  -1.092   1.811  0.00  0.00    -0.027 A 
ATOM     16  C   UNL     1      -1.911  -0.220   2.661  0.00  0.00    +0.025 A 
ATOM     17  C   UNL     1      -3.158  -0.549   3.164  0.00  0.00    +0.043 A 
ATOM     18  C   UNL     1      -3.749  -1.750   2.816  0.00  0.00    +0.040 A 
ATOM     19  C   UNL     1      -3.093  -2.622   1.965  0.00  0.00    +0.043 A 
ATOM     20  C   UNL     1      -1.849  -2.289   1.458  0.00  0.00    +0.025 A 
ATOM     21 CL   UNL     1      -3.833  -4.130   1.528  0.00  0.00    -0.083 Cl
ATOM     22 CL   UNL     1      -3.979   0.545   4.232  0.00  0.00    -0.083 Cl
ENDBRANCH  14  15
ENDBRANCH   2  14
TORSDOF 4
