REMARK  Name = ZINC12696593
REMARK  13 active torsions:
REMARK  status: ('A' for Active; 'I' for Inactive)
REMARK    1  A    between atoms: C_1  and  N_2
REMARK    2  A    between atoms: N_5  and  S_8
REMARK    3  A    between atoms: S_8  and  C_11
REMARK    4  A    between atoms: C_14  and  N_20
REMARK    5  A    between atoms: C_15  and  N_17
REMARK    6  A    between atoms: N_20  and  C_21
REMARK    7  A    between atoms: C_21  and  C_22
REMARK    8  A    between atoms: C_22  and  C_24
REMARK    9  A    between atoms: C_22  and  N_32
REMARK   10  A    between atoms: C_27  and  O_30
REMARK   11  A    between atoms: O_30  and  C_31
REMARK   12  A    between atoms: N_32  and  C_33
REMARK   13  A    between atoms: N_32  and  C_34
REMARK                            x       y       z     vdW  Elec       q    Type
REMARK                         _______ _______ _______ _____ _____    ______ ____
ROOT
ATOM      1  C   UNL     1      -0.399  -5.347   0.408  0.00  0.00    +0.108 A 
ATOM      2  C   UNL     1      -1.151  -6.150  -0.430  0.00  0.00    +0.030 A 
ATOM      3  C   UNL     1      -0.659  -7.373  -0.841  0.00  0.00    +0.027 A 
ATOM      4  C   UNL     1       0.592  -7.797  -0.411  0.00  0.00    +0.058 A 
ATOM      5  C   UNL     1       1.344  -6.988   0.431  0.00  0.00    +0.149 A 
ATOM      6  C   UNL     1       0.849  -5.763   0.834  0.00  0.00    +0.063 A 
ENDROOT
BRANCH   1   7
ATOM      7  S   UNL     1      -1.030  -3.787   0.929  0.00  0.00    +0.061 S 
ATOM      8  O   UNL     1      -0.366  -3.465   2.143  0.00  0.00    -0.153 OA
ATOM      9  O   UNL     1      -2.446  -3.869   0.834  0.00  0.00    -0.153 OA
BRANCH   7  14
ATOM     10  C   UNL     1      -0.367   1.254  -1.681  0.00  0.00    +0.105 C 
ATOM     11  N   UNL     1      -0.245  -0.189  -1.431  0.00  0.00    -0.303 NA
ATOM     12  C   UNL     1      -1.562  -0.839  -1.444  0.00  0.00    +0.101 C 
ATOM     13  C   UNL     1      -1.379  -2.358  -1.361  0.00  0.00    +0.125 C 
ATOM     14  N   UNL     1      -0.546  -2.665  -0.188  0.00  0.00    -0.174 NA
ATOM     15  C   UNL     1       0.730  -1.949  -0.034  0.00  0.00    +0.125 C 
ATOM     16  C   UNL     1       0.463  -0.446  -0.170  0.00  0.00    +0.101 C 
ENDBRANCH   7  14
ENDBRANCH   1   7
BRANCH   5  17
ATOM     17  N   UNL     1       2.678  -7.436   0.892  0.00  0.00    +0.058 N 
ATOM     18  O   UNL     1       3.038  -7.199   2.022  0.00  0.00    -0.126 OA
ATOM     19  O   UNL     1       3.407  -8.038   0.139  0.00  0.00    -0.126 OA
ENDBRANCH   5  17
BRANCH   4  20
ATOM     20  N   UNL     1       1.093  -9.034  -0.824  0.00  0.00    -0.343 N 
ATOM     21  H   UNL     1       1.992  -9.300  -0.578  0.00  0.00    +0.146 HD
BRANCH  20  22
ATOM     22  C   UNL     1       0.259  -9.930  -1.629  0.00  0.00    +0.091 C 
BRANCH  22  23
ATOM     23  C   UNL     1       0.993 -11.255  -1.843  0.00  0.00    -0.021 C 
BRANCH  23  24
ATOM     24  C   UNL     1       2.252 -11.010  -2.634  0.00  0.00    -0.059 A 
ATOM     25  C   UNL     1       2.186 -10.857  -4.007  0.00  0.00    +0.005 A 
ATOM     26  C   UNL     1       3.339 -10.633  -4.734  0.00  0.00    +0.046 A 
ATOM     27  C   UNL     1       4.564 -10.560  -4.086  0.00  0.00    +0.120 A 
ATOM     28  C   UNL     1       4.627 -10.713  -2.708  0.00  0.00    +0.046 A 
ATOM     29  C   UNL     1       3.470 -10.932  -1.985  0.00  0.00    +0.005 A 
BRANCH  27  30
ATOM     30  O   UNL     1       5.699 -10.340  -4.799  0.00  0.00    -0.495 OA
ATOM     31  C   UNL     1       6.924 -10.277  -4.066  0.00  0.00    +0.277 C 
ENDBRANCH  27  30
ENDBRANCH  23  24
BRANCH  23  32
ATOM     32  N   UNL     1       0.124 -12.182  -2.581  0.00  0.00    +0.382 N 
ATOM     33  C   UNL     1       0.799 -13.479  -2.720  0.00  0.00    -0.096 C 
ATOM     34  C   UNL     1      -1.135 -12.362  -1.846  0.00  0.00    -0.096 C 
ATOM     35  H   UNL     1      -0.071 -11.805  -3.496  0.00  0.00    -0.082 HD
ENDBRANCH  23  32
ENDBRANCH  22  23
ENDBRANCH  20  22
ENDBRANCH   4  20
TORSDOF 9
