REMARK  Name = ZINC50700901
REMARK  3 active torsions:
REMARK  status: ('A' for Active; 'I' for Inactive)
REMARK    1  A    between atoms: C_2  and  C_9
REMARK    2  A    between atoms: C_6  and  N_7
REMARK    3  A    between atoms: N_11  and  C_12
REMARK                            x       y       z     vdW  Elec       q    Type
REMARK                         _______ _______ _______ _____ _____    ______ ____
ROOT
ATOM      1  C   UNL     1       1.942   3.471  -1.026  0.00  0.00    +0.249 C 
ATOM      2  O   UNL     1       1.466   4.018  -2.002  0.00  0.00    -0.270 OA
ATOM      3  N   UNL     1       2.405   4.210   0.001  0.00  0.00    -0.278 N 
ATOM      4  H   UNL     1       2.718   3.775   0.809  0.00  0.00    +0.155 HD
ENDROOT
BRANCH   3   5
ATOM      5  C   UNL     1       2.434   5.607  -0.098  0.00  0.00    +0.084 A 
ATOM      6  C   UNL     1       1.306   6.353   0.230  0.00  0.00    +0.148 A 
ATOM      7  C   UNL     1       1.338   7.731   0.132  0.00  0.00    +0.078 A 
ATOM      8  C   UNL     1       2.491   8.370  -0.294  0.00  0.00    +0.127 A 
ATOM      9  C   UNL     1       3.614   7.630  -0.621  0.00  0.00    +0.055 A 
ATOM     10  C   UNL     1       3.590   6.251  -0.518  0.00  0.00    +0.045 A 
ATOM     11 BR   UNL     1       5.128   5.242  -0.957  0.00  0.00    -0.048 Br
ATOM     12  F   UNL     1       2.520   9.717  -0.390  0.00  0.00    -0.205 F 
ATOM     13  F   UNL     1       0.181   5.730   0.644  0.00  0.00    -0.203 F 
ENDBRANCH   3   5
BRANCH   1  15
ATOM     14  C   UNL     1       1.539   1.210  -2.021  0.00  0.00    +0.056 A 
ATOM     15  C   UNL     1       2.013   1.993  -0.967  0.00  0.00    +0.043 A 
ATOM     16  C   UNL     1       2.557   1.345   0.147  0.00  0.00    +0.053 A 
ATOM     17  C   UNL     1       2.606  -0.036   0.165  0.00  0.00    +0.132 A 
ATOM     18  N   UNL     1       2.149  -0.745  -0.849  0.00  0.00    -0.221 NA
ATOM     19  C   UNL     1       1.626  -0.174  -1.923  0.00  0.00    +0.119 A 
ATOM     20 CL   UNL     1       3.280  -0.850   1.543  0.00  0.00    -0.062 Cl
BRANCH  19  21
ATOM     21  N   UNL     1       1.158  -0.968  -2.965  0.00  0.00    -0.343 N 
ATOM     22  H   UNL     1       0.774  -0.555  -3.754  0.00  0.00    +0.144 HD
ATOM     23  H   UNL     1       1.216  -1.934  -2.902  0.00  0.00    +0.144 HD
ENDBRANCH  19  21
ENDBRANCH   1  15
TORSDOF 3
