REMARK  Name = ZINC36796606
REMARK  7 active torsions:
REMARK  status: ('A' for Active; 'I' for Inactive)
REMARK    1  A    between atoms: C_1  and  C_2
REMARK    2  A    between atoms: C_2  and  C_4
REMARK    3  A    between atoms: C_2  and  S_17
REMARK    4  A    between atoms: N_6  and  C_7
REMARK    5  A    between atoms: C_9  and  N_14
REMARK    6  A    between atoms: S_17  and  C_18
REMARK    7  A    between atoms: N_20  and  C_24
REMARK                            x       y       z     vdW  Elec       q    Type
REMARK                         _______ _______ _______ _____ _____    ______ ____
ROOT
ATOM      1  C   UNL     1       0.443   2.018  -0.908  0.00  0.00    +0.029 C 
ATOM      2  C   UNL     1       0.134   0.548  -0.617  0.00  0.00    +0.136 C 
ENDROOT
BRANCH   2   3
ATOM      3  C   UNL     1      -1.346   0.306  -0.767  0.00  0.00    +0.230 C 
ATOM      4  O   UNL     1      -1.778  -0.195  -1.783  0.00  0.00    -0.274 OA
ATOM      5  N   UNL     1      -2.188   0.645   0.229  0.00  0.00    -0.283 N 
ATOM      6  H   UNL     1      -1.838   1.000   1.061  0.00  0.00    +0.155 HD
BRANCH   5   7
ATOM      7  C   UNL     1      -3.569   0.485   0.062  0.00  0.00    +0.054 A 
ATOM      8  C   UNL     1      -4.058  -0.494  -0.792  0.00  0.00    +0.057 A 
ATOM      9  C   UNL     1      -5.421  -0.650  -0.954  0.00  0.00    +0.128 A 
ATOM     10  C   UNL     1      -6.299   0.169  -0.267  0.00  0.00    +0.034 A 
ATOM     11  C   UNL     1      -5.816   1.146   0.584  0.00  0.00    +0.024 A 
ATOM     12  C   UNL     1      -4.453   1.303   0.755  0.00  0.00    +0.062 A 
ATOM     13 CL   UNL     1      -3.848   2.525   1.829  0.00  0.00    -0.082 Cl
BRANCH   9  14
ATOM     14  N   UNL     1      -5.942  -1.694  -1.864  0.00  0.00    +0.056 N 
ATOM     15  O   UNL     1      -5.176  -2.410  -2.465  0.00  0.00    -0.126 OA
ATOM     16  O   UNL     1      -7.135  -1.831  -2.007  0.00  0.00    -0.126 OA
ENDBRANCH   9  14
ENDBRANCH   5   7
ENDBRANCH   2   3
BRANCH   2  17
ATOM     17  S   UNL     1       1.040  -0.504  -1.784  0.00  0.00    -0.085 S 
BRANCH  17  18
ATOM     18  C   UNL     1       2.734  -0.219  -1.389  0.00  0.00    +0.158 A 
ATOM     19  N   UNL     1       3.245   0.558  -0.468  0.00  0.00    -0.151 NA
ATOM     20  N   UNL     1       4.609   0.648  -0.310  0.00  0.00    -0.217 N 
ATOM     21  C   UNL     1       5.408  -0.084  -1.126  0.00  0.00    +0.150 A 
ATOM     22  S   UNL     1       7.117  -0.182  -1.173  0.00  0.00    -0.023 S 
ATOM     23  S   UNL     1       4.196  -0.923  -2.134  0.00  0.00    -0.034 S 
BRANCH  20  24
ATOM     24  C   UNL     1       5.161   1.478   0.672  0.00  0.00    +0.067 A 
ATOM     25  C   UNL     1       6.175   2.369   0.342  0.00  0.00    +0.029 A 
ATOM     26  C   UNL     1       6.717   3.187   1.313  0.00  0.00    +0.022 A 
ATOM     27  C   UNL     1       6.251   3.120   2.615  0.00  0.00    +0.041 A 
ATOM     28  C   UNL     1       5.241   2.234   2.947  0.00  0.00    +0.022 A 
ATOM     29  C   UNL     1       4.691   1.418   1.978  0.00  0.00    +0.029 A 
ATOM     30 CL   UNL     1       6.936   4.150   3.833  0.00  0.00    -0.084 Cl
ENDBRANCH  20  24
ENDBRANCH  17  18
ENDBRANCH   2  17
TORSDOF 6
