REMARK  Name = ZINC66930359
REMARK  6 active torsions:
REMARK  status: ('A' for Active; 'I' for Inactive)
REMARK    1  A    between atoms: C_1  and  C_2
REMARK    2  A    between atoms: C_3  and  N_23
REMARK    3  A    between atoms: C_4  and  C_8
REMARK    4  A    between atoms: N_10  and  C_11
REMARK    5  A    between atoms: C_11  and  C_12
REMARK    6  A    between atoms: C_12  and  O_22
REMARK                            x       y       z     vdW  Elec       q    Type
REMARK                         _______ _______ _______ _____ _____    ______ ____
ROOT
ATOM      1  C   UNL     1      -1.044  -5.164  -3.652  0.00  0.00    +0.267 C 
ATOM      2  O   UNL     1      -0.248  -4.252  -3.768  0.00  0.00    -0.268 OA
ATOM      3  N   UNL     1      -0.968  -5.993  -2.592  0.00  0.00    -0.307 N 
ATOM      4  H   UNL     1      -1.603  -6.720  -2.499  0.00  0.00    +0.149 HD
ENDROOT
BRANCH   1   8
ATOM      5  C   UNL     1      -3.984  -4.665  -7.750  0.00  0.00    +0.067 C 
ATOM      6  C   UNL     1      -3.363  -5.133  -6.459  0.00  0.00    +0.064 A 
ATOM      7  C   UNL     1      -2.298  -4.580  -5.833  0.00  0.00    +0.178 A 
ATOM      8  C   UNL     1      -2.093  -5.363  -4.672  0.00  0.00    +0.177 A 
ATOM      9  N   UNL     1      -3.016  -6.304  -4.675  0.00  0.00    -0.167 NA
ATOM     10  N   UNL     1      -3.769  -6.180  -5.709  0.00  0.00    -0.279 N 
ATOM     11  H   UNL     1      -4.519  -6.757  -5.921  0.00  0.00    +0.189 HD
BRANCH   7  12
ATOM     12  N   UNL     1      -1.513  -3.404  -6.271  0.00  0.00    +0.061 N 
ATOM     13  O   UNL     1      -1.835  -2.295  -5.913  0.00  0.00    -0.126 OA
ATOM     14  O   UNL     1      -0.550  -3.552  -6.986  0.00  0.00    -0.126 OA
ENDBRANCH   7  12
ENDBRANCH   1   8
BRANCH   3  15
ATOM     15  C   UNL     1       0.072  -5.795  -1.580  0.00  0.00    +0.144 C 
BRANCH  15  16
ATOM     16  C   UNL     1       0.022  -6.940  -0.567  0.00  0.00    +0.107 C 
ATOM     17  C   UNL     1       0.192  -8.270  -1.300  0.00  0.00    +0.041 C 
ATOM     18  C   UNL     1       0.357  -9.380  -0.256  0.00  0.00    +0.008 C 
ATOM     19  C   UNL     1       1.718  -9.209   0.417  0.00  0.00    +0.035 C 
ATOM     20  C   UNL     1       1.894  -7.795   0.905  0.00  0.00    -0.041 A 
ATOM     21  C   UNL     1       1.118  -6.752   0.450  0.00  0.00    -0.011 A 
ATOM     22  C   UNL     1       1.336  -5.470   0.936  0.00  0.00    +0.007 A 
ATOM     23  C   UNL     1       2.321  -5.233   1.872  0.00  0.00    +0.000 A 
ATOM     24  C   UNL     1       3.098  -6.280   2.331  0.00  0.00    +0.000 A 
ATOM     25  C   UNL     1       2.884  -7.555   1.849  0.00  0.00    +0.004 A 
BRANCH  16  26
ATOM     26  O   UNL     1      -1.244  -6.927   0.097  0.00  0.00    -0.382 OA
ATOM     27  H   UNL     1      -1.427  -6.109   0.578  0.00  0.00    +0.211 HD
ENDBRANCH  16  26
ENDBRANCH  15  16
ENDBRANCH   3  15
TORSDOF 5
