REMARK  Name = ZINC39353694
REMARK  7 active torsions:
REMARK  status: ('A' for Active; 'I' for Inactive)
REMARK    1  A    between atoms: C_1  and  O_2
REMARK    2  A    between atoms: O_2  and  C_3
REMARK    3  A    between atoms: N_10  and  C_27
REMARK    4  A    between atoms: C_15  and  C_17
REMARK    5  A    between atoms: C_23  and  O_26
REMARK    6  A    between atoms: C_27  and  C_28
REMARK    7  A    between atoms: C_33  and  C_34
REMARK                            x       y       z     vdW  Elec       q    Type
REMARK                         _______ _______ _______ _____ _____    ______ ____
ROOT
ATOM      1  C   UNL     1       0.598  -0.601  -1.047  0.00  0.00    +0.116 C 
ATOM      2  C   UNL     1       1.146   0.150  -2.015  0.00  0.00    +0.109 C 
ATOM      3  C   UNL     1       1.728  -0.485  -3.142  0.00  0.00    +0.243 C 
ATOM      4  O   UNL     1       2.513   0.129  -3.842  0.00  0.00    -0.271 OA
ATOM      5  N   UNL     1       1.427  -1.739  -3.439  0.00  0.00    -0.296 N 
ATOM      6  C   UNL     1       1.765  -2.401  -4.702  0.00  0.00    +0.090 C 
ATOM      7  C   UNL     1       0.992  -1.790  -5.875  0.00  0.00    -0.060 C 
ATOM      8  N   UNL     1      -0.483  -1.854  -5.520  0.00  0.00    +0.381 N 
ATOM      9  C   UNL     1      -0.720  -2.967  -4.638  0.00  0.00    -0.077 C 
ATOM     10  C   UNL     1      -0.735  -2.549  -3.179  0.00  0.00    +0.005 C 
ATOM     11  C   UNL     1       0.624  -2.618  -2.535  0.00  0.00    +0.094 C 
ATOM     12  C   UNL     1       0.656  -2.100  -1.111  0.00  0.00    +0.161 C 
ATOM     13  H   UNL     1      -0.755  -0.998  -5.061  0.00  0.00    -0.082 HD
ENDROOT
BRANCH  12  14
ATOM     14  C   UNL     1      -0.522  -2.666  -0.361  0.00  0.00    +0.228 C 
ATOM     15  O   UNL     1      -1.529  -2.004  -0.225  0.00  0.00    -0.275 OA
ATOM     16  N   UNL     1      -0.457  -3.908   0.159  0.00  0.00    -0.298 N 
ATOM     17  C   UNL     1       0.792  -4.679   0.099  0.00  0.00    +0.108 C 
ATOM     18  C   UNL     1       1.151  -5.145   1.514  0.00  0.00    +0.021 C 
ATOM     19  C   UNL     1      -0.032  -5.910   2.111  0.00  0.00    +0.034 C 
ATOM     20  C   UNL     1      -1.247  -4.983   2.201  0.00  0.00    +0.132 C 
ATOM     21  C   UNL     1      -1.632  -4.513   0.800  0.00  0.00    +0.139 C 
BRANCH  20  22
ATOM     22  O   UNL     1      -2.342  -5.689   2.788  0.00  0.00    -0.390 OA
ATOM     23  H   UNL     1      -2.166  -6.016   3.681  0.00  0.00    +0.210 HD
ENDBRANCH  20  22
ENDBRANCH  12  14
BRANCH   1  25
ATOM     24  C   UNL     1      -0.030   1.427   0.003  0.00  0.00    +0.276 C 
ATOM     25  O   UNL     1      -0.006  -0.002  -0.002  0.00  0.00    -0.498 OA
ENDBRANCH   1  25
BRANCH   8  26
ATOM     26  C   UNL     1      -1.274  -2.025  -6.746  0.00  0.00    -0.063 C 
BRANCH  26  27
ATOM     27  C   UNL     1      -1.123  -0.783  -7.627  0.00  0.00    +0.066 C 
ATOM     28  C   UNL     1      -1.800   0.412  -6.986  0.00  0.00    +0.115 C 
ATOM     29  N   UNL     1      -2.729   0.782  -7.807  0.00  0.00    -0.161 NA
ATOM     30  N   UNL     1      -2.780  -0.014  -8.946  0.00  0.00    -0.153 NA
ATOM     31  C   UNL     1      -1.875  -0.959  -8.932  0.00  0.00    +0.077 C 
BRANCH  31  32
ATOM     32  C   UNL     1      -1.635  -1.979  -9.964  0.00  0.00    -0.001 A 
ATOM     33  C   UNL     1      -0.622  -2.929  -9.791  0.00  0.00    +0.012 A 
ATOM     34  C   UNL     1      -0.403  -3.882 -10.761  0.00  0.00    +0.039 A 
ATOM     35  C   UNL     1      -1.182  -3.901 -11.907  0.00  0.00    +0.123 A 
ATOM     36  C   UNL     1      -2.188  -2.963 -12.085  0.00  0.00    +0.039 A 
ATOM     37  C   UNL     1      -2.421  -2.007 -11.120  0.00  0.00    +0.012 A 
ATOM     38  F   UNL     1      -0.962  -4.838 -12.855  0.00  0.00    -0.205 F 
ENDBRANCH  31  32
ENDBRANCH  26  27
ENDBRANCH   8  26
TORSDOF 6
