REMARK  Name = ZINC23078043
REMARK  7 active torsions:
REMARK  status: ('A' for Active; 'I' for Inactive)
REMARK    1  A    between atoms: C_1  and  C_2
REMARK    2  A    between atoms: C_9  and  C_16
REMARK    3  A    between atoms: C_11  and  O_12
REMARK    4  A    between atoms: C_16  and  S_17
REMARK    5  A    between atoms: S_17  and  C_18
REMARK    6  A    between atoms: C_21  and  C_29
REMARK    7  A    between atoms: C_29  and  N_30
REMARK                            x       y       z     vdW  Elec       q    Type
REMARK                         _______ _______ _______ _____ _____    ______ ____
ROOT
ATOM      1  S   UNL     1       1.302  -7.388   0.938  0.00  0.00    -0.081 S 
ENDROOT
BRANCH   1   2
ATOM      2  C   UNL     1       0.917  -8.233   2.436  0.00  0.00    +0.198 A 
ATOM      3  N   UNL     1      -0.283  -8.464   2.916  0.00  0.00    -0.122 NA
ATOM      4  N   UNL     1      -0.195  -9.108   4.024  0.00  0.00    -0.131 NA
ATOM      5  C   UNL     1       1.056  -9.318   4.324  0.00  0.00    +0.157 A 
ATOM      6  N   UNL     1       1.812  -8.768   3.322  0.00  0.00    -0.257 N 
ATOM      7  C   UNL     1       3.207  -8.755   3.226  0.00  0.00    +0.141 A 
ATOM      8  C   UNL     1       3.868  -7.563   2.958  0.00  0.00    +0.047 A 
ATOM      9  C   UNL     1       5.249  -7.565   2.866  0.00  0.00    +0.005 A 
ATOM     10  C   UNL     1       5.923  -8.765   3.046  0.00  0.00    +0.020 A 
ATOM     11  C   UNL     1       5.202  -9.912   3.309  0.00  0.00    +0.113 A 
ATOM     12  N   UNL     1       3.886  -9.879   3.396  0.00  0.00    -0.237 NA
BRANCH   5  13
ATOM     13  C   UNL     1       1.574 -10.033   5.545  0.00  0.00    +0.184 C 
BRANCH  13  14
ATOM     14  N   UNL     1       1.779  -9.066   6.627  0.00  0.00    -0.294 N 
ATOM     15  C   UNL     1       0.757  -8.700   7.615  0.00  0.00    +0.109 C 
ATOM     16  C   UNL     1       1.252  -7.382   8.250  0.00  0.00    +0.028 C 
ATOM     17  C   UNL     1       2.779  -7.481   8.034  0.00  0.00    +0.097 C 
ATOM     18  C   UNL     1       2.929  -8.405   6.845  0.00  0.00    +0.216 C 
ATOM     19  O   UNL     1       3.938  -8.528   6.184  0.00  0.00    -0.276 OA
ENDBRANCH  13  14
ENDBRANCH   5  13
ENDBRANCH   1   2
BRANCH   1  20
ATOM     20  C   UNL     1      -0.368  -7.003   0.356  0.00  0.00    +0.113 C 
BRANCH  20  29
ATOM     21  C   UNL     1      -0.611   1.544  -2.097  0.00  0.00    +0.109 C 
ATOM     22  C   UNL     1      -0.603   0.037  -2.109  0.00  0.00    +0.214 C 
ATOM     23  O   UNL     1      -1.142  -0.565  -3.013  0.00  0.00    -0.276 OA
ATOM     24  N   UNL     1       0.004  -0.641  -1.115  0.00  0.00    -0.286 N 
ATOM     25  C   UNL     1      -0.068  -2.034  -1.076  0.00  0.00    +0.037 A 
ATOM     26  C   UNL     1      -0.138  -2.690   0.153  0.00  0.00    +0.024 A 
ATOM     27  C   UNL     1      -0.214  -4.051   0.207  0.00  0.00    +0.013 A 
ATOM     28  C   UNL     1      -0.210  -4.795  -0.979  0.00  0.00    +0.022 A 
ATOM     29  C   UNL     1      -0.285  -6.257  -0.951  0.00  0.00    -0.020 A 
ATOM     30  C   UNL     1      -0.278  -6.923  -2.135  0.00  0.00    +0.092 A 
ATOM     31  C   UNL     1      -0.199  -6.203  -3.344  0.00  0.00    +0.285 A 
ATOM     32  O   UNL     1      -0.131  -4.863  -3.363  0.00  0.00    -0.425 OA
ATOM     33  C   UNL     1      -0.134  -4.140  -2.222  0.00  0.00    +0.141 A 
ATOM     34  C   UNL     1      -0.063  -2.756  -2.260  0.00  0.00    +0.070 A 
ATOM     35  H   UNL     1       0.554  -0.097  -0.334  0.00  0.00    +0.155 HD
BRANCH  31  36
ATOM     36  O   UNL     1      -0.194  -6.812  -4.399  0.00  0.00    -0.480 OA
ATOM     37  H   UNL     1      -0.133  -6.264  -5.351  0.00  0.00    +0.295 HD
ENDBRANCH  31  36
ENDBRANCH  20  29
ENDBRANCH   1  20
TORSDOF 6
