REMARK  Name = ZINC18799217
REMARK  8 active torsions:
REMARK  status: ('A' for Active; 'I' for Inactive)
REMARK    1  A    between atoms: C_1  and  C_2
REMARK    2  A    between atoms: C_5  and  N_11
REMARK    3  A    between atoms: C_6  and  N_8
REMARK    4  A    between atoms: C_12  and  C_14
REMARK    5  A    between atoms: C_14  and  C_16
REMARK    6  A    between atoms: C_14  and  O_22
REMARK    7  A    between atoms: O_22  and  C_23
REMARK    8  A    between atoms: C_23  and  C_25
REMARK                            x       y       z     vdW  Elec       q    Type
REMARK                         _______ _______ _______ _____ _____    ______ ____
ROOT
ATOM      1  C   UNL     1      -3.650  -0.916   0.044  0.00  0.00    +0.292 C 
ENDROOT
BRANCH   1   2
ATOM      2  C   UNL     1      -4.057  -1.186   1.470  0.00  0.00    +0.002 A 
ATOM      3  C   UNL     1      -3.946  -0.189   2.421  0.00  0.00    +0.008 A 
ATOM      4  C   UNL     1      -4.324  -0.435   3.728  0.00  0.00    +0.000 A 
ATOM      5  C   UNL     1      -4.803  -1.681   4.086  0.00  0.00    +0.000 A 
ATOM      6  C   UNL     1      -4.910  -2.679   3.135  0.00  0.00    +0.000 A 
ATOM      7  C   UNL     1      -4.537  -2.432   1.828  0.00  0.00    +0.008 A 
ENDBRANCH   1   2
BRANCH   1   9
ATOM      8  N   UNL     1      -5.977  -0.738  -0.774  0.00  0.00    -0.280 N 
ATOM      9  C   UNL     1      -4.757  -0.177  -0.663  0.00  0.00    +0.263 C 
ATOM     10  O   UNL     1      -4.549   0.921  -1.133  0.00  0.00    -0.271 OA
ATOM     11  H   UNL     1      -6.123  -1.648  -0.470  0.00  0.00    +0.155 HD
BRANCH   8  16
ATOM     12  C   UNL     1     -10.266   2.224  -3.015  0.00  0.00    +0.044 C 
ATOM     13  C   UNL     1      -9.127   1.437  -2.419  0.00  0.00    -0.048 A 
ATOM     14  C   UNL     1      -8.067   2.099  -1.826  0.00  0.00    +0.005 A 
ATOM     15  C   UNL     1      -7.021   1.381  -1.280  0.00  0.00    +0.026 A 
ATOM     16  C   UNL     1      -7.035  -0.007  -1.326  0.00  0.00    +0.064 A 
ATOM     17  C   UNL     1      -8.098  -0.668  -1.927  0.00  0.00    +0.148 A 
ATOM     18  C   UNL     1      -9.143   0.055  -2.467  0.00  0.00    +0.038 A 
BRANCH  17  19
ATOM     19  N   UNL     1      -8.114  -2.147  -1.985  0.00  0.00    +0.058 N 
ATOM     20  O   UNL     1      -8.999  -2.724  -2.590  0.00  0.00    -0.126 OA
ATOM     21  O   UNL     1      -7.240  -2.788  -1.426  0.00  0.00    -0.126 OA
ENDBRANCH  17  19
ENDBRANCH   8  16
ENDBRANCH   1   9
BRANCH   1  22
ATOM     22  O   UNL     1      -2.443  -0.108   0.030  0.00  0.00    -0.443 OA
BRANCH  22  23
ATOM     23  C   UNL     1      -1.267  -0.766   0.026  0.00  0.00    +0.343 C 
ATOM     24  O   UNL     1      -1.250  -1.980   0.034  0.00  0.00    -0.245 OA
BRANCH  23  25
ATOM     25  C   UNL     1       0.001  -0.010   0.012  0.00  0.00    +0.095 A 
ATOM     26  C   UNL     1      -0.015   1.387   0.003  0.00  0.00    +0.037 A 
ATOM     27  C   UNL     1       1.174   2.086  -0.010  0.00  0.00    +0.042 A 
ATOM     28  C   UNL     1       2.382   1.408  -0.013  0.00  0.00    +0.023 A 
ATOM     29  C   UNL     1       2.407   0.026  -0.004  0.00  0.00    +0.040 A 
ATOM     30  C   UNL     1       1.223  -0.689   0.008  0.00  0.00    +0.137 A 
ATOM     31  F   UNL     1       1.248  -2.040   0.018  0.00  0.00    -0.205 F 
ATOM     32 CL   UNL     1       1.156   3.822  -0.022  0.00  0.00    -0.084 Cl
ENDBRANCH  23  25
ENDBRANCH  22  23
ENDBRANCH   1  22
TORSDOF 7
