REMARK  Name = ZINC53545546
REMARK  6 active torsions:
REMARK  status: ('A' for Active; 'I' for Inactive)
REMARK    1  A    between atoms: C_1  and  C_2
REMARK    2  A    between atoms: C_3  and  N_12
REMARK    3  A    between atoms: C_7  and  S_8
REMARK    4  A    between atoms: S_8  and  N_11
REMARK    5  A    between atoms: C_13  and  C_15
REMARK    6  A    between atoms: C_15  and  N_16
REMARK                            x       y       z     vdW  Elec       q    Type
REMARK                         _______ _______ _______ _____ _____    ______ ____
ROOT
ATOM      1  N   UNL     1      -0.010   0.011  -2.413  0.00  0.00    -0.284 N 
ATOM      2  C   UNL     1       0.095  -0.653  -3.581  0.00  0.00    +0.235 C 
ATOM      3  O   UNL     1       0.113  -1.866  -3.590  0.00  0.00    -0.274 OA
ATOM      4  H   UNL     1      -0.105   0.977  -2.411  0.00  0.00    +0.155 HD
ENDROOT
BRANCH   1   7
ATOM      5  C   UNL     1      -1.263   1.189  -0.146  0.00  0.00    +0.048 C 
ATOM      6  C   UNL     1      -0.583  -0.153  -0.073  0.00  0.00    -0.003 A 
ATOM      7  C   UNL     1       0.017  -0.692  -1.204  0.00  0.00    +0.038 A 
ATOM      8  C   UNL     1       0.643  -1.929  -1.132  0.00  0.00    +0.024 A 
ATOM      9  C   UNL     1       0.668  -2.620   0.064  0.00  0.00    +0.004 A 
ATOM     10  C   UNL     1       0.069  -2.082   1.188  0.00  0.00    +0.029 A 
ATOM     11  C   UNL     1      -0.550  -0.847   1.121  0.00  0.00    +0.110 A 
BRANCH  11  12
ATOM     12  S   UNL     1      -1.305  -0.163   2.558  0.00  0.00    +0.056 S 
ATOM     13  O   UNL     1      -2.608   0.255   2.173  0.00  0.00    -0.153 OA
ATOM     14  O   UNL     1      -1.083  -1.087   3.614  0.00  0.00    -0.153 OA
BRANCH  12  15
ATOM     15  N   UNL     1      -0.464   1.210   2.946  0.00  0.00    -0.204 NA
ATOM     16  H   UNL     1       0.291   1.486   2.403  0.00  0.00    +0.144 HD
ATOM     17  H   UNL     1      -0.726   1.738   3.716  0.00  0.00    +0.144 HD
ENDBRANCH  12  15
ENDBRANCH  11  12
ENDBRANCH   1   7
BRANCH   2  18
ATOM     18  C   UNL     1       0.191   0.111  -4.877  0.00  0.00    +0.210 C 
BRANCH  18  19
ATOM     19  N   UNL     1       0.296  -0.832  -5.993  0.00  0.00    -0.259 N 
ATOM     20  C   UNL     1       1.493  -1.335  -6.505  0.00  0.00    +0.038 C 
ATOM     21  C   UNL     1       2.721  -1.043  -6.066  0.00  0.00    +0.034 C 
ATOM     22  C   UNL     1       1.160  -2.247  -7.616  0.00  0.00    +0.008 A 
ATOM     23  C   UNL     1       1.915  -3.023  -8.486  0.00  0.00    +0.010 A 
ATOM     24  C   UNL     1       1.284  -3.790  -9.446  0.00  0.00    +0.001 A 
ATOM     25  C   UNL     1      -0.098  -3.790  -9.548  0.00  0.00    +0.001 A 
ATOM     26  C   UNL     1      -0.865  -3.025  -8.693  0.00  0.00    +0.014 A 
ATOM     27  C   UNL     1      -0.246  -2.246  -7.718  0.00  0.00    +0.046 A 
ATOM     28  C   UNL     1      -0.748  -1.343  -6.670  0.00  0.00    +0.252 C 
ATOM     29  O   UNL     1      -1.919  -1.096  -6.453  0.00  0.00    -0.270 OA
ENDBRANCH  18  19
ENDBRANCH   2  18
TORSDOF 5
