REMARK  Name = ZINC59879681
REMARK  6 active torsions:
REMARK  status: ('A' for Active; 'I' for Inactive)
REMARK    1  A    between atoms: C_14  and  C_15
REMARK    2  A    between atoms: N_16  and  N_17
REMARK    3  A    between atoms: C_20  and  S_23
REMARK    4  A    between atoms: S_23  and  C_24
REMARK    5  A    between atoms: C_24  and  C_25
REMARK    6  A    between atoms: C_28  and  C_30
REMARK                            x       y       z     vdW  Elec       q    Type
REMARK                         _______ _______ _______ _____ _____    ______ ____
ROOT
ATOM      1  N   UNL     1       7.301   0.382   0.030  0.00  0.00    -0.205 N 
ATOM      2  C   UNL     1       8.523  -0.259   0.118  0.00  0.00    +0.232 A 
ATOM      3  N   UNL     1       8.711  -1.559   0.208  0.00  0.00    -0.186 NA
ATOM      4  C   UNL     1      10.020  -1.821   0.275  0.00  0.00    +0.211 A 
ATOM      5  N   UNL     1      10.684  -0.690   0.229  0.00  0.00    -0.144 NA
ATOM      6  N   UNL     1       9.734   0.338   0.122  0.00  0.00    -0.245 N 
ATOM      7  H   UNL     1       7.264   1.349  -0.037  0.00  0.00    +0.177 HD
ATOM      8  H   UNL     1       9.912   1.290   0.064  0.00  0.00    +0.192 HD
ENDROOT
BRANCH   1  10
ATOM      9  C   UNL     1       4.965   0.238  -0.046  0.00  0.00    +0.139 C 
ATOM     10  N   UNL     1       6.116  -0.365   0.038  0.00  0.00    -0.188 NA
BRANCH   9  24
ATOM     11  C   UNL     1       3.825  -4.738  -0.108  0.00  0.00    +0.001 A 
ATOM     12  C   UNL     1       5.007  -3.998  -0.116  0.00  0.00    +0.001 A 
ATOM     13  C   UNL     1       4.998  -2.639  -0.094  0.00  0.00    +0.009 A 
ATOM     14  C   UNL     1       3.771  -1.953  -0.062  0.00  0.00    -0.009 A 
ATOM     15  C   UNL     1       2.528  -2.727  -0.054  0.00  0.00    -0.017 A 
ATOM     16  C   UNL     1       2.608  -4.136  -0.078  0.00  0.00    +0.008 A 
ATOM     17  C   UNL     1       1.294  -2.078  -0.023  0.00  0.00    +0.017 A 
ATOM     18  C   UNL     1       1.239  -0.684   0.001  0.00  0.00    -0.017 A 
ATOM     19  C   UNL     1       0.003  -0.004   0.033  0.00  0.00    +0.008 A 
ATOM     20  C   UNL     1      -0.016   1.353   0.057  0.00  0.00    +0.001 A 
ATOM     21  C   UNL     1       1.161   2.101   0.049  0.00  0.00    +0.001 A 
ATOM     22  C   UNL     1       2.383   1.507   0.018  0.00  0.00    +0.009 A 
ATOM     23  C   UNL     1       2.474   0.104  -0.007  0.00  0.00    -0.009 A 
ATOM     24  C   UNL     1       3.726  -0.544  -0.038  0.00  0.00    +0.010 A 
ENDBRANCH   9  24
ENDBRANCH   1  10
BRANCH   4  25
ATOM     25  S   UNL     1      10.738  -3.425   0.405  0.00  0.00    -0.075 S 
BRANCH  25  26
ATOM     26  C   UNL     1      12.523  -3.104   0.453  0.00  0.00    +0.175 C 
BRANCH  26  27
ATOM     27  C   UNL     1      13.265  -4.411   0.565  0.00  0.00    +0.227 A 
ATOM     28  N   UNL     1      13.690  -5.143  -0.425  0.00  0.00    -0.112 NA
ATOM     29  N   UNL     1      14.281  -6.188   0.039  0.00  0.00    -0.112 NA
ATOM     30  C   UNL     1      14.253  -6.157   1.341  0.00  0.00    +0.220 A 
ATOM     31  O   UNL     1      13.615  -5.031   1.704  0.00  0.00    -0.424 OA
BRANCH  30  32
ATOM     32  C   UNL     1      14.835  -7.191   2.270  0.00  0.00    +0.077 C 
ATOM     33  C   UNL     1      16.164  -7.785   1.776  0.00  0.00    +0.013 C 
ATOM     34  C   UNL     1      15.653  -9.146   2.279  0.00  0.00    +0.001 C 
ATOM     35  C   UNL     1      14.230  -8.593   2.087  0.00  0.00    +0.013 C 
ENDBRANCH  30  32
ENDBRANCH  26  27
ENDBRANCH  25  26
ENDBRANCH   4  25
TORSDOF 6
