REMARK  Name = ZINC39893174
REMARK  6 active torsions:
REMARK  status: ('A' for Active; 'I' for Inactive)
REMARK    1  A    between atoms: C_1  and  C_2
REMARK    2  A    between atoms: C_8  and  C_11
REMARK    3  A    between atoms: C_11  and  C_12
REMARK    4  A    between atoms: N_14  and  N_15
REMARK    5  A    between atoms: C_16  and  C_18
REMARK    6  A    between atoms: C_23  and  N_24
REMARK                            x       y       z     vdW  Elec       q    Type
REMARK                         _______ _______ _______ _____ _____    ______ ____
ROOT
ATOM      1  C   UNL     1      -0.707  -1.618   4.946  0.00  0.00    +0.234 C 
ATOM      2  O   UNL     1      -1.479  -1.436   4.028  0.00  0.00    -0.274 OA
ATOM      3  N   UNL     1      -1.177  -1.778   6.199  0.00  0.00    -0.234 N 
ATOM      4  H   UNL     1      -0.560  -1.923   6.934  0.00  0.00    +0.173 HD
ENDROOT
BRANCH   3   5
ATOM      5  N   UNL     1      -2.556  -1.733   6.441  0.00  0.00    -0.230 N 
ATOM      6  C   UNL     1      -3.026  -1.893   7.695  0.00  0.00    +0.262 C 
ATOM      7  O   UNL     1      -2.253  -2.075   8.615  0.00  0.00    -0.269 OA
ATOM      8  H   UNL     1      -3.173  -1.588   5.707  0.00  0.00    +0.173 HD
BRANCH   6   9
ATOM      9  C   UNL     1      -4.481  -1.846   7.950  0.00  0.00    +0.068 A 
ATOM     10  C   UNL     1      -5.230  -0.742   7.538  0.00  0.00    +0.015 A 
ATOM     11  C   UNL     1      -6.588  -0.704   7.779  0.00  0.00    +0.001 A 
ATOM     12  C   UNL     1      -7.208  -1.758   8.428  0.00  0.00    +0.002 A 
ATOM     13  C   UNL     1      -6.472  -2.855   8.838  0.00  0.00    +0.033 A 
ATOM     14  C   UNL     1      -5.114  -2.907   8.599  0.00  0.00    +0.138 A 
BRANCH  14  15
ATOM     15  N   UNL     1      -4.329  -4.085   9.033  0.00  0.00    +0.057 N 
ATOM     16  O   UNL     1      -4.851  -4.946   9.701  0.00  0.00    -0.126 OA
ATOM     17  O   UNL     1      -3.165  -4.185   8.720  0.00  0.00    -0.126 OA
ENDBRANCH  14  15
ENDBRANCH   6   9
ENDBRANCH   3   5
BRANCH   1  18
ATOM     18  C   UNL     1       0.776  -1.666   4.686  0.00  0.00    +0.136 C 
BRANCH  18  26
ATOM     19  C   UNL     1       1.156   3.590   2.386  0.00  0.00    +0.044 C 
ATOM     20  C   UNL     1       1.238   2.144   1.968  0.00  0.00    -0.050 A 
ATOM     21  C   UNL     1       1.474   1.824   0.639  0.00  0.00    +0.007 A 
ATOM     22  C   UNL     1       1.552   0.508   0.235  0.00  0.00    +0.047 A 
ATOM     23  C   UNL     1       1.392  -0.511   1.167  0.00  0.00    +0.135 A 
ATOM     24  C   UNL     1       1.153  -0.180   2.511  0.00  0.00    +0.024 A 
ATOM     25  C   UNL     1       1.083   1.157   2.901  0.00  0.00    +0.015 A 
ATOM     26  C   UNL     1       1.035  -1.462   3.215  0.00  0.00    +0.007 A 
ATOM     27  C   UNL     1       1.203  -2.414   2.288  0.00  0.00    +0.200 A 
ATOM     28  O   UNL     1       1.413  -1.856   1.083  0.00  0.00    -0.463 OA
ENDBRANCH  18  26
ENDBRANCH   1  18
TORSDOF 5
