REMARK  Name = ZINC12466697
REMARK  8 active torsions:
REMARK  status: ('A' for Active; 'I' for Inactive)
REMARK    1  A    between atoms: C_1  and  C_2
REMARK    2  A    between atoms: C_2  and  O_3
REMARK    3  A    between atoms: O_3  and  C_4
REMARK    4  A    between atoms: C_7  and  C_9
REMARK    5  A    between atoms: C_13  and  N_14
REMARK    6  A    between atoms: C_15  and  C_17
REMARK    7  A    between atoms: N_22  and  S_23
REMARK    8  A    between atoms: S_23  and  C_26
REMARK                            x       y       z     vdW  Elec       q    Type
REMARK                         _______ _______ _______ _____ _____    ______ ____
ROOT
ATOM      1  N   UNL     1       2.038  -1.772  -2.531  0.00  0.00    -0.278 N 
ATOM      2  C   UNL     1       1.009  -1.257  -1.830  0.00  0.00    +0.236 C 
ATOM      3  O   UNL     1      -0.131  -1.439  -2.203  0.00  0.00    -0.274 OA
ATOM      4  H   UNL     1       2.950  -1.626  -2.233  0.00  0.00    +0.155 HD
ENDROOT
BRANCH   1   9
ATOM      5  C   UNL     1       2.715  -3.110  -4.532  0.00  0.00    +0.066 A 
ATOM      6  C   UNL     1       2.178  -3.827  -5.664  0.00  0.00    +0.022 A 
ATOM      7  C   UNL     1       0.840  -3.844  -5.802  0.00  0.00    +0.048 A 
ATOM      8  S   UNL     1       0.271  -2.900  -4.404  0.00  0.00    -0.081 S 
ATOM      9  C   UNL     1       1.794  -2.509  -3.679  0.00  0.00    +0.084 A 
BRANCH   5  13
ATOM     10  C   UNL     1       6.346  -3.538  -4.917  0.00  0.00    +0.407 C 
ATOM     11  O   UNL     1       6.765  -2.929  -3.953  0.00  0.00    -0.226 OA
ATOM     12  N   UNL     1       5.019  -3.618  -5.139  0.00  0.00    -0.217 N 
ATOM     13  C   UNL     1       4.157  -3.023  -4.291  0.00  0.00    +0.255 C 
ATOM     14  O   UNL     1       4.577  -2.413  -3.325  0.00  0.00    -0.270 OA
ATOM     15  H   UNL     1       4.685  -4.104  -5.909  0.00  0.00    +0.161 HD
BRANCH  10  16
ATOM     16  O   UNL     1       7.207  -4.132  -5.764  0.00  0.00    -0.450 OA
BRANCH  16  18
ATOM     17  C   UNL     1       9.438  -4.739  -6.528  0.00  0.00    +0.048 C 
ATOM     18  C   UNL     1       8.622  -4.004  -5.463  0.00  0.00    +0.230 C 
ENDBRANCH  16  18
ENDBRANCH  10  16
ENDBRANCH   5  13
ENDBRANCH   1   9
BRANCH   2  19
ATOM     19  C   UNL     1       1.274  -0.455  -0.582  0.00  0.00    +0.166 C 
ATOM     20  C   UNL     1       2.092   0.807  -0.929  0.00  0.00    +0.031 C 
ATOM     21  C   UNL     1       1.474   1.887  -0.002  0.00  0.00    +0.019 C 
ATOM     22  C   UNL     1      -0.018   1.470   0.010  0.00  0.00    +0.110 C 
ATOM     23  N   UNL     1       0.002  -0.004   0.002  0.00  0.00    -0.164 NA
BRANCH  23  24
ATOM     24  S   UNL     1      -1.208  -0.989   0.558  0.00  0.00    +0.068 S 
ATOM     25  O   UNL     1      -0.602  -2.231   0.886  0.00  0.00    -0.152 OA
ATOM     26  O   UNL     1      -1.948  -0.229   1.504  0.00  0.00    -0.152 OA
BRANCH  24  27
ATOM     27  C   UNL     1      -2.291  -1.299  -0.797  0.00  0.00    +0.144 A 
ATOM     28  C   UNL     1      -2.243  -2.293  -1.717  0.00  0.00    +0.038 A 
ATOM     29  C   UNL     1      -3.213  -2.343  -2.701  0.00  0.00    +0.030 A 
ATOM     30  C   UNL     1      -4.177  -1.389  -2.722  0.00  0.00    +0.080 A 
ATOM     31  S   UNL     1      -3.731  -0.382  -1.317  0.00  0.00    -0.057 S 
ATOM     32 CL   UNL     1      -5.502  -1.197  -3.828  0.00  0.00    -0.076 Cl
ENDBRANCH  24  27
ENDBRANCH  23  24
ENDBRANCH   2  19
TORSDOF 7
