REMARK  Name = ZINC39727101
REMARK  3 active torsions:
REMARK  status: ('A' for Active; 'I' for Inactive)
REMARK    1  A    between atoms: C_6  and  C_7
REMARK    2  A    between atoms: N_12  and  C_13
REMARK    3  A    between atoms: C_13  and  C_14
REMARK                            x       y       z     vdW  Elec       q    Type
REMARK                         _______ _______ _______ _____ _____    ______ ____
ROOT
ATOM      1  C   UNL     1      -1.479  -0.775  -0.114  0.00  0.00    -0.037 C 
ATOM      2  C   UNL     1      -2.161  -0.651  -1.493  0.00  0.00    -0.013 C 
ATOM      3  C   UNL     1      -3.647  -0.400  -1.127  0.00  0.00    -0.020 C 
ATOM      4  C   UNL     1      -3.513   0.467   0.150  0.00  0.00    -0.077 C 
ATOM      5  N   UNL     1      -2.343  -0.094   0.867  0.00  0.00    +0.390 N 
ATOM      6  H   UNL     1      -1.829   0.651   1.314  0.00  0.00    -0.080 HD
ENDROOT
BRANCH   1  12
ATOM      7  C   UNL     1      -0.028   1.262  -0.069  0.00  0.00    +0.006 A 
ATOM      8  C   UNL     1       1.212   1.875  -0.102  0.00  0.00    +0.049 A 
ATOM      9  C   UNL     1       2.356   1.105  -0.216  0.00  0.00    +0.162 A 
ATOM     10  C   UNL     1       2.259  -0.277  -0.298  0.00  0.00    +0.162 A 
ATOM     11  C   UNL     1       1.017  -0.888  -0.265  0.00  0.00    +0.051 A 
ATOM     12  C   UNL     1      -0.125  -0.115  -0.150  0.00  0.00    -0.057 A 
ATOM     13  O   UNL     1       3.393  -1.028  -0.409  0.00  0.00    -0.488 OA
ATOM     14  C   UNL     1       4.108  -0.901  -1.640  0.00  0.00    +0.232 C 
ATOM     15  C   UNL     1       5.040   0.300  -1.600  0.00  0.00    +0.082 C 
ATOM     16  C   UNL     1       4.286   1.615  -1.491  0.00  0.00    +0.232 C 
ATOM     17  O   UNL     1       3.586   1.697  -0.248  0.00  0.00    -0.488 OA
ENDBRANCH   1  12
BRANCH   5  18
ATOM     18  C   UNL     1      -2.796  -1.056   1.880  0.00  0.00    +0.020 C 
BRANCH  18  19
ATOM     19  C   UNL     1      -3.577  -0.333   2.947  0.00  0.00    +0.201 C 
ATOM     20  O   UNL     1      -3.740   0.866   2.871  0.00  0.00    -0.278 OA
ATOM     21  N   UNL     1      -4.094  -1.020   3.986  0.00  0.00    -0.286 N 
ATOM     22  C   UNL     1      -5.385  -0.951   4.244  0.00  0.00    +0.050 C 
ATOM     23  C   UNL     1      -6.287  -0.235   3.317  0.00  0.00    +0.054 C 
ATOM     24  C   UNL     1      -7.615  -0.171   3.592  0.00  0.00    +0.097 C 
ATOM     25  N   UNL     1      -8.695   0.389   2.975  0.00  0.00    -0.190 NA
ATOM     26  C   UNL     1      -9.759   0.134   3.702  0.00  0.00    +0.369 C 
ATOM     27  O   UNL     1     -11.012   0.541   3.389  0.00  0.00    -0.243 OA
ATOM     28  N   UNL     1      -9.447  -0.581   4.796  0.00  0.00    -0.190 NA
ATOM     29  C   UNL     1      -8.149  -0.814   4.809  0.00  0.00    +0.096 C 
ATOM     30  C   UNL     1      -7.247  -1.521   5.723  0.00  0.00    +0.047 C 
ATOM     31  C   UNL     1      -5.929  -1.592   5.450  0.00  0.00    +0.041 C 
ATOM     32 BR   UNL     1      -4.772  -2.514   6.628  0.00  0.00    -0.048 Br
ATOM     33  H   UNL     1      -3.516  -1.564   4.544  0.00  0.00    +0.155 HD
ENDBRANCH  18  19
ENDBRANCH   5  18
TORSDOF 3
