REMARK  Name = ZINC61595150
REMARK  10 active torsions:
REMARK  status: ('A' for Active; 'I' for Inactive)
REMARK    1  A    between atoms: C_1  and  C_2
REMARK    2  A    between atoms: C_2  and  C_3
REMARK    3  A    between atoms: C_3  and  C_5
REMARK    4  A    between atoms: C_3  and  N_24
REMARK    5  A    between atoms: C_5  and  C_7
REMARK    6  A    between atoms: C_5  and  S_13
REMARK    7  A    between atoms: S_13  and  C_14
REMARK    8  A    between atoms: N_20  and  C_21
REMARK    9  A    between atoms: C_21  and  C_22
REMARK   10  A    between atoms: C_21  and  C_23
REMARK                            x       y       z     vdW  Elec       q    Type
REMARK                         _______ _______ _______ _____ _____    ______ ____
ROOT
ATOM      1  C   UNL     1      -1.440  -2.067   0.012  0.00  0.00    +0.076 C 
ENDROOT
BRANCH   1   2
ATOM      2  C   UNL     1      -2.833  -2.627  -0.116  0.00  0.00    +0.003 A 
ATOM      3  C   UNL     1      -3.350  -3.415  -1.090  0.00  0.00    +0.027 A 
ATOM      4  C   UNL     1      -4.671  -3.814  -0.999  0.00  0.00    +0.025 A 
ATOM      5  C   UNL     1      -5.409  -3.405   0.062  0.00  0.00    +0.060 A 
ATOM      6  S   UNL     1      -4.228  -2.432   0.981  0.00  0.00    -0.099 S 
ATOM      7 BR   UNL     1      -5.436  -4.913  -2.334  0.00  0.00    -0.050 Br
ENDBRANCH   1   2
BRANCH   1   8
ATOM      8  C   UNL     1      -1.506  -0.538   0.044  0.00  0.00    -0.057 C 
BRANCH   8   9
ATOM      9  N   UNL     1      -2.147  -0.050  -1.185  0.00  0.00    +0.381 N 
ATOM     10  H   UNL     1      -1.609  -0.347  -1.985  0.00  0.00    -0.090 HD
ATOM     11  H   UNL     1      -3.081  -0.426  -1.249  0.00  0.00    -0.090 HD
ATOM     12  H   UNL     1      -2.191   0.958  -1.163  0.00  0.00    -0.090 HD
ENDBRANCH   8   9
BRANCH   8  14
ATOM     13  C   UNL     1      -0.161   1.551   0.309  0.00  0.00    +0.002 C 
ATOM     14  C   UNL     1      -0.089   0.031   0.141  0.00  0.00    -0.018 C 
ENDBRANCH   8  14
ENDBRANCH   1   8
BRANCH   1  15
ATOM     15  S   UNL     1      -0.683  -2.672   1.545  0.00  0.00    -0.079 S 
BRANCH  15  16
ATOM     16  C   UNL     1      -0.472  -4.398   1.264  0.00  0.00    +0.193 A 
ATOM     17  N   UNL     1      -0.873  -5.051   0.211  0.00  0.00    -0.145 NA
ATOM     18  N   UNL     1      -0.516  -6.397   0.373  0.00  0.00    -0.226 N 
ATOM     19  H   UNL     1      -0.688  -7.115  -0.255  0.00  0.00    +0.194 HD
ATOM     20  C   UNL     1       0.110  -6.508   1.563  0.00  0.00    +0.345 A 
ATOM     21  O   UNL     1       0.563  -7.531   2.044  0.00  0.00    -0.245 OA
ATOM     22  N   UNL     1       0.148  -5.281   2.119  0.00  0.00    -0.268 N 
BRANCH  22  23
ATOM     23  C   UNL     1       0.745  -4.945   3.414  0.00  0.00    +0.088 C 
ATOM     24  C   UNL     1       0.048  -5.742   4.519  0.00  0.00    +0.031 C 
ATOM     25  C   UNL     1       2.234  -5.293   3.395  0.00  0.00    +0.031 C 
ENDBRANCH  22  23
ENDBRANCH  15  16
ENDBRANCH   1  15
TORSDOF 7
