REMARK  Name = ZINC13677929
REMARK  4 active torsions:
REMARK  status: ('A' for Active; 'I' for Inactive)
REMARK    1  A    between atoms: C_1  and  S_2
REMARK    2  A    between atoms: S_2  and  N_5
REMARK    3  A    between atoms: N_5  and  C_6
REMARK    4  A    between atoms: C_10  and  C_12
REMARK                            x       y       z     vdW  Elec       q    Type
REMARK                         _______ _______ _______ _____ _____    ______ ____
ROOT
ATOM      1  C   UNL     1       4.988  -1.438  -3.435  0.00  0.00    +0.251 C 
ATOM      2  O   UNL     1       4.579  -2.537  -3.756  0.00  0.00    -0.270 OA
ATOM      3  N   UNL     1       6.230  -1.052  -3.789  0.00  0.00    -0.257 N 
ATOM      4  C   UNL     1       6.781   0.235  -3.339  0.00  0.00    +0.210 C 
ATOM      5  C   UNL     1       7.513   0.886  -4.479  0.00  0.00    +0.235 C 
ATOM      6  O   UNL     1       7.585   2.096  -4.532  0.00  0.00    -0.274 OA
ATOM      7  N   UNL     1       8.086   0.143  -5.445  0.00  0.00    -0.283 N 
ATOM      8  C   UNL     1       7.976  -1.251  -5.435  0.00  0.00    +0.055 A 
ATOM      9  C   UNL     1       7.035  -1.862  -4.603  0.00  0.00    +0.058 A 
ATOM     10  C   UNL     1       6.910  -3.239  -4.588  0.00  0.00    +0.025 A 
ATOM     11  C   UNL     1       7.723  -4.011  -5.399  0.00  0.00    +0.002 A 
ATOM     12  C   UNL     1       8.657  -3.409  -6.222  0.00  0.00    +0.002 A 
ATOM     13  C   UNL     1       8.786  -2.032  -6.243  0.00  0.00    +0.025 A 
ATOM     14  H   UNL     1       8.582   0.580  -6.156  0.00  0.00    +0.155 HD
ENDROOT
BRANCH   1  19
ATOM     15  C   UNL     1       1.935   0.297  -2.091  0.00  0.00    +0.048 A 
ATOM     16  C   UNL     1       2.509   1.194  -1.197  0.00  0.00    +0.024 A 
ATOM     17  C   UNL     1       3.880   1.226  -1.028  0.00  0.00    +0.003 A 
ATOM     18  C   UNL     1       4.690   0.374  -1.753  0.00  0.00    +0.013 A 
ATOM     19  C   UNL     1       4.123  -0.526  -2.657  0.00  0.00    +0.039 A 
ATOM     20  C   UNL     1       2.739  -0.562  -2.824  0.00  0.00    +0.037 A 
BRANCH  15  21
ATOM     21  N   UNL     1       0.547   0.266  -2.254  0.00  0.00    -0.221 N 
ATOM     22  H   UNL     1       0.100   0.980  -2.734  0.00  0.00    +0.173 HD
BRANCH  21  24
ATOM     23  C   UNL     1      -0.104  -0.870   0.167  0.00  0.00    +0.218 C 
ATOM     24  S   UNL     1      -0.332  -0.990  -1.629  0.00  0.00    +0.040 S 
ATOM     25  O   UNL     1       0.303  -2.160  -2.126  0.00  0.00    -0.155 OA
ATOM     26  O   UNL     1      -1.679  -0.696  -1.972  0.00  0.00    -0.155 OA
ENDBRANCH  21  24
ENDBRANCH  15  21
ENDBRANCH   1  19
TORSDOF 3
