REMARK  Name = ZINC52876295
REMARK  7 active torsions:
REMARK  status: ('A' for Active; 'I' for Inactive)
REMARK    1  A    between atoms: C_1  and  C_2
REMARK    2  A    between atoms: C_2  and  C_3
REMARK    3  A    between atoms: C_5  and  C_8
REMARK    4  A    between atoms: C_8  and  S_9
REMARK    5  A    between atoms: S_9  and  C_10
REMARK    6  A    between atoms: C_13  and  C_16
REMARK    7  A    between atoms: N_14  and  N_15
REMARK                            x       y       z     vdW  Elec       q    Type
REMARK                         _______ _______ _______ _____ _____    ______ ____
ROOT
ATOM      1  C   UNL     1      -5.618  -3.701  -3.127  0.00  0.00    +0.209 A 
ATOM      2  N   UNL     1      -6.592  -2.868  -3.416  0.00  0.00    -0.121 NA
ATOM      3  N   UNL     1      -7.465  -3.450  -4.158  0.00  0.00    -0.127 NA
ATOM      4  C   UNL     1      -7.103  -4.691  -4.388  0.00  0.00    +0.183 A 
ATOM      5  N   UNL     1      -5.905  -4.888  -3.740  0.00  0.00    -0.224 N 
ENDROOT
BRANCH   4   6
ATOM      6  C   UNL     1      -7.839  -5.686  -5.196  0.00  0.00    +0.039 A 
ATOM      7  C   UNL     1      -8.046  -6.975  -4.702  0.00  0.00    +0.014 A 
ATOM      8  C   UNL     1      -8.734  -7.899  -5.460  0.00  0.00    +0.021 A 
ATOM      9  C   UNL     1      -9.219  -7.551  -6.710  0.00  0.00    +0.042 A 
ATOM     10  C   UNL     1      -9.018  -6.274  -7.206  0.00  0.00    +0.040 A 
ATOM     11  C   UNL     1      -8.335  -5.338  -6.455  0.00  0.00    +0.053 A 
ATOM     12 CL   UNL     1      -8.089  -3.736  -7.075  0.00  0.00    -0.083 Cl
ATOM     13 CL   UNL     1     -10.084  -8.720  -7.658  0.00  0.00    -0.083 Cl
ENDBRANCH   4   6
BRANCH   5  14
ATOM     14  N   UNL     1      -5.160  -6.033  -3.712  0.00  0.00    -0.295 N 
ATOM     15  H   UNL     1      -5.485  -6.658  -2.989  0.00  0.00    +0.163 HD
ATOM     16  H   UNL     1      -5.164  -6.489  -4.612  0.00  0.00    +0.163 HD
ENDBRANCH   5  14
BRANCH   1  17
ATOM     17  S   UNL     1      -4.201  -3.351  -2.140  0.00  0.00    -0.077 S 
BRANCH  17  18
ATOM     18  C   UNL     1      -4.431  -1.623  -1.641  0.00  0.00    +0.157 C 
BRANCH  18  21
ATOM     19  C   UNL     1      -1.342  -0.383  -0.220  0.00  0.00    +0.227 A 
ATOM     20  N   UNL     1      -2.136  -0.639  -1.222  0.00  0.00    -0.195 NA
ATOM     21  C   UNL     1      -3.272  -1.190  -0.779  0.00  0.00    +0.182 A 
ATOM     22  N   UNL     1      -3.213  -1.292   0.517  0.00  0.00    -0.060 NA
ATOM     23  O   UNL     1      -1.951  -0.773   0.907  0.00  0.00    -0.338 OA
BRANCH  19  25
ATOM     24  C   UNL     1      -0.094   1.760  -0.211  0.00  0.00    +0.014 C 
ATOM     25  C   UNL     1       0.028   0.238  -0.315  0.00  0.00    +0.095 C 
ENDBRANCH  19  25
ENDBRANCH  18  21
ENDBRANCH  17  18
ENDBRANCH   1  17
TORSDOF 6
