REMARK  Name = ZINC29943045
REMARK  4 active torsions:
REMARK  status: ('A' for Active; 'I' for Inactive)
REMARK    1  A    between atoms: C_1  and  N_2
REMARK    2  A    between atoms: C_6  and  C_8
REMARK    3  A    between atoms: C_8  and  N_9
REMARK    4  A    between atoms: N_9  and  C_10
REMARK                            x       y       z     vdW  Elec       q    Type
REMARK                         _______ _______ _______ _____ _____    ______ ____
ROOT
ATOM      1  N   UNL     1       1.390  -0.473  -0.014  0.00  0.00    -0.334 N 
ATOM      2  H   UNL     1       2.216   0.253  -0.018  0.00  0.00    +0.147 HD
ENDROOT
BRANCH   1   3
ATOM      3  C   UNL     1       1.664  -1.846  -0.024  0.00  0.00    +0.050 A 
ATOM      4  C   UNL     1       0.620  -2.763  -0.019  0.00  0.00    +0.073 A 
ATOM      5  C   UNL     1       0.898  -4.119  -0.029  0.00  0.00    +0.164 A 
ATOM      6  C   UNL     1       2.214  -4.560  -0.043  0.00  0.00    +0.163 A 
ATOM      7  C   UNL     1       3.255  -3.647  -0.048  0.00  0.00    +0.071 A 
ATOM      8  C   UNL     1       2.980  -2.291  -0.044  0.00  0.00    +0.065 A 
ATOM      9 CL   UNL     1       4.282  -1.143  -0.059  0.00  0.00    -0.082 Cl
ATOM     10  O   UNL     1       2.475  -5.901  -0.052  0.00  0.00    -0.488 OA
ATOM     11  C   UNL     1       2.138  -6.611   1.141  0.00  0.00    +0.232 C 
ATOM     12  C   UNL     1       0.671  -7.011   1.135  0.00  0.00    +0.082 C 
ATOM     13  C   UNL     1      -0.257  -5.806   1.166  0.00  0.00    +0.232 C 
ATOM     14  O   UNL     1      -0.118  -5.029  -0.025  0.00  0.00    -0.488 OA
ENDBRANCH   1   3
BRANCH   1  15
ATOM     15  C   UNL     1       0.002  -0.004   0.002  0.00  0.00    +0.198 C 
BRANCH  15  21
ATOM     16  C   UNL     1      -2.409   5.631   0.044  0.00  0.00    +0.129 C 
ATOM     17  N   UNL     1      -2.389   4.166   0.036  0.00  0.00    -0.302 N 
ATOM     18  C   UNL     1      -1.213   3.508   0.027  0.00  0.00    +0.306 C 
ATOM     19  O   UNL     1      -0.169   4.130   0.025  0.00  0.00    -0.252 OA
ATOM     20  N   UNL     1      -1.195   2.161   0.019  0.00  0.00    -0.239 N 
ATOM     21  C   UNL     1      -0.018   1.503   0.010  0.00  0.00    +0.237 C 
ATOM     22  O   UNL     1       1.023   2.123   0.004  0.00  0.00    -0.274 OA
ATOM     23  H   UNL     1      -3.334   3.603   0.037  0.00  0.00    +0.150 HD
ATOM     24  H   UNL     1      -2.140   1.598   0.021  0.00  0.00    +0.159 HD
ENDBRANCH  15  21
ENDBRANCH   1  15
TORSDOF 3
