REMARK  Name = ZINC63856820
REMARK  6 active torsions:
REMARK  status: ('A' for Active; 'I' for Inactive)
REMARK    1  A    between atoms: C_1  and  C_2
REMARK    2  A    between atoms: C_9  and  C_11
REMARK    3  A    between atoms: N_12  and  C_13
REMARK    4  A    between atoms: C_13  and  C_14
REMARK    5  A    between atoms: C_19  and  O_24
REMARK    6  A    between atoms: O_24  and  C_25
REMARK                            x       y       z     vdW  Elec       q    Type
REMARK                         _______ _______ _______ _____ _____    ______ ____
ROOT
ATOM      1  C   UNL     1      -0.018   1.503   0.010  0.00  0.00    +0.088 C 
ATOM      2  C   UNL     1       0.002  -0.004   0.002  0.00  0.00    +0.132 A 
ATOM      3  N   UNL     1       0.005  -0.633  -1.159  0.00  0.00    -0.215 NA
ATOM      4  C   UNL     1       0.023  -1.961  -1.220  0.00  0.00    +0.152 A 
ATOM      5  C   UNL     1       0.038  -2.685  -0.017  0.00  0.00    +0.169 A 
ATOM      6  C   UNL     1       0.035  -1.971   1.190  0.00  0.00    +0.253 A 
ATOM      7  N   UNL     1       0.022  -0.644   1.153  0.00  0.00    -0.196 NA
ATOM      8  O   UNL     1       0.052  -2.893   2.171  0.00  0.00    -0.422 OA
ATOM      9  C   UNL     1       0.066  -4.111   1.603  0.00  0.00    +0.196 A 
ATOM     10  N   UNL     1       0.058  -4.002   0.308  0.00  0.00    -0.208 NA
ATOM     11  C   UNL     1       0.087  -5.415   2.359  0.00  0.00    +0.109 C 
ATOM     12  N   UNL     1       0.025  -2.614  -2.440  0.00  0.00    -0.325 N 
ATOM     13  H   UNL     1       0.038  -3.583  -2.472  0.00  0.00    +0.148 HD
ENDROOT
BRANCH  12  14
ATOM     14  C   UNL     1       0.008  -1.841  -3.685  0.00  0.00    +0.131 C 
BRANCH  14  15
ATOM     15  C   UNL     1       0.015  -2.797  -4.879  0.00  0.00    +0.120 C 
ATOM     16  C   UNL     1      -0.151  -2.022  -6.168  0.00  0.00    +0.009 C 
ATOM     17  C   UNL     1      -1.291  -2.478  -6.735  0.00  0.00    -0.001 A 
ATOM     18  C   UNL     1      -1.991  -2.135  -7.977  0.00  0.00    +0.055 A 
ATOM     19  C   UNL     1      -3.142  -2.775  -8.293  0.00  0.00    +0.121 A 
ATOM     20  C   UNL     1      -3.700  -3.767  -7.468  0.00  0.00    +0.047 A 
ATOM     21  C   UNL     1      -3.130  -4.151  -6.306  0.00  0.00    +0.029 A 
ATOM     22  C   UNL     1      -1.880  -3.524  -5.866  0.00  0.00    +0.043 A 
ATOM     23  N   UNL     1      -1.133  -3.708  -4.804  0.00  0.00    -0.376 N 
ATOM     24  H   UNL     1      -1.309  -4.339  -4.089  0.00  0.00    +0.160 HD
BRANCH  19  25
ATOM     25  O   UNL     1      -3.780  -2.446  -9.448  0.00  0.00    -0.495 OA
ATOM     26  C   UNL     1      -4.991  -3.146  -9.741  0.00  0.00    +0.277 C 
ENDBRANCH  19  25
ENDBRANCH  14  15
ENDBRANCH  12  14
TORSDOF 3
