REMARK  Name = ZINC02969479
REMARK  10 active torsions:
REMARK  status: ('A' for Active; 'I' for Inactive)
REMARK    1  A    between atoms: C_1  and  C_2
REMARK    2  A    between atoms: C_6  and  C_38
REMARK    3  A    between atoms: C_7  and  N_8
REMARK    4  A    between atoms: C_9  and  C_11
REMARK    5  A    between atoms: C_11  and  S_12
REMARK    6  A    between atoms: S_12  and  C_13
REMARK    7  A    between atoms: C_24  and  C_26
REMARK    8  A    between atoms: C_26  and  C_27
REMARK    9  A    between atoms: C_27  and  N_28
REMARK   10  A    between atoms: C_29  and  C_37
REMARK                            x       y       z     vdW  Elec       q    Type
REMARK                         _______ _______ _______ _____ _____    ______ ____
ROOT
ATOM      1  C   UNL     1      -6.609  -2.228  -3.928  0.00  0.00    +0.192 A 
ATOM      2  N   UNL     1      -7.450  -1.334  -4.382  0.00  0.00    -0.222 NA
ATOM      3  C   UNL     1      -8.346  -0.717  -3.576  0.00  0.00    +0.077 A 
ATOM      4  C   UNL     1      -9.239   0.236  -4.074  0.00  0.00    +0.028 A 
ATOM      5  C   UNL     1     -10.136   0.842  -3.224  0.00  0.00    +0.002 A 
ATOM      6  C   UNL     1     -10.167   0.517  -1.873  0.00  0.00    +0.001 A 
ATOM      7  C   UNL     1      -9.298  -0.419  -1.358  0.00  0.00    +0.014 A 
ATOM      8  C   UNL     1      -8.381  -1.044  -2.201  0.00  0.00    +0.045 A 
ATOM      9  C   UNL     1      -7.432  -2.049  -1.709  0.00  0.00    +0.168 A 
ATOM     10  N   UNL     1      -6.570  -2.608  -2.614  0.00  0.00    -0.188 N 
ATOM     11  N   UNL     1      -5.789  -3.518  -1.890  0.00  0.00    -0.148 NA
ATOM     12  C   UNL     1      -6.195  -3.470  -0.645  0.00  0.00    +0.154 A 
ATOM     13  N   UNL     1      -7.187  -2.591  -0.535  0.00  0.00    -0.211 NA
ENDROOT
BRANCH   1  14
ATOM     14  S   UNL     1      -5.480  -2.975  -5.056  0.00  0.00    -0.077 S 
BRANCH  14  15
ATOM     15  C   UNL     1      -5.960  -2.133  -6.585  0.00  0.00    +0.173 C 
BRANCH  15  17
ATOM     16  N   UNL     1      -5.282  -2.137  -8.963  0.00  0.00    -0.284 N 
ATOM     17  C   UNL     1      -5.102  -2.627  -7.721  0.00  0.00    +0.228 C 
ATOM     18  O   UNL     1      -4.250  -3.466  -7.517  0.00  0.00    -0.275 OA
ATOM     19  H   UNL     1      -5.997  -1.506  -9.137  0.00  0.00    +0.155 HD
BRANCH  16  26
ATOM     20  C   UNL     1      -2.472  -1.915  -8.572  0.00  0.00    +0.045 C 
ATOM     21  C   UNL     1      -3.058  -2.447  -9.854  0.00  0.00    -0.029 A 
ATOM     22  C   UNL     1      -2.226  -2.850 -10.880  0.00  0.00    +0.005 A 
ATOM     23  C   UNL     1      -2.764  -3.334 -12.059  0.00  0.00    +0.001 A 
ATOM     24  C   UNL     1      -4.135  -3.422 -12.212  0.00  0.00    +0.005 A 
ATOM     25  C   UNL     1      -4.973  -3.026 -11.188  0.00  0.00    -0.029 A 
ATOM     26  C   UNL     1      -4.436  -2.539 -10.003  0.00  0.00    +0.039 A 
ATOM     27  C   UNL     1      -6.467  -3.122 -11.356  0.00  0.00    +0.045 C 
ENDBRANCH  16  26
ENDBRANCH  15  17
ENDBRANCH  14  15
ENDBRANCH   1  14
BRANCH  12  28
ATOM     28  C   UNL     1      -5.629  -4.288   0.486  0.00  0.00    +0.099 C 
BRANCH  28  29
ATOM     29  C   UNL     1      -4.477  -3.525   1.142  0.00  0.00    +0.131 C 
BRANCH  29  30
ATOM     30  N   UNL     1      -3.927  -4.320   2.242  0.00  0.00    -0.327 N 
ATOM     31  C   UNL     1      -2.917  -5.228   2.154  0.00  0.00    +0.108 A 
ATOM     32  N   UNL     1      -2.680  -5.747   3.324  0.00  0.00    -0.233 NA
ATOM     33  C   UNL     1      -3.525  -5.211   4.241  0.00  0.00    +0.089 A 
ATOM     34  C   UNL     1      -4.339  -4.291   3.560  0.00  0.00    +0.069 A 
ATOM     35  C   UNL     1      -5.310  -3.582   4.253  0.00  0.00    +0.028 A 
ATOM     36  C   UNL     1      -5.468  -3.786   5.608  0.00  0.00    +0.002 A 
ATOM     37  C   UNL     1      -4.664  -4.695   6.280  0.00  0.00    +0.002 A 
ATOM     38  C   UNL     1      -3.703  -5.401   5.614  0.00  0.00    +0.030 A 
ATOM     39  C   UNL     1      -2.178  -5.577   0.888  0.00  0.00    +0.086 C 
ENDBRANCH  29  30
ENDBRANCH  28  29
ENDBRANCH  12  28
TORSDOF 7
