REMARK  Name = ZINC39699313
REMARK  9 active torsions:
REMARK  status: ('A' for Active; 'I' for Inactive)
REMARK    1  A    between atoms: C_1  and  C_2
REMARK    2  A    between atoms: C_5  and  C_36
REMARK    3  A    between atoms: C_10  and  C_14
REMARK    4  A    between atoms: C_14  and  C_16
REMARK    5  A    between atoms: C_14  and  N_26
REMARK    6  A    between atoms: N_21  and  C_22
REMARK    7  A    between atoms: C_22  and  C_23
REMARK    8  A    between atoms: C_22  and  C_24
REMARK    9  A    between atoms: C_22  and  C_25
REMARK                            x       y       z     vdW  Elec       q    Type
REMARK                         _______ _______ _______ _____ _____    ______ ____
ROOT
ATOM      1  C   UNL     1      -1.619  -1.194   5.908  0.00  0.00    +0.114 C 
ENDROOT
BRANCH   1  11
ATOM      2  C   UNL     1      -3.672   3.427   5.004  0.00  0.00    +0.044 C 
ATOM      3  C   UNL     1      -3.301   2.670   3.755  0.00  0.00    -0.042 A 
ATOM      4  C   UNL     1      -3.781   3.056   2.545  0.00  0.00    +0.004 A 
ATOM      5  C   UNL     1      -3.448   2.368   1.378  0.00  0.00    +0.005 A 
ATOM      6  C   UNL     1      -2.633   1.281   1.375  0.00  0.00    -0.029 A 
ATOM      7  C   UNL     1      -2.082   0.798   2.577  0.00  0.00    +0.043 A 
ATOM      8  N   UNL     1      -1.284  -0.269   2.562  0.00  0.00    -0.284 N 
ATOM      9  C   UNL     1      -0.733  -0.774   3.653  0.00  0.00    +0.226 C 
ATOM     10  O   UNL     1      -0.012  -1.750   3.578  0.00  0.00    -0.275 OA
ATOM     11  C   UNL     1      -1.003  -0.132   4.996  0.00  0.00    +0.119 C 
ATOM     12  C   UNL     1      -1.911   1.082   5.018  0.00  0.00    -0.003 C 
ATOM     13  C   UNL     1      -2.412   1.510   3.824  0.00  0.00    -0.004 A 
ATOM     14  C   UNL     1      -2.318   0.586   0.076  0.00  0.00    +0.045 C 
ATOM     15  H   UNL     1      -1.098  -0.695   1.711  0.00  0.00    +0.155 HD
ENDBRANCH   1  11
BRANCH   1  16
ATOM     16  N   UNL     1      -2.777  -1.802   5.239  0.00  0.00    -0.290 NA
ATOM     17  C   UNL     1      -3.450  -0.831   4.363  0.00  0.00    +0.090 C 
ATOM     18  C   UNL     1      -4.395  -1.590   3.431  0.00  0.00    +0.051 C 
ATOM     19  C   UNL     1      -5.269  -2.522   4.232  0.00  0.00    -0.042 A 
ATOM     20  C   UNL     1      -6.416  -3.027   3.639  0.00  0.00    +0.004 A 
ATOM     21  C   UNL     1      -7.241  -3.886   4.336  0.00  0.00    +0.000 A 
ATOM     22  C   UNL     1      -6.922  -4.245   5.633  0.00  0.00    +0.000 A 
ATOM     23  C   UNL     1      -5.782  -3.742   6.224  0.00  0.00    +0.005 A 
ATOM     24  C   UNL     1      -4.952  -2.876   5.526  0.00  0.00    -0.030 A 
ATOM     25  C   UNL     1      -3.725  -2.345   6.218  0.00  0.00    +0.120 C 
ENDBRANCH   1  16
BRANCH   1  26
ATOM     26  C   UNL     1      -0.579  -2.275   6.208  0.00  0.00    +0.214 C 
ATOM     27  N   UNL     1       0.696  -1.667   6.635  0.00  0.00    -0.226 N 
ATOM     28  N   UNL     1       1.644  -2.058   5.682  0.00  0.00    -0.064 NA
ATOM     29  N   UNL     1       1.165  -2.764   4.800  0.00  0.00    -0.061 NA
ATOM     30  N   UNL     1      -0.207  -2.999   4.978  0.00  0.00    -0.208 N 
ATOM     31  H   UNL     1       0.847  -1.111   7.416  0.00  0.00    +0.172 HD
BRANCH  30  32
ATOM     32  C   UNL     1      -1.090  -3.795   4.122  0.00  0.00    +0.047 C 
ATOM     33  C   UNL     1      -1.676  -2.904   3.025  0.00  0.00    +0.033 C 
ATOM     34  C   UNL     1      -0.290  -4.932   3.482  0.00  0.00    +0.033 C 
ATOM     35  C   UNL     1      -2.225  -4.381   4.964  0.00  0.00    +0.033 C 
ENDBRANCH  30  32
ENDBRANCH   1  26
TORSDOF 4
