REMARK  Name = ZINC21331659
REMARK  9 active torsions:
REMARK  status: ('A' for Active; 'I' for Inactive)
REMARK    1  A    between atoms: C_1  and  C_2
REMARK    2  A    between atoms: C_5  and  N_8
REMARK    3  A    between atoms: C_9  and  C_35
REMARK    4  A    between atoms: C_10  and  N_14
REMARK    5  A    between atoms: C_11  and  C_13
REMARK    6  A    between atoms: C_15  and  C_17
REMARK    7  A    between atoms: C_17  and  S_18
REMARK    8  A    between atoms: S_18  and  C_19
REMARK    9  A    between atoms: N_29  and  C_30
REMARK                            x       y       z     vdW  Elec       q    Type
REMARK                         _______ _______ _______ _____ _____    ______ ____
ROOT
ATOM      1  N   UNL     1       0.002   1.415   2.533  0.00  0.00    -0.282 N 
ATOM      2  C   UNL     1      -0.507   1.563   1.294  0.00  0.00    +0.228 C 
ATOM      3  O   UNL     1      -1.637   1.980   1.149  0.00  0.00    -0.275 OA
ATOM      4  H   UNL     1       0.987   0.945   2.671  0.00  0.00    +0.155 HD
ENDROOT
BRANCH   1   7
ATOM      5  N   UNL     1      -1.535   2.043   5.682  0.00  0.00    -0.235 N 
ATOM      6  C   UNL     1      -0.689   1.322   4.897  0.00  0.00    +0.063 A 
ATOM      7  C   UNL     1      -0.727   1.861   3.652  0.00  0.00    +0.078 A 
ATOM      8  C   UNL     1      -1.616   2.945   3.679  0.00  0.00    +0.082 A 
ATOM      9  N   UNL     1      -2.102   3.050   4.890  0.00  0.00    -0.170 NA
ATOM     10  C   UNL     1      -1.957   3.836   2.512  0.00  0.00    +0.069 C 
ATOM     11  C   UNL     1       0.138   0.139   5.331  0.00  0.00    +0.068 C 
BRANCH   5  16
ATOM     12  C   UNL     1      -2.579   1.136  11.186  0.00  0.00    +0.044 C 
ATOM     13  C   UNL     1      -2.302   1.377   9.724  0.00  0.00    -0.050 A 
ATOM     14  C   UNL     1      -1.007   1.296   9.245  0.00  0.00    +0.005 A 
ATOM     15  C   UNL     1      -0.750   1.516   7.906  0.00  0.00    +0.028 A 
ATOM     16  C   UNL     1      -1.793   1.819   7.041  0.00  0.00    +0.066 A 
ATOM     17  C   UNL     1      -3.091   1.906   7.526  0.00  0.00    +0.028 A 
ATOM     18  C   UNL     1      -3.343   1.678   8.865  0.00  0.00    +0.005 A 
ENDBRANCH   5  16
ENDBRANCH   1   7
BRANCH   2  19
ATOM     19  C   UNL     1       0.327   1.211   0.090  0.00  0.00    +0.173 C 
BRANCH  19  20
ATOM     20  S   UNL     1      -0.628   1.517  -1.417  0.00  0.00    -0.078 S 
BRANCH  20  21
ATOM     21  C   UNL     1       0.553   1.035  -2.632  0.00  0.00    +0.173 A 
ATOM     22  N   UNL     1       1.725   0.611  -2.229  0.00  0.00    -0.223 NA
ATOM     23  C   UNL     1       2.676   0.226  -3.104  0.00  0.00    +0.079 A 
ATOM     24  C   UNL     1       3.927  -0.227  -2.675  0.00  0.00    +0.028 A 
ATOM     25  C   UNL     1       4.862  -0.606  -3.596  0.00  0.00    +0.002 A 
ATOM     26  C   UNL     1       4.588  -0.550  -4.957  0.00  0.00    +0.001 A 
ATOM     27  C   UNL     1       3.374  -0.112  -5.408  0.00  0.00    +0.015 A 
ATOM     28  C   UNL     1       2.401   0.282  -4.490  0.00  0.00    +0.065 A 
ATOM     29  C   UNL     1       1.080   0.761  -4.916  0.00  0.00    +0.263 A 
ATOM     30  O   UNL     1       0.784   0.832  -6.095  0.00  0.00    -0.267 OA
ATOM     31  N   UNL     1       0.202   1.116  -3.949  0.00  0.00    -0.284 N 
BRANCH  31  32
ATOM     32  C   UNL     1      -1.132   1.596  -4.318  0.00  0.00    +0.093 C 
ATOM     33  C   UNL     1      -1.866   0.526  -5.153  0.00  0.00    +0.025 C 
ATOM     34  C   UNL     1      -2.660   1.344  -6.203  0.00  0.00    +0.002 C 
ATOM     35  C   UNL     1      -1.682   2.492  -6.554  0.00  0.00    +0.002 C 
ATOM     36  C   UNL     1      -1.016   2.845  -5.208  0.00  0.00    +0.025 C 
ENDBRANCH  31  32
ENDBRANCH  20  21
ENDBRANCH  19  20
ENDBRANCH   2  19
TORSDOF 6
