REMARK  Name = ZINC00122775
REMARK  5 active torsions:
REMARK  status: ('A' for Active; 'I' for Inactive)
REMARK    1  A    between atoms: C_1  and  C_2
REMARK    2  A    between atoms: C_6  and  C_9
REMARK    3  A    between atoms: C_10  and  C_11
REMARK    4  A    between atoms: C_10  and  N_47
REMARK    5  A    between atoms: C_12  and  O_25
REMARK                            x       y       z     vdW  Elec       q    Type
REMARK                         _______ _______ _______ _____ _____    ______ ____
ROOT
ATOM      1  C   UNL     1      -3.358   6.080  -1.210  0.00  0.00    +0.020 A 
ATOM      2  C   UNL     1      -3.392   6.122  -2.595  0.00  0.00    +0.122 A 
ATOM      3  C   UNL     1      -2.817   5.100  -3.348  0.00  0.00    +0.046 A 
ATOM      4  C   UNL     1      -2.213   4.043  -2.732  0.00  0.00    +0.015 A 
ATOM      5  C   UNL     1      -2.169   3.985  -1.334  0.00  0.00    +0.021 A 
ATOM      6  C   UNL     1      -2.748   5.014  -0.568  0.00  0.00    +0.144 A 
ATOM      7  O   UNL     1      -2.704   4.952   0.780  0.00  0.00    -0.422 OA
ATOM      8  C   UNL     1      -2.117   3.926   1.415  0.00  0.00    +0.341 A 
ATOM      9  O   UNL     1      -2.103   3.914   2.633  0.00  0.00    -0.245 OA
ATOM     10  C   UNL     1      -1.516   2.858   0.711  0.00  0.00    +0.041 A 
ATOM     11  C   UNL     1      -1.527   2.863  -0.646  0.00  0.00    -0.027 A 
ATOM     12  C   UNL     1      -0.831   1.633  -1.182  0.00  0.00    +0.036 C 
ATOM     13  C   UNL     1      -0.013   1.086   0.008  0.00  0.00    +0.010 C 
ATOM     14  C   UNL     1      -0.808   1.620   1.219  0.00  0.00    +0.043 C 
ENDROOT
BRANCH   2  15
ATOM     15  O   UNL     1      -3.989   7.167  -3.223  0.00  0.00    -0.506 OA
ATOM     16  H   UNL     1      -3.394   7.905  -3.410  0.00  0.00    +0.292 HD
ENDBRANCH   2  15
BRANCH   1  17
ATOM     17  C   UNL     1      -3.982   7.191  -0.405  0.00  0.00    -0.035 C 
BRANCH  17  25
ATOM     18  C   UNL     1      -1.965  10.917  -0.748  0.00  0.00    +0.036 C 
ATOM     19  C   UNL     1      -2.538  10.518   0.613  0.00  0.00    +0.099 C 
ATOM     20  C   UNL     1      -3.605   9.436   0.421  0.00  0.00    -0.047 C 
ATOM     21  C   UNL     1      -1.910   7.737   0.724  0.00  0.00    -0.047 C 
ATOM     22  C   UNL     1      -0.860   8.835   0.912  0.00  0.00    +0.099 C 
ATOM     23  O   UNL     1      -1.491  10.005   1.441  0.00  0.00    -0.378 OA
ATOM     24  C   UNL     1       0.216   8.351   1.886  0.00  0.00    +0.036 C 
ATOM     25  N   UNL     1      -2.969   8.243  -0.175  0.00  0.00    +0.386 N 
ATOM     26  H   UNL     1      -2.547   8.503  -1.074  0.00  0.00    -0.081 HD
ENDBRANCH  17  25
ENDBRANCH   1  17
TORSDOF 3
