REMARK  Name = ZINC32511854
REMARK  4 active torsions:
REMARK  status: ('A' for Active; 'I' for Inactive)
REMARK    1  A    between atoms: C_1  and  C_2
REMARK    2  A    between atoms: C_5  and  C_7
REMARK    3  A    between atoms: C_7  and  N_8
REMARK    4  A    between atoms: N_8  and  C_9
REMARK                            x       y       z     vdW  Elec       q    Type
REMARK                         _______ _______ _______ _____ _____    ______ ____
ROOT
ATOM      1  N   UNL     1      -1.320  -3.281   2.671  0.00  0.00    -0.311 N 
ATOM      2  C   UNL     1      -2.117  -4.382   2.123  0.00  0.00    +0.131 C 
ATOM      3  C   UNL     1      -1.778  -2.575   3.760  0.00  0.00    +0.137 A 
ATOM      4  C   UNL     1      -2.992  -2.978   4.467  0.00  0.00    +0.078 A 
ATOM      5  C   UNL     1      -3.924  -3.984   4.341  0.00  0.00    +0.118 A 
ATOM      6  N   UNL     1      -4.832  -3.825   5.313  0.00  0.00    -0.282 N 
ATOM      7  N   UNL     1      -4.507  -2.707   6.091  0.00  0.00    -0.154 NA
ATOM      8  C   UNL     1      -3.406  -2.163   5.622  0.00  0.00    +0.188 A 
ATOM      9  N   UNL     1      -2.641  -1.103   5.948  0.00  0.00    -0.193 NA
ATOM     10  C   UNL     1      -1.562  -0.810   5.255  0.00  0.00    +0.216 A 
ATOM     11  N   UNL     1      -1.131  -1.509   4.209  0.00  0.00    -0.199 NA
ATOM     12  N   UNL     1      -0.823   0.292   5.646  0.00  0.00    -0.327 N 
ATOM     13  H   UNL     1      -1.106   0.821   6.408  0.00  0.00    +0.145 HD
ATOM     14  H   UNL     1      -0.021   0.536   5.157  0.00  0.00    +0.145 HD
ATOM     15  H   UNL     1      -5.601  -4.398   5.455  0.00  0.00    +0.188 HD
ENDROOT
BRANCH   1  16
ATOM     16  C   UNL     1      -0.036  -2.931   2.059  0.00  0.00    +0.169 C 
BRANCH  16  21
ATOM     17  C   UNL     1      -0.455   1.682   0.166  0.00  0.00    +0.066 C 
ATOM     18  C   UNL     1      -0.462   0.180   0.045  0.00  0.00    +0.046 A 
ATOM     19  C   UNL     1      -0.685  -0.436  -1.144  0.00  0.00    +0.070 A 
ATOM     20  S   UNL     1      -0.571  -2.149  -0.654  0.00  0.00    -0.079 S 
ATOM     21  C   UNL     1      -0.257  -1.901   0.981  0.00  0.00    +0.096 A 
ATOM     22  N   UNL     1      -0.245  -0.596   1.089  0.00  0.00    -0.248 NA
ENDBRANCH  16  21
ENDBRANCH   1  16
TORSDOF 2
