REMARK  Name = ZINC54191638
REMARK  9 active torsions:
REMARK  status: ('A' for Active; 'I' for Inactive)
REMARK    1  A    between atoms: C_1  and  C_2
REMARK    2  A    between atoms: C_2  and  C_3
REMARK    3  A    between atoms: C_3  and  C_25
REMARK    4  A    between atoms: N_6  and  C_10
REMARK    5  A    between atoms: C_10  and  C_11
REMARK    6  A    between atoms: N_13  and  C_14
REMARK    7  A    between atoms: C_14  and  C_15
REMARK    8  A    between atoms: N_17  and  C_18
REMARK    9  A    between atoms: C_25  and  C_26
REMARK                            x       y       z     vdW  Elec       q    Type
REMARK                         _______ _______ _______ _____ _____    ______ ____
ROOT
ATOM      1  C   UNL     1       1.095   0.474   5.559  0.00  0.00    +0.231 C 
ATOM      2  O   UNL     1       1.526  -0.634   5.319  0.00  0.00    -0.274 OA
ATOM      3  N   UNL     1       0.961   0.883   6.836  0.00  0.00    -0.305 N 
ATOM      4  H   UNL     1       0.617   1.770   7.027  0.00  0.00    +0.149 HD
ENDROOT
BRANCH   1   5
ATOM      5  C   UNL     1       0.712   1.394   4.428  0.00  0.00    +0.213 C 
BRANCH   5   9
ATOM      6  C   UNL     1       0.717  -0.517   1.244  0.00  0.00    +0.112 C 
ATOM      7  C   UNL     1       0.035  -0.034   2.509  0.00  0.00    +0.247 C 
ATOM      8  O   UNL     1      -1.096  -0.276   2.870  0.00  0.00    -0.273 OA
ATOM      9  N   UNL     1       0.950   0.721   3.149  0.00  0.00    -0.215 N 
ATOM     10  C   UNL     1       2.102   0.781   2.471  0.00  0.00    +0.310 C 
ATOM     11  O   UNL     1       3.076   1.402   2.849  0.00  0.00    -0.252 OA
ATOM     12  N   UNL     1       2.062   0.077   1.326  0.00  0.00    -0.285 N 
ATOM     13  H   UNL     1       2.779  -0.021   0.680  0.00  0.00    +0.151 HD
BRANCH   6  15
ATOM     14  C   UNL     1      -0.033   1.523   0.012  0.00  0.00    +0.006 C 
ATOM     15  C   UNL     1      -0.023  -0.007   0.005  0.00  0.00    +0.032 C 
ENDBRANCH   6  15
BRANCH   6  16
ATOM     16  C   UNL     1       0.803  -2.045   1.225  0.00  0.00    +0.032 C 
ATOM     17  C   UNL     1       1.546  -2.529   2.473  0.00  0.00    +0.006 C 
ENDBRANCH   6  16
ENDBRANCH   5   9
ENDBRANCH   1   5
BRANCH   3  18
ATOM     18  C   UNL     1       1.334  -0.011   7.934  0.00  0.00    +0.200 C 
BRANCH  18  19
ATOM     19  C   UNL     1       1.089   0.681   9.251  0.00  0.00    +0.234 C 
ATOM     20  O   UNL     1       0.646   1.810   9.269  0.00  0.00    -0.274 OA
ATOM     21  N   UNL     1       1.362   0.045  10.407  0.00  0.00    -0.284 N 
ATOM     22  H   UNL     1       1.652  -0.880  10.395  0.00  0.00    +0.155 HD
BRANCH  21  23
ATOM     23  C   UNL     1       1.226   0.721  11.626  0.00  0.00    +0.034 A 
ATOM     24  C   UNL     1       2.105   0.458  12.668  0.00  0.00    +0.025 A 
ATOM     25  C   UNL     1       1.969   1.125  13.870  0.00  0.00    +0.022 A 
ATOM     26  C   UNL     1       0.958   2.056  14.035  0.00  0.00    +0.041 A 
ATOM     27  C   UNL     1       0.081   2.320  12.998  0.00  0.00    +0.022 A 
ATOM     28  C   UNL     1       0.216   1.659  11.793  0.00  0.00    +0.025 A 
ATOM     29 CL   UNL     1       0.789   2.893  15.546  0.00  0.00    -0.084 Cl
ENDBRANCH  21  23
ENDBRANCH  18  19
ENDBRANCH   3  18
TORSDOF 7
