REMARK  Name = ZINC12375009
REMARK  3 active torsions:
REMARK  status: ('A' for Active; 'I' for Inactive)
REMARK    1  A    between atoms: C_5  and  C_6
REMARK    2  A    between atoms: C_8  and  C_19
REMARK    3  A    between atoms: C_9  and  N_18
REMARK                            x       y       z     vdW  Elec       q    Type
REMARK                         _______ _______ _______ _____ _____    ______ ____
ROOT
ATOM      1  C   UNL     1      -1.179  -2.186   0.008  0.00  0.00    +0.108 C 
ATOM      2  C   UNL     1      -1.171  -0.683   0.015  0.00  0.00    +0.099 C 
ATOM      3  C   UNL     1       0.002  -0.004   0.002  0.00  0.00    +0.198 C 
ATOM      4  O   UNL     1       1.181  -0.645  -0.013  0.00  0.00    -0.445 OA
ATOM      5  C   UNL     1       1.256  -1.922   0.407  0.00  0.00    +0.115 C 
ATOM      6  C   UNL     1       0.168  -2.712   0.444  0.00  0.00    +0.046 C 
ATOM      7  C   UNL     1       0.246  -4.046   0.888  0.00  0.00    +0.163 C 
ATOM      8  O   UNL     1      -0.754  -4.735   0.888  0.00  0.00    -0.292 OA
ATOM      9  C   UNL     1       1.547  -4.633   1.365  0.00  0.00    +0.080 C 
ATOM     10  C   UNL     1       2.424  -3.507   1.924  0.00  0.00    +0.016 C 
ATOM     11  C   UNL     1       2.606  -2.449   0.834  0.00  0.00    +0.075 C 
ENDROOT
BRANCH   1  16
ATOM     12  C   UNL     1      -2.515  -3.452  -1.806  0.00  0.00    +0.013 A 
ATOM     13  C   UNL     1      -2.597  -3.786  -3.146  0.00  0.00    +0.028 A 
ATOM     14  C   UNL     1      -1.634  -3.343  -3.993  0.00  0.00    +0.078 A 
ATOM     15  S   UNL     1      -0.573  -2.417  -2.895  0.00  0.00    -0.081 S 
ATOM     16  C   UNL     1      -1.483  -2.683  -1.382  0.00  0.00    +0.004 A 
ATOM     17 CL   UNL     1      -1.475  -3.608  -5.701  0.00  0.00    -0.076 Cl
ENDBRANCH   1  16
BRANCH   3  18
ATOM     18  N   UNL     1      -0.017   1.369   0.010  0.00  0.00    -0.328 N 
ATOM     19  H   UNL     1       0.817   1.865   0.004  0.00  0.00    +0.145 HD
ATOM     20  H   UNL     1      -0.863   1.842   0.016  0.00  0.00    +0.145 HD
ENDBRANCH   3  18
BRANCH   2  21
ATOM     21  C   UNL     1      -2.409   0.035   0.031  0.00  0.00    +0.101 C 
ATOM     22  N   UNL     1      -3.392   0.605   0.044  0.00  0.00    -0.191 NA
ENDBRANCH   2  21
TORSDOF 3
