REMARK  Name = ZINC04767406
REMARK  6 active torsions:
REMARK  status: ('A' for Active; 'I' for Inactive)
REMARK    1  A    between atoms: C_1  and  C_2
REMARK    2  A    between atoms: C_2  and  C_4
REMARK    3  A    between atoms: C_2  and  O_11
REMARK    4  A    between atoms: N_9  and  C_10
REMARK    5  A    between atoms: O_11  and  C_12
REMARK    6  A    between atoms: C_12  and  C_14
REMARK                            x       y       z     vdW  Elec       q    Type
REMARK                         _______ _______ _______ _____ _____    ______ ____
ROOT
ATOM      1  C   UNL     1      -0.019   1.526   0.010  0.00  0.00    +0.062 C 
ATOM      2  C   UNL     1       0.002  -0.004   0.002  0.00  0.00    +0.259 C 
ENDROOT
BRANCH   2   3
ATOM      3  C   UNL     1       0.707  -0.490  -1.238  0.00  0.00    +0.261 C 
ATOM      4  O   UNL     1       1.753  -1.097  -1.142  0.00  0.00    -0.271 OA
ATOM      5  N   UNL     1       0.176  -0.250  -2.453  0.00  0.00    -0.237 N 
ATOM      6  C   UNL     1       0.807  -0.685  -3.562  0.00  0.00    +0.306 C 
ATOM      7  O   UNL     1       1.855  -1.293  -3.466  0.00  0.00    -0.252 OA
ATOM      8  N   UNL     1       0.276  -0.445  -4.777  0.00  0.00    -0.302 N 
ATOM      9  C   UNL     1       0.962  -0.917  -5.983  0.00  0.00    +0.129 C 
ATOM     10  H   UNL     1      -0.660   0.235  -2.530  0.00  0.00    +0.159 HD
ATOM     11  H   UNL     1      -0.560   0.041  -4.854  0.00  0.00    +0.150 HD
ENDBRANCH   2   3
BRANCH   2  12
ATOM     12  O   UNL     1       0.704  -0.485   1.178  0.00  0.00    -0.448 OA
BRANCH  12  13
ATOM     13  C   UNL     1      -0.033  -0.705   2.284  0.00  0.00    +0.360 C 
ATOM     14  O   UNL     1      -1.230  -0.501   2.265  0.00  0.00    -0.243 OA
BRANCH  13  15
ATOM     15  C   UNL     1       0.615  -1.196   3.520  0.00  0.00    +0.167 A 
ATOM     16  C   UNL     1      -0.154  -1.421   4.661  0.00  0.00    +0.073 A 
ATOM     17  C   UNL     1       0.468  -1.882   5.813  0.00  0.00    +0.025 A 
ATOM     18  C   UNL     1       1.835  -2.100   5.783  0.00  0.00    +0.041 A 
ATOM     19  C   UNL     1       2.538  -1.854   4.612  0.00  0.00    +0.130 A 
ATOM     20  N   UNL     1       1.923  -1.423   3.533  0.00  0.00    -0.227 NA
ATOM     21 CL   UNL     1       4.252  -2.126   4.570  0.00  0.00    -0.062 Cl
ATOM     22 CL   UNL     1      -1.866  -1.131   4.641  0.00  0.00    -0.081 Cl
ENDBRANCH  13  15
ENDBRANCH  12  13
ENDBRANCH   2  12
TORSDOF 4
