REMARK  Name = ZINC20534154
REMARK  11 active torsions:
REMARK  status: ('A' for Active; 'I' for Inactive)
REMARK    1  A    between atoms: C_1  and  N_2
REMARK    2  A    between atoms: N_2  and  C_3
REMARK    3  A    between atoms: N_2  and  C_17
REMARK    4  A    between atoms: C_3  and  C_4
REMARK    5  A    between atoms: N_8  and  C_9
REMARK    6  A    between atoms: C_12  and  O_15
REMARK    7  A    between atoms: O_15  and  C_16
REMARK    8  A    between atoms: C_17  and  C_18
REMARK    9  A    between atoms: N_21  and  C_24
REMARK   10  A    between atoms: C_24  and  C_25
REMARK   11  A    between atoms: C_25  and  C_26
REMARK                            x       y       z     vdW  Elec       q    Type
REMARK                         _______ _______ _______ _____ _____    ______ ____
ROOT
ATOM      1  C   UNL     1      -3.602   3.871   0.205  0.00  0.00    +0.105 C 
ATOM      2  N   UNL     1      -4.495   3.448   1.292  0.00  0.00    -0.298 NA
ENDROOT
BRANCH   2   3
ATOM      3  C   UNL     1      -4.051   2.174   1.873  0.00  0.00    +0.157 C 
BRANCH   3   4
ATOM      4  C   UNL     1      -4.212   1.074   0.855  0.00  0.00    +0.106 A 
ATOM      5  N   UNL     1      -3.275   0.623   0.066  0.00  0.00    -0.348 N 
ATOM      6  C   UNL     1      -3.776  -0.353  -0.705  0.00  0.00    +0.102 A 
ATOM      7  C   UNL     1      -5.073  -0.521  -0.382  0.00  0.00    +0.110 A 
ATOM      8  N   UNL     1      -5.356   0.387   0.605  0.00  0.00    -0.304 N 
ATOM      9  H   UNL     1      -2.264   1.052   0.112  0.00  0.00    +0.166 HD
BRANCH   8  10
ATOM     10  C   UNL     1      -6.594   0.568   1.242  0.00  0.00    +0.048 A 
ATOM     11  C   UNL     1      -7.726   0.851   0.490  0.00  0.00    +0.030 A 
ATOM     12  C   UNL     1      -8.945   1.023   1.117  0.00  0.00    +0.047 A 
ATOM     13  C   UNL     1      -9.037   0.918   2.497  0.00  0.00    +0.120 A 
ATOM     14  C   UNL     1      -7.905   0.641   3.249  0.00  0.00    +0.047 A 
ATOM     15  C   UNL     1      -6.686   0.469   2.623  0.00  0.00    +0.030 A 
BRANCH  13  16
ATOM     16  O   UNL     1     -10.237   1.087   3.113  0.00  0.00    -0.495 OA
ATOM     17  C   UNL     1     -10.258   0.965   4.536  0.00  0.00    +0.277 C 
ENDBRANCH  13  16
ENDBRANCH   8  10
ENDBRANCH   3   4
ENDBRANCH   2   3
BRANCH   2  18
ATOM     18  C   UNL     1      -4.600   4.489   2.323  0.00  0.00    +0.088 C 
BRANCH  18  19
ATOM     19  C   UNL     1      -5.441   5.651   1.791  0.00  0.00    -0.000 C 
ATOM     20  C   UNL     1      -5.494   6.766   2.839  0.00  0.00    -0.014 C 
ATOM     21  C   UNL     1      -6.386   7.899   2.326  0.00  0.00    -0.079 C 
ATOM     22  N   UNL     1      -7.736   7.382   2.068  0.00  0.00    +0.380 N 
ATOM     23  C   UNL     1      -7.716   6.343   1.030  0.00  0.00    -0.079 C 
ATOM     24  C   UNL     1      -6.864   5.163   1.504  0.00  0.00    -0.014 C 
ATOM     25  H   UNL     1      -8.102   6.922   2.997  0.00  0.00    -0.082 HD
BRANCH  22  26
ATOM     26  C   UNL     1      -8.655   8.469   1.707  0.00  0.00    -0.074 C 
BRANCH  26  27
ATOM     27  C   UNL     1      -8.840   9.401   2.906  0.00  0.00    +0.016 C 
BRANCH  27  28
ATOM     28  C   UNL     1      -9.783  10.516   2.536  0.00  0.00    -0.049 A 
ATOM     29  C   UNL     1      -9.288  11.691   2.001  0.00  0.00    +0.006 A 
ATOM     30  C   UNL     1     -10.153  12.712   1.656  0.00  0.00    +0.038 A 
ATOM     31  C   UNL     1     -11.515  12.563   1.857  0.00  0.00    +0.123 A 
ATOM     32  C   UNL     1     -12.009  11.388   2.398  0.00  0.00    +0.038 A 
ATOM     33  C   UNL     1     -11.143  10.366   2.737  0.00  0.00    +0.006 A 
ATOM     34  F   UNL     1     -12.361  13.563   1.525  0.00  0.00    -0.205 F 
ENDBRANCH  27  28
ENDBRANCH  26  27
ENDBRANCH  22  26
ENDBRANCH  18  19
ENDBRANCH   2  18
TORSDOF 9
