REMARK  Name = ZINC38520260
REMARK  6 active torsions:
REMARK  status: ('A' for Active; 'I' for Inactive)
REMARK    1  A    between atoms: C_1  and  C_2
REMARK    2  A    between atoms: C_2  and  O_3
REMARK    3  A    between atoms: O_3  and  C_4
REMARK    4  A    between atoms: C_4  and  C_6
REMARK    5  A    between atoms: N_12  and  C_14
REMARK    6  A    between atoms: C_19  and  C_21
REMARK                            x       y       z     vdW  Elec       q    Type
REMARK                         _______ _______ _______ _____ _____    ______ ____
ROOT
ATOM      1  C   UNL     1      -2.869  -2.424   0.016  0.00  0.00    +0.327 C 
ATOM      2  O   UNL     1      -3.841  -1.698   0.030  0.00  0.00    -0.263 OA
ATOM      3  N   UNL     1      -3.027  -3.763   0.011  0.00  0.00    -0.259 N 
ATOM      4  C   UNL     1      -4.312  -4.315   0.020  0.00  0.00    +0.153 A 
ATOM      5  C   UNL     1      -4.619  -5.673   0.021  0.00  0.00    +0.042 A 
ATOM      6  C   UNL     1      -5.982  -5.798   0.040  0.00  0.00    +0.129 A 
ATOM      7  N   UNL     1      -6.507  -4.558   0.039  0.00  0.00    -0.251 N 
ATOM      8  N   UNL     1      -5.444  -3.641   0.035  0.00  0.00    -0.154 NA
ATOM      9  C   UNL     1      -7.934  -4.225   0.046  0.00  0.00    +0.174 C 
ATOM     10  N   UNL     1      -6.607  -7.045   0.067  0.00  0.00    -0.270 N 
ATOM     11  C   UNL     1      -5.841  -8.136   0.277  0.00  0.00    +0.219 C 
ATOM     12  O   UNL     1      -6.328  -9.235   0.118  0.00  0.00    -0.275 OA
ATOM     13  C   UNL     1      -4.403  -8.032   0.701  0.00  0.00    +0.109 C 
ATOM     14  C   UNL     1      -3.699  -6.867  -0.002  0.00  0.00    +0.071 C 
ATOM     15  H   UNL     1      -2.250  -4.343   0.000  0.00  0.00    +0.157 HD
ATOM     16  H   UNL     1      -7.565  -7.125  -0.061  0.00  0.00    +0.156 HD
ENDROOT
BRANCH  14  17
ATOM     17  C   UNL     1      -3.393  -7.245  -1.428  0.00  0.00    -0.002 A 
ATOM     18  C   UNL     1      -2.194  -7.304  -2.057  0.00  0.00    +0.012 A 
ATOM     19  C   UNL     1      -2.152  -7.682  -3.386  0.00  0.00    +0.008 A 
ATOM     20  C   UNL     1      -3.311  -7.982  -4.021  0.00  0.00    +0.045 A 
ATOM     21  S   UNL     1      -4.515  -7.740  -2.726  0.00  0.00    -0.101 S 
ENDBRANCH  14  17
BRANCH   1  22
ATOM     22  C   UNL     1      -1.497  -1.835   0.006  0.00  0.00    +0.395 C 
ATOM     23  O   UNL     1      -0.525  -2.560  -0.007  0.00  0.00    -0.240 OA
BRANCH  22  24
ATOM     24  O   UNL     1      -1.339  -0.499   0.012  0.00  0.00    -0.458 OA
BRANCH  24  26
ATOM     25  C   UNL     1      -0.019   1.526   0.010  0.00  0.00    +0.048 C 
ATOM     26  C   UNL     1       0.002  -0.004   0.002  0.00  0.00    +0.229 C 
ENDBRANCH  24  26
ENDBRANCH  22  24
ENDBRANCH   1  22
TORSDOF 4
