REMARK  Name = ZINC21120413
REMARK  10 active torsions:
REMARK  status: ('A' for Active; 'I' for Inactive)
REMARK    1  A    between atoms: C_1  and  C_2
REMARK    2  A    between atoms: C_2  and  C_3
REMARK    3  A    between atoms: C_3  and  N_4
REMARK    4  A    between atoms: C_5  and  N_32
REMARK    5  A    between atoms: C_6  and  C_13
REMARK    6  A    between atoms: N_9  and  C_12
REMARK    7  A    between atoms: C_13  and  C_15
REMARK    8  A    between atoms: C_15  and  S_16
REMARK    9  A    between atoms: S_16  and  C_17
REMARK   10  A    between atoms: N_21  and  C_22
REMARK                            x       y       z     vdW  Elec       q    Type
REMARK                         _______ _______ _______ _____ _____    ______ ____
ROOT
ATOM      1  C   UNL     1       0.308  -1.750   4.951  0.00  0.00    +0.182 C 
ATOM      2  O   UNL     1      -0.597  -2.506   4.660  0.00  0.00    -0.291 OA
ENDROOT
BRANCH   1   5
ATOM      3  N   UNL     1      -0.121   0.937   2.464  0.00  0.00    -0.281 N 
ATOM      4  C   UNL     1      -0.320  -0.244   3.120  0.00  0.00    +0.116 A 
ATOM      5  C   UNL     1       0.472  -0.541   4.243  0.00  0.00    +0.120 A 
ATOM      6  C   UNL     1       1.471   0.452   4.659  0.00  0.00    +0.269 A 
ATOM      7  O   UNL     1       2.181   0.251   5.627  0.00  0.00    -0.267 OA
ATOM      8  N   UNL     1       1.586   1.592   3.946  0.00  0.00    -0.263 N 
ATOM      9  C   UNL     1       0.804   1.817   2.878  0.00  0.00    +0.333 A 
ATOM     10  O   UNL     1       0.939   2.857   2.264  0.00  0.00    -0.246 OA
ATOM     11  C   UNL     1       2.575   2.596   4.343  0.00  0.00    +0.157 C 
BRANCH   4  12
ATOM     12  N   UNL     1      -1.265  -1.123   2.689  0.00  0.00    -0.344 N 
ATOM     13  H   UNL     1      -1.418  -2.072   3.224  0.00  0.00    +0.144 HD
ATOM     14  H   UNL     1      -1.877  -0.884   1.807  0.00  0.00    +0.144 HD
ENDBRANCH   4  12
BRANCH   3  15
ATOM     15  C   UNL     1      -0.937   1.253   1.290  0.00  0.00    +0.128 C 
BRANCH  15  17
ATOM     16  C   UNL     1      -1.094   1.062  -1.197  0.00  0.00    +0.005 C 
ATOM     17  C   UNL     1      -0.241   0.733   0.030  0.00  0.00    +0.018 C 
ENDBRANCH  15  17
ENDBRANCH   3  15
ENDBRANCH   1   5
BRANCH   1  18
ATOM     18  C   UNL     1       1.257  -2.105   6.067  0.00  0.00    +0.157 C 
BRANCH  18  19
ATOM     19  S   UNL     1       0.788  -3.704   6.772  0.00  0.00    -0.079 S 
BRANCH  19  20
ATOM     20  C   UNL     1       2.026  -3.865   8.015  0.00  0.00    +0.174 A 
ATOM     21  N   UNL     1       2.983  -2.998   8.265  0.00  0.00    -0.226 NA
ATOM     22  C   UNL     1       3.736  -3.448   9.277  0.00  0.00    +0.064 A 
ATOM     23  C   UNL     1       3.244  -4.639   9.672  0.00  0.00    +0.047 A 
ATOM     24  N   UNL     1       2.159  -4.915   8.880  0.00  0.00    -0.291 N 
ATOM     25  C   UNL     1       3.822  -5.474  10.786  0.00  0.00    +0.056 C 
ATOM     26  C   UNL     1       5.238  -4.967  11.087  0.00  0.00    +0.007 C 
ATOM     27  C   UNL     1       5.208  -3.445  11.258  0.00  0.00    +0.007 C 
ATOM     28  C   UNL     1       4.937  -2.783   9.902  0.00  0.00    +0.057 C 
BRANCH  24  29
ATOM     29  C   UNL     1       1.343  -6.053   8.945  0.00  0.00    +0.049 A 
ATOM     30  C   UNL     1       0.576  -6.295  10.076  0.00  0.00    +0.026 A 
ATOM     31  C   UNL     1      -0.231  -7.415  10.134  0.00  0.00    +0.002 A 
ATOM     32  C   UNL     1      -0.265  -8.300   9.073  0.00  0.00    +0.000 A 
ATOM     33  C   UNL     1       0.503  -8.065   7.947  0.00  0.00    +0.002 A 
ATOM     34  C   UNL     1       1.307  -6.944   7.880  0.00  0.00    +0.026 A 
ENDBRANCH  24  29
ENDBRANCH  19  20
ENDBRANCH  18  19
ENDBRANCH   1  18
TORSDOF 8
