REMARK  Name = ZINC01505975
REMARK  6 active torsions:
REMARK  status: ('A' for Active; 'I' for Inactive)
REMARK    1  A    between atoms: C_4  and  C_7
REMARK    2  A    between atoms: C_7  and  S_8
REMARK    3  A    between atoms: S_8  and  C_9
REMARK    4  A    between atoms: C_10  and  C_22
REMARK    5  A    between atoms: C_16  and  C_20
REMARK    6  A    between atoms: C_17  and  N_19
REMARK                            x       y       z     vdW  Elec       q    Type
REMARK                         _______ _______ _______ _____ _____    ______ ____
ROOT
ATOM      1  C   UNL     1       5.786  -1.866   1.477  0.00  0.00    +0.081 C 
ATOM      2  C   UNL     1       6.478  -2.259   2.580  0.00  0.00    +0.068 C 
ATOM      3  C   UNL     1       7.779  -2.997   2.464  0.00  0.00    +0.045 C 
ATOM      4  C   UNL     1       8.786  -2.435   3.488  0.00  0.00    +0.018 C 
ATOM      5  C   UNL     1       8.654  -3.380   4.708  0.00  0.00    +0.001 C 
ATOM      6  C   UNL     1       8.459  -4.767   4.046  0.00  0.00    +0.001 C 
ATOM      7  C   UNL     1       7.571  -4.479   2.818  0.00  0.00    +0.018 C 
ATOM      8  C   UNL     1       8.350  -2.880   1.080  0.00  0.00    +0.076 C 
ATOM      9  C   UNL     1       7.589  -2.465   0.034  0.00  0.00    +0.100 C 
ATOM     10  N   UNL     1       6.265  -2.135   0.215  0.00  0.00    -0.296 N 
ATOM     11  H   UNL     1       5.668  -2.090  -0.548  0.00  0.00    +0.154 HD
ENDROOT
BRANCH   9  12
ATOM     12  N   UNL     1       8.146  -2.377  -1.219  0.00  0.00    -0.346 N 
ATOM     13  H   UNL     1       9.078  -2.611  -1.353  0.00  0.00    +0.143 HD
ATOM     14  H   UNL     1       7.608  -2.082  -1.970  0.00  0.00    +0.143 HD
ENDBRANCH   9  12
BRANCH   8  15
ATOM     15  C   UNL     1       9.725  -3.212   0.859  0.00  0.00    +0.099 C 
ATOM     16  N   UNL     1      10.816  -3.475   0.683  0.00  0.00    -0.191 NA
ENDBRANCH   8  15
BRANCH   2  17
ATOM     17  C   UNL     1       5.954  -1.961   3.880  0.00  0.00    +0.098 C 
ATOM     18  N   UNL     1       5.538  -1.725   4.910  0.00  0.00    -0.191 NA
ENDBRANCH   2  17
BRANCH   1  19
ATOM     19  S   UNL     1       4.257  -1.011   1.666  0.00  0.00    -0.104 S 
BRANCH  19  20
ATOM     20  C   UNL     1       3.711  -0.707  -0.038  0.00  0.00    +0.110 C 
BRANCH  20  24
ATOM     21  C   UNL     1      -0.017   1.378   0.010  0.00  0.00    +0.000 A 
ATOM     22  C   UNL     1       1.171   2.086   0.002  0.00  0.00    +0.000 A 
ATOM     23  C   UNL     1       2.377   1.411  -0.013  0.00  0.00    +0.004 A 
ATOM     24  C   UNL     1       2.396   0.029  -0.020  0.00  0.00    -0.037 A 
ATOM     25  C   UNL     1       1.208  -0.679  -0.012  0.00  0.00    +0.004 A 
ATOM     26  C   UNL     1       0.002  -0.004   0.002  0.00  0.00    +0.000 A 
ENDBRANCH  20  24
ENDBRANCH  19  20
ENDBRANCH   1  19
TORSDOF 6
