REMARK  Name = ZINC65237738
REMARK  6 active torsions:
REMARK  status: ('A' for Active; 'I' for Inactive)
REMARK    1  A    between atoms: C_1  and  C_2
REMARK    2  A    between atoms: C_2  and  C_4
REMARK    3  A    between atoms: C_2  and  N_12
REMARK    4  A    between atoms: C_4  and  C_5
REMARK    5  A    between atoms: C_5  and  C_6
REMARK    6  A    between atoms: C_13  and  C_15
REMARK                            x       y       z     vdW  Elec       q    Type
REMARK                         _______ _______ _______ _____ _____    ______ ____
ROOT
ATOM      1  C   UNL     1       2.716  -1.059  -2.419  0.00  0.00    +0.153 C 
ATOM      2  N   UNL     1       2.150  -1.397  -3.542  0.00  0.00    -0.166 NA
ATOM      3  N   UNL     1       3.088  -1.826  -4.490  0.00  0.00    -0.184 N 
ATOM      4  N   UNL     1       4.319  -1.976  -3.866  0.00  0.00    -0.218 N 
ATOM      5  C   UNL     1       4.205  -1.234  -2.584  0.00  0.00    +0.236 C 
ATOM      6  C   UNL     1       4.778  -2.128  -1.514  0.00  0.00    +0.246 C 
ATOM      7  O   UNL     1       4.395  -2.019  -0.368  0.00  0.00    -0.273 OA
ATOM      8  N   UNL     1       5.715  -3.047  -1.823  0.00  0.00    -0.282 N 
ATOM      9  C   UNL     1       6.192  -3.222  -3.127  0.00  0.00    +0.056 A 
ATOM     10  C   UNL     1       5.464  -2.689  -4.201  0.00  0.00    +0.071 A 
ATOM     11  C   UNL     1       5.899  -2.866  -5.496  0.00  0.00    +0.026 A 
ATOM     12  C   UNL     1       7.063  -3.577  -5.737  0.00  0.00    +0.002 A 
ATOM     13  C   UNL     1       7.784  -4.105  -4.683  0.00  0.00    +0.002 A 
ATOM     14  C   UNL     1       7.359  -3.920  -3.381  0.00  0.00    +0.025 A 
ATOM     15  H   UNL     1       2.907  -1.991  -5.428  0.00  0.00    +0.193 HD
ATOM     16  H   UNL     1       6.071  -3.608  -1.116  0.00  0.00    +0.155 HD
ENDROOT
BRANCH   1  18
ATOM     17  N   UNL     1       0.688  -0.476  -1.203  0.00  0.00    -0.308 N 
ATOM     18  C   UNL     1       2.031  -0.587  -1.215  0.00  0.00    +0.262 C 
ATOM     19  O   UNL     1       2.674  -0.294  -0.224  0.00  0.00    -0.269 OA
ATOM     20  H   UNL     1       0.175  -0.710  -1.993  0.00  0.00    +0.149 HD
BRANCH  17  22
ATOM     21  C   UNL     1      -0.019   1.526   0.010  0.00  0.00    +0.028 C 
ATOM     22  C   UNL     1       0.002  -0.004   0.002  0.00  0.00    +0.070 C 
BRANCH  22  23
ATOM     23  C   UNL     1      -1.433  -0.534   0.013  0.00  0.00    +0.026 C 
BRANCH  23  24
ATOM     24  C   UNL     1      -1.413  -2.059   0.130  0.00  0.00    +0.037 C 
BRANCH  24  25
ATOM     25  C   UNL     1      -2.827  -2.581   0.141  0.00  0.00    -0.047 A 
ATOM     26  C   UNL     1      -3.502  -2.723   1.339  0.00  0.00    +0.003 A 
ATOM     27  C   UNL     1      -4.799  -3.201   1.349  0.00  0.00    +0.000 A 
ATOM     28  C   UNL     1      -5.421  -3.537   0.161  0.00  0.00    +0.000 A 
ATOM     29  C   UNL     1      -4.746  -3.394  -1.037  0.00  0.00    +0.000 A 
ATOM     30  C   UNL     1      -3.451  -2.911  -1.048  0.00  0.00    +0.003 A 
ENDBRANCH  24  25
ENDBRANCH  23  24
ENDBRANCH  22  23
ENDBRANCH  17  22
ENDBRANCH   1  18
TORSDOF 5
