REMARK  Name = ZINC08792508
REMARK  10 active torsions:
REMARK  status: ('A' for Active; 'I' for Inactive)
REMARK    1  A    between atoms: C_1  and  C_2
REMARK    2  A    between atoms: C_6  and  C_8
REMARK    3  A    between atoms: N_10  and  C_11
REMARK    4  A    between atoms: C_11  and  C_12
REMARK    5  A    between atoms: C_15  and  S_24
REMARK    6  A    between atoms: N_16  and  C_17
REMARK    7  A    between atoms: C_21  and  C_23
REMARK    8  A    between atoms: S_24  and  C_25
REMARK    9  A    between atoms: C_25  and  C_26
REMARK   10  A    between atoms: C_32  and  C_34
REMARK                            x       y       z     vdW  Elec       q    Type
REMARK                         _______ _______ _______ _____ _____    ______ ____
ROOT
ATOM      1  C   UNL     1      -3.461  -2.564   0.004  0.00  0.00    +0.156 A 
ATOM      2  N   UNL     1      -3.323  -3.318  -1.050  0.00  0.00    -0.132 NA
ATOM      3  N   UNL     1      -3.080  -4.530  -0.699  0.00  0.00    -0.122 NA
ATOM      4  C   UNL     1      -3.057  -4.620   0.611  0.00  0.00    +0.197 A 
ATOM      5  N   UNL     1      -3.300  -3.367   1.102  0.00  0.00    -0.273 N 
ENDROOT
BRANCH   5   6
ATOM      6  C   UNL     1      -3.370  -2.984   2.450  0.00  0.00    +0.050 A 
ATOM      7  C   UNL     1      -4.567  -2.525   2.981  0.00  0.00    +0.026 A 
ATOM      8  C   UNL     1      -4.633  -2.149   4.309  0.00  0.00    +0.002 A 
ATOM      9  C   UNL     1      -3.508  -2.231   5.108  0.00  0.00    +0.003 A 
ATOM     10  C   UNL     1      -2.314  -2.688   4.582  0.00  0.00    -0.048 A 
ATOM     11  C   UNL     1      -2.243  -3.069   3.256  0.00  0.00    +0.029 A 
ATOM     12  C   UNL     1      -1.090  -2.775   5.457  0.00  0.00    +0.044 C 
ENDBRANCH   5   6
BRANCH   1  13
ATOM     13  C   UNL     1      -3.751  -1.086   0.014  0.00  0.00    +0.181 C 
BRANCH  13  16
ATOM     14  C   UNL     1      -2.503   1.007   0.019  0.00  0.00    +0.244 C 
ATOM     15  O   UNL     1      -3.561   1.604   0.028  0.00  0.00    -0.270 OA
ATOM     16  N   UNL     1      -2.490  -0.341   0.012  0.00  0.00    -0.304 N 
ATOM     17  H   UNL     1      -1.645  -0.818   0.005  0.00  0.00    +0.149 HD
BRANCH  14  23
ATOM     18  C   UNL     1      -0.057   5.357   0.032  0.00  0.00    +0.044 C 
ATOM     19  C   UNL     1      -0.048   3.850   0.023  0.00  0.00    -0.050 A 
ATOM     20  C   UNL     1       1.155   3.167   0.008  0.00  0.00    +0.003 A 
ATOM     21  C   UNL     1       1.172   1.783   0.000  0.00  0.00    +0.001 A 
ATOM     22  C   UNL     1      -0.013   1.076   0.008  0.00  0.00    +0.013 A 
ATOM     23  C   UNL     1      -1.230   1.759   0.017  0.00  0.00    +0.037 A 
ATOM     24  C   UNL     1      -1.240   3.155   0.030  0.00  0.00    +0.016 A 
ENDBRANCH  14  23
ENDBRANCH  13  16
ENDBRANCH   1  13
BRANCH   4  25
ATOM     25  S   UNL     1      -2.768  -6.079   1.555  0.00  0.00    -0.076 S 
BRANCH  25  26
ATOM     26  C   UNL     1      -2.539  -7.279   0.219  0.00  0.00    +0.173 C 
BRANCH  26  27
ATOM     27  C   UNL     1      -2.270  -8.640   0.807  0.00  0.00    +0.229 C 
ATOM     28  O   UNL     1      -2.237  -8.785   2.011  0.00  0.00    -0.275 OA
ATOM     29  N   UNL     1      -2.067  -9.697  -0.005  0.00  0.00    -0.263 N 
ATOM     30  C   UNL     1      -1.819 -10.953   0.538  0.00  0.00    +0.188 A 
ATOM     31  N   UNL     1      -1.742 -11.323   1.804  0.00  0.00    -0.126 NA
ATOM     32  N   UNL     1      -1.507 -12.518   2.137  0.00  0.00    -0.145 NA
ATOM     33  C   UNL     1      -1.329 -13.448   1.220  0.00  0.00    +0.101 A 
ATOM     34  S   UNL     1      -1.533 -12.470  -0.264  0.00  0.00    -0.036 S 
ATOM     35  C   UNL     1      -1.040 -14.919   1.376  0.00  0.00    +0.075 C 
ATOM     36  H   UNL     1      -2.094  -9.581  -0.967  0.00  0.00    +0.157 HD
ENDBRANCH  26  27
ENDBRANCH  25  26
ENDBRANCH   4  25
TORSDOF 7
