REMARK  Name = ZINC20239084
REMARK  9 active torsions:
REMARK  status: ('A' for Active; 'I' for Inactive)
REMARK    1  A    between atoms: C_1  and  C_2
REMARK    2  A    between atoms: C_2  and  C_3
REMARK    3  A    between atoms: C_2  and  C_4
REMARK    4  A    between atoms: C_4  and  S_5
REMARK    5  A    between atoms: S_5  and  C_8
REMARK    6  A    between atoms: C_14  and  C_15
REMARK    7  A    between atoms: C_18  and  S_20
REMARK    8  A    between atoms: S_20  and  C_21
REMARK    9  A    between atoms: C_21  and  C_22
REMARK                            x       y       z     vdW  Elec       q    Type
REMARK                         _______ _______ _______ _____ _____    ______ ____
ROOT
ATOM      1  C   UNL     1       1.901  -1.352   2.988  0.00  0.00    +0.235 C 
ATOM      2  N   UNL     1       2.504  -0.620   3.880  0.00  0.00    -0.145 NA
ATOM      3  N   UNL     1       2.919  -1.154   5.082  0.00  0.00    -0.150 N 
ATOM      4  C   UNL     1       3.498  -0.436   6.149  0.00  0.00    +0.153 C 
ATOM      5  N   UNL     1       3.341   0.854   6.317  0.00  0.00    -0.283 NA
ATOM      6  C   UNL     1       4.304  -1.285   7.063  0.00  0.00    +0.084 C 
ATOM      7  C   UNL     1       5.439  -0.797   7.706  0.00  0.00    +0.063 C 
ATOM      8  C   UNL     1       3.839  -2.675   7.254  0.00  0.00    +0.273 C 
ATOM      9  O   UNL     1       4.113  -3.295   8.270  0.00  0.00    -0.268 OA
ATOM     10  N   UNL     1       3.103  -3.240   6.274  0.00  0.00    -0.152 NA
ATOM     11  C   UNL     1       2.720  -2.507   5.260  0.00  0.00    +0.182 C 
ATOM     12  S   UNL     1       1.849  -2.953   3.781  0.00  0.00    -0.015 S 
ATOM     13  H   UNL     1       2.804   1.363   5.690  0.00  0.00    +0.188 HD
ENDROOT
BRANCH   7  14
ATOM     14  C   UNL     1       5.951   0.457   7.364  0.00  0.00    +0.130 A 
ATOM     15  C   UNL     1       6.987   1.121   8.012  0.00  0.00    +0.050 A 
ATOM     16  C   UNL     1       7.170   2.328   7.346  0.00  0.00    +0.057 A 
ATOM     17  C   UNL     1       6.248   2.369   6.319  0.00  0.00    +0.162 A 
ATOM     18  O   UNL     1       5.529   1.236   6.341  0.00  0.00    -0.449 OA
BRANCH  17  19
ATOM     19  S   UNL     1       6.052   3.688   5.167  0.00  0.00    -0.080 S 
BRANCH  19  20
ATOM     20  C   UNL     1       4.697   3.136   4.095  0.00  0.00    +0.151 C 
BRANCH  20  21
ATOM     21  C   UNL     1       4.424   4.186   3.049  0.00  0.00    +0.115 A 
ATOM     22  C   UNL     1       4.999   4.256   1.835  0.00  0.00    +0.045 A 
ATOM     23  C   UNL     1       4.454   5.390   1.189  0.00  0.00    +0.041 A 
ATOM     24  C   UNL     1       3.579   5.945   2.047  0.00  0.00    +0.195 A 
ATOM     25  O   UNL     1       3.561   5.208   3.170  0.00  0.00    -0.467 OA
ENDBRANCH  20  21
ENDBRANCH  19  20
ENDBRANCH  17  19
ENDBRANCH   7  14
BRANCH   1  26
ATOM     26  S   UNL     1       1.285  -0.882   1.405  0.00  0.00    +0.022 S 
ATOM     27  O   UNL     1       1.132   0.529   1.480  0.00  0.00    -0.167 OA
ATOM     28  O   UNL     1       0.160  -1.722   1.190  0.00  0.00    -0.167 OA
BRANCH  26  29
ATOM     29  C   UNL     1       2.612  -1.305   0.244  0.00  0.00    +0.177 C 
BRANCH  29  31
ATOM     30  C   UNL     1       2.022   0.581  -1.284  0.00  0.00    +0.009 C 
ATOM     31  C   UNL     1       2.183  -0.937  -1.178  0.00  0.00    +0.004 C 
ATOM     32  C   UNL     1       3.249  -1.407  -2.170  0.00  0.00    +0.009 C 
ENDBRANCH  29  31
ENDBRANCH  26  29
ENDBRANCH   1  26
TORSDOF 7
