REMARK  Name = ZINC01570580
REMARK  17 active torsions:
REMARK  status: ('A' for Active; 'I' for Inactive)
REMARK    1  A    between atoms: C_1  and  C_2
REMARK    2  A    between atoms: C_4  and  N_14
REMARK    3  A    between atoms: C_8  and  N_11
REMARK    4  A    between atoms: N_11  and  C_12
REMARK    5  A    between atoms: N_11  and  C_13
REMARK    6  A    between atoms: N_14  and  C_15
REMARK    7  A    between atoms: C_15  and  C_16
REMARK    8  A    between atoms: C_16  and  C_17
REMARK    9  A    between atoms: C_17  and  C_18
REMARK   10  A    between atoms: C_18  and  C_19
REMARK   11  A    between atoms: C_19  and  C_20
REMARK   12  A    between atoms: C_20  and  N_21
REMARK   13  A    between atoms: N_21  and  C_22
REMARK   14  A    between atoms: C_24  and  C_34
REMARK   15  A    between atoms: C_29  and  N_31
REMARK   16  A    between atoms: N_31  and  C_32
REMARK   17  A    between atoms: N_31  and  C_33
REMARK                            x       y       z     vdW  Elec       q    Type
REMARK                         _______ _______ _______ _____ _____    ______ ____
ROOT
ATOM      1  C   UNL     1      -7.342   8.519   0.144  0.00  0.00    +0.002 C 
ENDROOT
BRANCH   1   2
ATOM      2  C   UNL     1      -5.991   7.802   0.134  0.00  0.00    +0.019 C 
BRANCH   2   3
ATOM      3  C   UNL     1      -6.217   6.288   0.147  0.00  0.00    +0.101 C 
BRANCH   3   4
ATOM      4  N   UNL     1      -4.923   5.601   0.138  0.00  0.00    -0.343 N 
ATOM      5  H   UNL     1      -4.101   6.116   0.126  0.00  0.00    +0.146 HD
BRANCH   4   9
ATOM      6  C   UNL     1      -7.227   1.266   0.190  0.00  0.00    +0.063 C 
ATOM      7  C   UNL     1      -5.955   2.074   0.171  0.00  0.00    +0.015 A 
ATOM      8  C   UNL     1      -6.036   3.459   0.163  0.00  0.00    +0.044 A 
ATOM      9  C   UNL     1      -4.874   4.216   0.146  0.00  0.00    +0.038 A 
ATOM     10  C   UNL     1      -3.637   3.530   0.138  0.00  0.00    +0.019 A 
ATOM     11  C   UNL     1      -2.420   4.227   0.121  0.00  0.00    +0.013 A 
ATOM     12  C   UNL     1      -1.246   3.540   0.119  0.00  0.00    +0.024 A 
ATOM     13  C   UNL     1      -1.235   2.140   0.122  0.00  0.00    +0.031 A 
ATOM     14  C   UNL     1      -2.415   1.428   0.139  0.00  0.00    +0.049 A 
ATOM     15  C   UNL     1      -3.640   2.114   0.147  0.00  0.00    +0.050 A 
ATOM     16  N   UNL     1      -4.800   1.368   0.164  0.00  0.00    -0.358 N 
ATOM     17  H   UNL     1      -4.788   0.342   0.171  0.00  0.00    +0.166 HD
BRANCH  13  18
ATOM     18  N   UNL     1      -0.018   1.460   0.114  0.00  0.00    -0.336 N 
ATOM     19  C   UNL     1       0.002  -0.005   0.123  0.00  0.00    +0.129 C 
ATOM     20  C   UNL     1       1.240   2.209   0.090  0.00  0.00    +0.129 C 
ENDBRANCH  13  18
ENDBRANCH   4   9
ENDBRANCH   3   4
ENDBRANCH   2   3
ENDBRANCH   1   2
BRANCH   1  21
ATOM     21  C   UNL     1      -7.116  10.032   0.131  0.00  0.00    +0.002 C 
BRANCH  21  22
ATOM     22  C   UNL     1      -8.468  10.750   0.141  0.00  0.00    +0.019 C 
BRANCH  22  23
ATOM     23  C   UNL     1      -8.242  12.263   0.128  0.00  0.00    +0.101 C 
BRANCH  23  24
ATOM     24  N   UNL     1      -9.536  12.950   0.137  0.00  0.00    -0.343 N 
ATOM     25  H   UNL     1     -10.358  12.436   0.149  0.00  0.00    +0.146 HD
BRANCH  24  26
ATOM     26  C   UNL     1      -9.585  14.336   0.129  0.00  0.00    +0.038 A 
ATOM     27  C   UNL     1      -8.422  15.092   0.117  0.00  0.00    +0.044 A 
ATOM     28  C   UNL     1      -8.504  16.477   0.104  0.00  0.00    +0.015 A 
ATOM     29  C   UNL     1     -10.819  16.438   0.128  0.00  0.00    +0.050 A 
ATOM     30  C   UNL     1     -10.822  15.022   0.137  0.00  0.00    +0.019 A 
ATOM     31  C   UNL     1     -12.039  14.325   0.155  0.00  0.00    +0.013 A 
ATOM     32  C   UNL     1     -13.213  15.012   0.163  0.00  0.00    +0.024 A 
ATOM     33  C   UNL     1     -13.223  16.412   0.153  0.00  0.00    +0.031 A 
ATOM     34  C   UNL     1     -12.043  17.124   0.136  0.00  0.00    +0.049 A 
ATOM     35  C   UNL     1      -7.232  17.285   0.086  0.00  0.00    +0.063 C 
ATOM     36  N   UNL     1      -9.658  17.183   0.111  0.00  0.00    -0.358 N 
ATOM     37  H   UNL     1      -9.670  18.210   0.104  0.00  0.00    +0.166 HD
BRANCH  33  38
ATOM     38  N   UNL     1     -14.440  17.093   0.161  0.00  0.00    -0.336 N 
ATOM     39  C   UNL     1     -14.461  18.553   0.279  0.00  0.00    +0.129 C 
ATOM     40  C   UNL     1     -15.697  16.348   0.052  0.00  0.00    +0.129 C 
ENDBRANCH  33  38
ENDBRANCH  24  26
ENDBRANCH  23  24
ENDBRANCH  22  23
ENDBRANCH  21  22
ENDBRANCH   1  21
TORSDOF 11
