REMARK  Name = ZINC35544717
REMARK  7 active torsions:
REMARK  status: ('A' for Active; 'I' for Inactive)
REMARK    1  A    between atoms: C_1  and  C_2
REMARK    2  A    between atoms: C_10  and  C_12
REMARK    3  A    between atoms: C_17  and  N_37
REMARK    4  A    between atoms: N_25  and  C_28
REMARK    5  A    between atoms: C_28  and  C_29
REMARK    6  A    between atoms: C_29  and  O_30
REMARK    7  A    between atoms: O_30  and  C_31
REMARK                            x       y       z     vdW  Elec       q    Type
REMARK                         _______ _______ _______ _____ _____    ______ ____
ROOT
ATOM      1  C   UNL     1       1.317  -4.047  -4.495  0.00  0.00    +0.098 C 
ATOM      2  C   UNL     1       2.577  -4.456  -3.733  0.00  0.00    +0.051 C 
ATOM      3  C   UNL     1       3.793  -3.958  -4.471  0.00  0.00    -0.023 A 
ATOM      4  C   UNL     1       4.962  -3.726  -3.768  0.00  0.00    +0.038 A 
ATOM      5  C   UNL     1       6.087  -3.265  -4.425  0.00  0.00    +0.127 A 
ATOM      6  C   UNL     1       6.048  -3.033  -5.788  0.00  0.00    +0.034 A 
ATOM      7  C   UNL     1       4.886  -3.266  -6.495  0.00  0.00    +0.025 A 
ATOM      8  C   UNL     1       3.752  -3.733  -5.836  0.00  0.00    +0.033 A 
ATOM      9  N   UNL     1       2.588  -3.971  -6.584  0.00  0.00    -0.329 N 
ATOM     10  C   UNL     1       1.413  -4.540  -5.943  0.00  0.00    +0.069 C 
ATOM     11  C   UNL     1       0.114  -4.214  -6.662  0.00  0.00    -0.055 C 
ATOM     12  N   UNL     1       0.272  -4.242  -8.116  0.00  0.00    +0.384 N 
ATOM     13  C   UNL     1       1.253  -3.220  -8.508  0.00  0.00    -0.059 C 
ATOM     14  C   UNL     1       2.630  -3.657  -8.015  0.00  0.00    +0.087 C 
ATOM     15  H   UNL     1       0.599  -5.153  -8.403  0.00  0.00    -0.082 HD
ENDROOT
BRANCH   1  25
ATOM     16  C   UNL     1      -1.950   1.337  -0.863  0.00  0.00    +0.109 C 
ATOM     17  C   UNL     1      -1.911  -0.168  -0.916  0.00  0.00    +0.213 C 
ATOM     18  O   UNL     1      -2.356  -0.819   0.005  0.00  0.00    -0.276 OA
ATOM     19  N   UNL     1      -1.380  -0.791  -1.987  0.00  0.00    -0.299 N 
ATOM     20  C   UNL     1      -0.831  -0.015  -3.108  0.00  0.00    +0.126 C 
ATOM     21  C   UNL     1       0.619  -0.455  -3.345  0.00  0.00    +0.126 C 
ATOM     22  N   UNL     1       0.659  -1.923  -3.413  0.00  0.00    -0.298 N 
ATOM     23  C   UNL     1       0.109  -2.699  -2.292  0.00  0.00    +0.126 C 
ATOM     24  C   UNL     1      -1.335  -2.258  -2.053  0.00  0.00    +0.126 C 
ATOM     25  C   UNL     1       1.189  -2.545  -4.484  0.00  0.00    +0.221 C 
ATOM     26  O   UNL     1       1.563  -1.897  -5.439  0.00  0.00    -0.275 OA
ENDBRANCH   1  25
BRANCH   5  27
ATOM     27  N   UNL     1       7.335  -3.017  -3.669  0.00  0.00    +0.056 N 
ATOM     28  O   UNL     1       7.370  -3.219  -2.478  0.00  0.00    -0.126 OA
ATOM     29  O   UNL     1       8.319  -2.614  -4.243  0.00  0.00    -0.126 OA
ENDBRANCH   5  27
BRANCH  12  30
ATOM     30  C   UNL     1      -1.019  -3.957  -8.757  0.00  0.00    -0.037 C 
BRANCH  30  31
ATOM     31  C   UNL     1      -0.881  -4.109 -10.273  0.00  0.00    +0.210 C 
BRANCH  31  32
ATOM     32  O   UNL     1      -0.595  -5.473 -10.590  0.00  0.00    -0.494 OA
BRANCH  32  33
ATOM     33  C   UNL     1      -0.441  -5.781 -11.905  0.00  0.00    +0.120 A 
ATOM     34  C   UNL     1      -0.557  -4.790 -12.869  0.00  0.00    +0.045 A 
ATOM     35  C   UNL     1      -0.400  -5.106 -14.204  0.00  0.00    +0.004 A 
ATOM     36  C   UNL     1      -0.127  -6.408 -14.581  0.00  0.00    +0.000 A 
ATOM     37  C   UNL     1      -0.011  -7.398 -13.622  0.00  0.00    +0.004 A 
ATOM     38  C   UNL     1      -0.161  -7.086 -12.284  0.00  0.00    +0.045 A 
ENDBRANCH  32  33
ENDBRANCH  31  32
ENDBRANCH  30  31
ENDBRANCH  12  30
TORSDOF 6
