REMARK  Name = ZINC13737224
REMARK  12 active torsions:
REMARK  status: ('A' for Active; 'I' for Inactive)
REMARK    1  A    between atoms: C_1  and  C_2
REMARK    2  A    between atoms: C_2  and  C_3
REMARK    3  A    between atoms: C_2  and  C_4
REMARK    4  A    between atoms: C_8  and  C_33
REMARK    5  A    between atoms: C_9  and  N_10
REMARK    6  A    between atoms: N_13  and  C_14
REMARK    7  A    between atoms: C_14  and  C_15
REMARK    8  A    between atoms: C_15  and  C_17
REMARK    9  A    between atoms: C_15  and  N_23
REMARK   10  A    between atoms: C_24  and  C_26
REMARK   11  A    between atoms: C_33  and  C_34
REMARK   12  A    between atoms: C_33  and  C_35
REMARK                            x       y       z     vdW  Elec       q    Type
REMARK                         _______ _______ _______ _____ _____    ______ ____
ROOT
ATOM      1  C   UNL     1       0.131   2.593   0.168  0.00  0.00    +0.132 C 
ENDROOT
BRANCH   1   5
ATOM      2  N   UNL     1      -0.981   1.583   3.524  0.00  0.00    -0.269 N 
ATOM      3  C   UNL     1      -0.187   1.918   2.488  0.00  0.00    +0.304 C 
ATOM      4  O   UNL     1       1.020   1.940   2.629  0.00  0.00    -0.253 OA
ATOM      5  N   UNL     1      -0.732   2.228   1.295  0.00  0.00    -0.297 N 
ATOM      6  H   UNL     1      -1.939   1.507   3.396  0.00  0.00    +0.156 HD
ATOM      7  H   UNL     1      -1.695   2.211   1.182  0.00  0.00    +0.150 HD
BRANCH   2  13
ATOM      8  C   UNL     1       0.528   0.344   4.947  0.00  0.00    -0.023 A 
ATOM      9  C   UNL     1       1.081   0.114   6.191  0.00  0.00    +0.006 A 
ATOM     10  C   UNL     1       0.682   0.871   7.277  0.00  0.00    +0.001 A 
ATOM     11  C   UNL     1      -0.268   1.863   7.121  0.00  0.00    +0.006 A 
ATOM     12  C   UNL     1      -0.821   2.102   5.878  0.00  0.00    -0.023 A 
ATOM     13  C   UNL     1      -0.422   1.344   4.785  0.00  0.00    +0.042 A 
BRANCH   8  15
ATOM     14  C   UNL     1       2.484  -0.444   3.642  0.00  0.00    +0.012 C 
ATOM     15  C   UNL     1       0.960  -0.485   3.764  0.00  0.00    +0.015 C 
ATOM     16  C   UNL     1       0.503  -1.932   3.963  0.00  0.00    +0.012 C 
ENDBRANCH   8  15
BRANCH  12  17
ATOM     17  C   UNL     1      -1.857   3.183   5.708  0.00  0.00    +0.015 C 
ATOM     18  C   UNL     1      -3.064   2.878   6.597  0.00  0.00    +0.012 C 
ATOM     19  C   UNL     1      -1.256   4.532   6.109  0.00  0.00    +0.012 C 
ENDBRANCH  12  17
ENDBRANCH   2  13
ENDBRANCH   1   5
BRANCH   1  20
ATOM     20  C   UNL     1      -0.732   2.897  -1.058  0.00  0.00    +0.121 C 
BRANCH  20  21
ATOM     21  C   UNL     1       0.145   3.389  -2.180  0.00  0.00    -0.026 A 
ATOM     22  C   UNL     1       0.567   4.705  -2.200  0.00  0.00    +0.005 A 
ATOM     23  C   UNL     1       1.375   5.156  -3.228  0.00  0.00    +0.000 A 
ATOM     24  C   UNL     1       1.754   4.293  -4.239  0.00  0.00    +0.000 A 
ATOM     25  C   UNL     1       1.327   2.978  -4.221  0.00  0.00    +0.000 A 
ATOM     26  C   UNL     1       0.523   2.526  -3.192  0.00  0.00    +0.005 A 
ENDBRANCH  20  21
BRANCH  20  27
ATOM     27  N   UNL     1      -1.716   3.927  -0.719  0.00  0.00    -0.302 N 
ATOM     28  C   UNL     1      -2.870   4.011  -1.411  0.00  0.00    +0.264 C 
ATOM     29  O   UNL     1      -3.055   3.291  -2.372  0.00  0.00    -0.268 OA
ATOM     30  H   UNL     1      -1.538   4.550   0.004  0.00  0.00    +0.150 HD
BRANCH  28  31
ATOM     31  C   UNL     1      -3.910   4.980  -1.000  0.00  0.00    +0.146 A 
ATOM     32  C   UNL     1      -3.645   5.886   0.026  0.00  0.00    +0.034 A 
ATOM     33  C   UNL     1      -4.627   6.789   0.396  0.00  0.00    +0.004 A 
ATOM     34  C   UNL     1      -5.846   6.750  -0.265  0.00  0.00    +0.021 A 
ATOM     35  C   UNL     1      -6.044   5.821  -1.271  0.00  0.00    +0.134 A 
ATOM     36  N   UNL     1      -5.092   4.976  -1.608  0.00  0.00    -0.135 N 
ATOM     37  O   UNL     1      -5.333   4.040  -2.643  0.00  0.00    -0.164 OA
ENDBRANCH  28  31
ENDBRANCH  20  27
ENDBRANCH   1  20
TORSDOF 8
