REMARK  Name = ZINC34629341
REMARK  7 active torsions:
REMARK  status: ('A' for Active; 'I' for Inactive)
REMARK    1  A    between atoms: C_1  and  C_2
REMARK    2  A    between atoms: N_10  and  C_11
REMARK    3  A    between atoms: C_11  and  C_12
REMARK    4  A    between atoms: N_14  and  N_15
REMARK    5  A    between atoms: C_16  and  C_17
REMARK    6  A    between atoms: C_20  and  O_24
REMARK    7  A    between atoms: C_22  and  O_23
REMARK                            x       y       z     vdW  Elec       q    Type
REMARK                         _______ _______ _______ _____ _____    ______ ____
ROOT
ATOM      1  C   UNL     1      -1.471  -1.268   3.495  0.00  0.00    +0.252 C 
ATOM      2  O   UNL     1      -2.302  -1.266   2.611  0.00  0.00    -0.272 OA
ATOM      3  N   UNL     1      -1.733  -0.656   4.667  0.00  0.00    -0.206 N 
ATOM      4  H   UNL     1      -1.068  -0.657   5.374  0.00  0.00    +0.177 HD
ENDROOT
BRANCH   3   5
ATOM      5  N   UNL     1      -2.964  -0.018   4.864  0.00  0.00    -0.188 NA
ATOM      6  C   UNL     1      -3.176   0.663   5.950  0.00  0.00    +0.142 C 
BRANCH   6   7
ATOM      7  C   UNL     1      -2.055   0.980   6.851  0.00  0.00    +0.036 A 
ATOM      8  C   UNL     1      -0.753   1.057   6.350  0.00  0.00    +0.016 A 
ATOM      9  C   UNL     1       0.293   1.354   7.196  0.00  0.00    +0.046 A 
ATOM     10  C   UNL     1       0.058   1.579   8.547  0.00  0.00    +0.120 A 
ATOM     11  C   UNL     1      -1.232   1.504   9.054  0.00  0.00    +0.091 A 
ATOM     12  C   UNL     1      -2.291   1.212   8.213  0.00  0.00    +0.129 A 
BRANCH  12  13
ATOM     13  O   UNL     1      -3.554   1.145   8.707  0.00  0.00    -0.506 OA
ATOM     14  H   UNL     1      -3.836   0.251   8.946  0.00  0.00    +0.292 HD
ENDBRANCH  12  13
BRANCH  10  15
ATOM     15  O   UNL     1       1.094   1.871   9.375  0.00  0.00    -0.507 OA
ATOM     16  H   UNL     1       1.281   2.817   9.452  0.00  0.00    +0.292 HD
ENDBRANCH  10  15
ENDBRANCH   6   7
ENDBRANCH   3   5
BRANCH   1  17
ATOM     17  C   UNL     1      -0.146  -1.954   3.283  0.00  0.00    +0.220 C 
BRANCH  17  27
ATOM     18  C   UNL     1       0.867  -0.519   0.737  0.00  0.00    +0.086 C 
ATOM     19  C   UNL     1       0.332  -1.927   0.807  0.00  0.00    +0.108 A 
ATOM     20  N   UNL     1       0.231  -2.736  -0.207  0.00  0.00    -0.233 NA
ATOM     21  C   UNL     1      -0.289  -3.921   0.206  0.00  0.00    +0.089 A 
ATOM     22  C   UNL     1      -0.604  -5.115  -0.448  0.00  0.00    +0.030 A 
ATOM     23  C   UNL     1      -1.129  -6.160   0.258  0.00  0.00    +0.002 A 
ATOM     24  C   UNL     1      -1.355  -6.049   1.623  0.00  0.00    +0.002 A 
ATOM     25  C   UNL     1      -1.052  -4.881   2.289  0.00  0.00    +0.028 A 
ATOM     26  C   UNL     1      -0.517  -3.809   1.588  0.00  0.00    +0.069 A 
ATOM     27  N   UNL     1      -0.109  -2.538   1.939  0.00  0.00    -0.319 N 
ENDBRANCH  17  27
ENDBRANCH   1  17
TORSDOF 6
