REMARK  Name = ZINC57327659
REMARK  4 active torsions:
REMARK  status: ('A' for Active; 'I' for Inactive)
REMARK    1  A    between atoms: C_1  and  C_2
REMARK    2  A    between atoms: C_2  and  C_20
REMARK    3  A    between atoms: N_3  and  N_4
REMARK    4  A    between atoms: C_11  and  C_14
REMARK                            x       y       z     vdW  Elec       q    Type
REMARK                         _______ _______ _______ _____ _____    ______ ____
ROOT
ATOM      1  N   UNL     1       0.023   0.044   2.324  0.00  0.00    -0.215 N 
ATOM      2  C   UNL     1       0.044  -0.653   3.516  0.00  0.00    +0.179 A 
ATOM      3  N   UNL     1       0.070  -1.952   3.711  0.00  0.00    -0.222 NA
ATOM      4  C   UNL     1       0.088  -2.500   4.946  0.00  0.00    +0.099 A 
ATOM      5  C   UNL     1       0.115  -3.872   5.292  0.00  0.00    +0.069 A 
ATOM      6  C   UNL     1       0.129  -4.262   6.606  0.00  0.00    +0.038 A 
ATOM      7  C   UNL     1       0.119  -3.334   7.639  0.00  0.00    +0.032 A 
ATOM      8  C   UNL     1       0.093  -1.984   7.335  0.00  0.00    +0.085 A 
ATOM      9  C   UNL     1       0.078  -1.585   6.022  0.00  0.00    +0.055 A 
ATOM     10  S   UNL     1       0.051  -0.017   5.186  0.00  0.00    -0.050 S 
ATOM     11 BR   UNL     1       0.139  -3.909   9.440  0.00  0.00    -0.050 Br
ATOM     12 CL   UNL     1       0.128  -5.073   4.039  0.00  0.00    -0.081 Cl
ATOM     13  H   UNL     1       0.010   1.014   2.329  0.00  0.00    +0.176 HD
ENDROOT
BRANCH   1  16
ATOM     14  C   UNL     1      -0.018   1.503   0.010  0.00  0.00    +0.062 C 
ATOM     15  C   UNL     1       0.002  -0.004   0.002  0.00  0.00    +0.031 C 
ATOM     16  N   UNL     1       0.021  -0.650   1.107  0.00  0.00    -0.190 NA
ATOM     17  C   UNL     1      -0.000  -0.750  -1.307  0.00  0.00    +0.062 C 
ENDBRANCH   1  16
BRANCH   8  18
ATOM     18  C   UNL     1       0.081  -0.960   8.440  0.00  0.00    +0.420 C 
ATOM     19  F   UNL     1       0.756  -1.468   9.555  0.00  0.00    -0.166 F 
ATOM     20  F   UNL     1       0.718   0.206   8.002  0.00  0.00    -0.166 F 
ATOM     21  F   UNL     1      -1.242  -0.666   8.789  0.00  0.00    -0.166 F 
ENDBRANCH   8  18
TORSDOF 2
