REMARK  Name = ZINC00934322
REMARK  8 active torsions:
REMARK  status: ('A' for Active; 'I' for Inactive)
REMARK    1  A    between atoms: C_1  and  O_2
REMARK    2  A    between atoms: O_2  and  C_3
REMARK    3  A    between atoms: C_3  and  C_5
REMARK    4  A    between atoms: C_8  and  N_11
REMARK    5  A    between atoms: N_11  and  C_12
REMARK    6  A    between atoms: C_12  and  N_14
REMARK    7  A    between atoms: C_15  and  C_17
REMARK    8  A    between atoms: C_20  and  N_23
REMARK                            x       y       z     vdW  Elec       q    Type
REMARK                         _______ _______ _______ _____ _____    ______ ____
ROOT
ATOM      1  C   UNL     1       2.499  -4.140   0.218  0.00  0.00    +0.141 C 
ATOM      2  S   UNL     1       1.056  -4.999   0.550  0.00  0.00    -0.018 S 
ENDROOT
BRANCH   1   3
ATOM      3  N   UNL     1       2.499  -2.792   0.232  0.00  0.00    -0.264 N 
ATOM      4  C   UNL     1       1.363  -2.121   0.508  0.00  0.00    +0.250 C 
ATOM      5  O   UNL     1       0.339  -2.731   0.743  0.00  0.00    -0.270 OA
ATOM      6  H   UNL     1       3.316  -2.305   0.044  0.00  0.00    +0.157 HD
BRANCH   4   7
ATOM      7  C   UNL     1       1.363  -0.643   0.523  0.00  0.00    +0.037 A 
ATOM      8  C   UNL     1       0.188   0.055   0.808  0.00  0.00    +0.015 A 
ATOM      9  C   UNL     1       0.195   1.434   0.822  0.00  0.00    +0.033 A 
ATOM     10  C   UNL     1       1.363   2.126   0.554  0.00  0.00    +0.126 A 
ATOM     11  C   UNL     1       2.531   1.440   0.271  0.00  0.00    +0.033 A 
ATOM     12  C   UNL     1       2.538   0.061   0.254  0.00  0.00    +0.015 A 
BRANCH  10  13
ATOM     13  N   UNL     1       1.363   3.606   0.570  0.00  0.00    +0.056 N 
ATOM     14  O   UNL     1       0.337   4.212   0.819  0.00  0.00    -0.126 OA
ATOM     15  O   UNL     1       2.390   4.217   0.334  0.00  0.00    -0.126 OA
ENDBRANCH  10  13
ENDBRANCH   4   7
ENDBRANCH   1   3
BRANCH   1  16
ATOM     16  N   UNL     1       3.635  -4.811  -0.058  0.00  0.00    -0.297 N 
ATOM     17  H   UNL     1       4.431  -4.327  -0.324  0.00  0.00    +0.154 HD
BRANCH  16  21
ATOM     18  C   UNL     1       3.723  -8.964   0.236  0.00  0.00    +0.059 A 
ATOM     19  C   UNL     1       4.349  -8.324  -0.838  0.00  0.00    +0.017 A 
ATOM     20  C   UNL     1       4.318  -6.951  -0.932  0.00  0.00    +0.024 A 
ATOM     21  C   UNL     1       3.664  -6.200   0.040  0.00  0.00    +0.033 A 
ATOM     22  C   UNL     1       3.044  -6.834   1.113  0.00  0.00    +0.024 A 
ATOM     23  C   UNL     1       3.067  -8.207   1.211  0.00  0.00    +0.017 A 
BRANCH  18  24
ATOM     24  C   UNL     1       3.754 -10.434   0.339  0.00  0.00    +0.339 C 
ATOM     25  O   UNL     1       4.325 -11.091  -0.509  0.00  0.00    -0.245 OA
BRANCH  24  27
ATOM     26  C   UNL     1       3.221 -12.500   1.412  0.00  0.00    +0.280 C 
ATOM     27  O   UNL     1       3.150 -11.050   1.375  0.00  0.00    -0.464 OA
ENDBRANCH  24  27
ENDBRANCH  18  24
ENDBRANCH  16  21
ENDBRANCH   1  16
TORSDOF 7
