REMARK  Name = ZINC46943788
REMARK  6 active torsions:
REMARK  status: ('A' for Active; 'I' for Inactive)
REMARK    1  A    between atoms: C_1  and  C_2
REMARK    2  A    between atoms: C_2  and  C_3
REMARK    3  A    between atoms: C_2  and  N_4
REMARK    4  A    between atoms: C_5  and  C_7
REMARK    5  A    between atoms: C_7  and  N_8
REMARK    6  A    between atoms: N_16  and  C_17
REMARK                            x       y       z     vdW  Elec       q    Type
REMARK                         _______ _______ _______ _____ _____    ______ ____
ROOT
ATOM      1  N   UNL     1       4.134  -1.210  -2.164  0.00  0.00    -0.291 NA
ATOM      2  C   UNL     1       4.508  -2.195  -1.140  0.00  0.00    +0.104 C 
ATOM      3  C   UNL     1       5.996  -2.040  -0.806  0.00  0.00    +0.124 C 
ATOM      4  N   UNL     1       6.766  -2.119  -2.057  0.00  0.00    -0.283 N 
ATOM      5  C   UNL     1       6.362  -1.258  -3.179  0.00  0.00    +0.124 C 
ATOM      6  C   UNL     1       4.860  -1.444  -3.419  0.00  0.00    +0.104 C 
ATOM      7  C   UNL     1       7.814  -2.959  -2.172  0.00  0.00    +0.302 C 
ATOM      8  O   UNL     1       8.191  -3.596  -1.207  0.00  0.00    -0.253 OA
ATOM      9  N   UNL     1       8.445  -3.092  -3.355  0.00  0.00    -0.296 N 
ATOM     10  H   UNL     1       8.195  -2.528  -4.104  0.00  0.00    +0.151 HD
ENDROOT
BRANCH   9  11
ATOM     11  C   UNL     1       9.508  -4.087  -3.511  0.00  0.00    +0.077 C 
ATOM     12  C   UNL     1       8.890  -5.445  -3.853  0.00  0.00    +0.041 C 
ATOM     13  C   UNL     1      10.002  -6.490  -3.981  0.00  0.00    +0.108 C 
ATOM     14  N   UNL     1      10.989  -6.013  -4.959  0.00  0.00    -0.317 N 
ATOM     15  C   UNL     1      11.580  -4.681  -4.775  0.00  0.00    +0.108 C 
ATOM     16  C   UNL     1      10.450  -3.655  -4.638  0.00  0.00    +0.041 C 
ATOM     17  C   UNL     1      11.358  -6.808  -6.039  0.00  0.00    +0.099 A 
ATOM     18  C   UNL     1      10.692  -8.008  -6.271  0.00  0.00    +0.042 A 
ATOM     19  C   UNL     1      11.069  -8.788  -7.348  0.00  0.00    +0.005 A 
ATOM     20  C   UNL     1      12.103  -8.342  -8.161  0.00  0.00    +0.018 A 
ATOM     21  C   UNL     1      12.719  -7.141  -7.872  0.00  0.00    +0.084 A 
ATOM     22  N   UNL     1      12.335  -6.414  -6.840  0.00  0.00    -0.350 N 
ATOM     23  H   UNL     1      12.783  -5.572  -6.662  0.00  0.00    +0.166 HD
ENDBRANCH   9  11
BRANCH   1  24
ATOM     24  C   UNL     1       2.682  -1.209  -2.388  0.00  0.00    +0.180 C 
BRANCH  24  26
ATOM     25  N   UNL     1       0.637  -0.643  -1.116  0.00  0.00    -0.312 N 
ATOM     26  C   UNL     1       1.982  -0.728  -1.143  0.00  0.00    +0.227 C 
ATOM     27  O   UNL     1       2.629  -0.416  -0.166  0.00  0.00    -0.274 OA
ATOM     28  H   UNL     1       0.120  -0.893  -1.898  0.00  0.00    +0.149 HD
BRANCH  25  30
ATOM     29  C   UNL     1      -0.094   1.354   0.091  0.00  0.00    +0.027 C 
ATOM     30  C   UNL     1      -0.043  -0.175   0.093  0.00  0.00    +0.067 C 
ATOM     31  C   UNL     1      -1.468  -0.733   0.126  0.00  0.00    +0.027 C 
ENDBRANCH  25  30
ENDBRANCH  24  26
ENDBRANCH   1  24
TORSDOF 4
