REMARK  Name = ZINC09702830
REMARK  10 active torsions:
REMARK  status: ('A' for Active; 'I' for Inactive)
REMARK    1  A    between atoms: C_1  and  C_2
REMARK    2  A    between atoms: C_5  and  N_9
REMARK    3  A    between atoms: C_6  and  C_8
REMARK    4  A    between atoms: C_13  and  C_15
REMARK    5  A    between atoms: C_15  and  O_16
REMARK    6  A    between atoms: O_16  and  C_17
REMARK    7  A    between atoms: C_17  and  C_19
REMARK    8  A    between atoms: C_24  and  C_25
REMARK    9  A    between atoms: N_27  and  C_28
REMARK   10  A    between atoms: N_27  and  C_29
REMARK                            x       y       z     vdW  Elec       q    Type
REMARK                         _______ _______ _______ _____ _____    ______ ____
ROOT
ATOM      1  O   UNL     1       4.646   0.734  -0.022  0.00  0.00    -0.452 OA
ENDROOT
BRANCH   1   2
ATOM      2  C   UNL     1       5.856   1.321  -0.084  0.00  0.00    +0.340 C 
ATOM      3  O   UNL     1       5.945   2.532  -0.068  0.00  0.00    -0.245 OA
BRANCH   2   4
ATOM      4  C   UNL     1       7.077   0.491  -0.171  0.00  0.00    +0.071 A 
ATOM      5  C   UNL     1       6.976  -0.893  -0.278  0.00  0.00    +0.016 A 
ATOM      6  C   UNL     1       8.120  -1.665  -0.363  0.00  0.00    +0.001 A 
ATOM      7  C   UNL     1       9.369  -1.070  -0.334  0.00  0.00    +0.001 A 
ATOM      8  C   UNL     1       9.489   0.303  -0.223  0.00  0.00    +0.014 A 
ATOM      9  C   UNL     1       8.348   1.096  -0.140  0.00  0.00    +0.051 A 
BRANCH   9  10
ATOM     10  C   UNL     1       8.470   2.565  -0.021  0.00  0.00    +0.251 C 
ATOM     11  O   UNL     1       7.921   3.288  -0.829  0.00  0.00    -0.270 OA
ATOM     12  N   UNL     1       9.190   3.102   0.984  0.00  0.00    -0.270 N 
ATOM     13  C   UNL     1       9.747   2.239   2.029  0.00  0.00    +0.138 C 
BRANCH  12  14
ATOM     14  C   UNL     1       9.405   4.483   1.030  0.00  0.00    +0.036 A 
ATOM     15  C   UNL     1       8.772   5.317   0.117  0.00  0.00    +0.023 A 
ATOM     16  C   UNL     1       8.982   6.681   0.169  0.00  0.00    +0.002 A 
ATOM     17  C   UNL     1       9.831   7.215   1.121  0.00  0.00    +0.000 A 
ATOM     18  C   UNL     1      10.467   6.388   2.027  0.00  0.00    +0.002 A 
ATOM     19  C   UNL     1      10.257   5.023   1.985  0.00  0.00    +0.023 A 
ENDBRANCH  12  14
ENDBRANCH   9  10
ENDBRANCH   2   4
ENDBRANCH   1   2
BRANCH   1  20
ATOM     20  C   UNL     1       3.491   1.610   0.062  0.00  0.00    +0.328 C 
BRANCH  20  25
ATOM     21  N   UNL     1      -1.295   1.247   0.333  0.00  0.00    -0.269 N 
ATOM     22  C   UNL     1      -0.092   0.643   0.257  0.00  0.00    +0.310 C 
ATOM     23  O   UNL     1      -0.022  -0.570   0.231  0.00  0.00    -0.252 OA
ATOM     24  N   UNL     1       1.032   1.385   0.203  0.00  0.00    -0.237 N 
ATOM     25  C   UNL     1       2.234   0.781   0.121  0.00  0.00    +0.258 C 
ATOM     26  O   UNL     1       2.304  -0.429   0.096  0.00  0.00    -0.272 OA
ATOM     27  H   UNL     1      -1.348   2.210   0.442  0.00  0.00    +0.156 HD
ATOM     28  H   UNL     1       0.976   2.353   0.224  0.00  0.00    +0.159 HD
BRANCH  21  33
ATOM     29  C   UNL     1      -6.043  -1.841   0.021  0.00  0.00    +0.044 C 
ATOM     30  C   UNL     1      -4.782  -1.020   0.104  0.00  0.00    -0.050 A 
ATOM     31  C   UNL     1      -3.612  -1.494  -0.463  0.00  0.00    +0.005 A 
ATOM     32  C   UNL     1      -2.455  -0.745  -0.388  0.00  0.00    +0.024 A 
ATOM     33  C   UNL     1      -2.466   0.486   0.256  0.00  0.00    +0.038 A 
ATOM     34  C   UNL     1      -3.641   0.956   0.828  0.00  0.00    -0.029 A 
ATOM     35  C   UNL     1      -4.796   0.204   0.746  0.00  0.00    +0.008 A 
ATOM     36  C   UNL     1      -3.656   2.288   1.532  0.00  0.00    +0.045 C 
ENDBRANCH  21  33
ENDBRANCH  20  25
ENDBRANCH   1  20
TORSDOF 7
