REMARK  Name = ZINC36964675
REMARK  6 active torsions:
REMARK  status: ('A' for Active; 'I' for Inactive)
REMARK    1  A    between atoms: C_1  and  C_2
REMARK    2  A    between atoms: C_2  and  C_21
REMARK    3  A    between atoms: C_8  and  O_11
REMARK    4  A    between atoms: O_11  and  C_12
REMARK    5  A    between atoms: C_12  and  C_13
REMARK    6  A    between atoms: C_14  and  N_20
REMARK                            x       y       z     vdW  Elec       q    Type
REMARK                         _______ _______ _______ _____ _____    ______ ____
ROOT
ATOM      1  O   UNL     1       3.016  -0.742   2.983  0.00  0.00    -0.484 OA
ENDROOT
BRANCH   1   9
ATOM      2  C   UNL     1      -0.019   1.526   0.010  0.00  0.00    +0.056 C 
ATOM      3  C   UNL     1       0.002  -0.004   0.002  0.00  0.00    +0.109 C 
ATOM      4  C   UNL     1       0.832  -0.534  -1.191  0.00  0.00    +0.086 C 
ATOM      5  C   UNL     1       2.204  -0.704  -0.568  0.00  0.00    +0.002 A 
ATOM      6  C   UNL     1       3.456  -0.875  -1.120  0.00  0.00    +0.007 A 
ATOM      7  C   UNL     1       4.564  -1.000  -0.301  0.00  0.00    +0.004 A 
ATOM      8  C   UNL     1       4.412  -0.953   1.073  0.00  0.00    +0.049 A 
ATOM      9  C   UNL     1       3.157  -0.786   1.631  0.00  0.00    +0.163 A 
ATOM     10  C   UNL     1       2.034  -0.662   0.808  0.00  0.00    +0.166 A 
ATOM     11  O   UNL     1       0.721  -0.510   1.139  0.00  0.00    -0.482 OA
ATOM     12  C   UNL     1      -1.422  -0.563  -0.032  0.00  0.00    +0.056 C 
ENDBRANCH   1   9
BRANCH   1  13
ATOM     13  C   UNL     1       4.205  -0.874   3.764  0.00  0.00    +0.267 C 
BRANCH  13  14
ATOM     14  C   UNL     1       3.855  -0.802   5.228  0.00  0.00    +0.024 A 
ATOM     15  C   UNL     1       3.837   0.425   5.878  0.00  0.00    +0.032 A 
ATOM     16  C   UNL     1       3.513   0.487   7.228  0.00  0.00    +0.023 A 
ATOM     17  C   UNL     1       3.211  -0.670   7.919  0.00  0.00    +0.003 A 
ATOM     18  C   UNL     1       3.231  -1.890   7.269  0.00  0.00    +0.016 A 
ATOM     19  C   UNL     1       3.547  -1.955   5.923  0.00  0.00    +0.026 A 
ATOM     20 BR   UNL     1       3.564  -3.626   5.037  0.00  0.00    -0.050 Br
BRANCH  15  21
ATOM     21  N   UNL     1       4.143   1.594   5.178  0.00  0.00    -0.358 N 
ATOM     22  H   UNL     1       4.369   1.549   4.235  0.00  0.00    +0.142 HD
ATOM     23  H   UNL     1       4.129   2.450   5.633  0.00  0.00    +0.142 HD
ENDBRANCH  15  21
ENDBRANCH  13  14
ENDBRANCH   1  13
TORSDOF 4
