REMARK  Name = ZINC07840261
REMARK  9 active torsions:
REMARK  status: ('A' for Active; 'I' for Inactive)
REMARK    1  A    between atoms: C_1  and  C_2
REMARK    2  A    between atoms: C_2  and  C_4
REMARK    3  A    between atoms: C_2  and  O_14
REMARK    4  A    between atoms: N_9  and  C_10
REMARK    5  A    between atoms: C_10  and  C_11
REMARK    6  A    between atoms: C_10  and  C_12
REMARK    7  A    between atoms: C_10  and  C_13
REMARK    8  A    between atoms: O_14  and  C_15
REMARK    9  A    between atoms: C_15  and  C_17
REMARK                            x       y       z     vdW  Elec       q    Type
REMARK                         _______ _______ _______ _____ _____    ______ ____
ROOT
ATOM      1  O   UNL     1      -0.715   1.567  -1.168  0.00  0.00    -0.449 OA
ENDROOT
BRANCH   1   3
ATOM      2  C   UNL     1      -0.729   1.579   1.267  0.00  0.00    +0.062 C 
ATOM      3  C   UNL     1      -0.013   1.086   0.008  0.00  0.00    +0.259 C 
BRANCH   3   4
ATOM      4  C   UNL     1       1.401   1.607  -0.003  0.00  0.00    +0.261 C 
ATOM      5  O   UNL     1       1.753   2.387  -0.862  0.00  0.00    -0.271 OA
ATOM      6  N   UNL     1       2.274   1.208   0.943  0.00  0.00    -0.237 N 
ATOM      7  C   UNL     1       3.538   1.674   0.933  0.00  0.00    +0.306 C 
ATOM      8  O   UNL     1       3.892   2.455   0.072  0.00  0.00    -0.252 OA
ATOM      9  N   UNL     1       4.412   1.274   1.879  0.00  0.00    -0.294 N 
ATOM     10  H   UNL     1       1.992   0.584   1.631  0.00  0.00    +0.159 HD
ATOM     11  H   UNL     1       4.130   0.650   2.567  0.00  0.00    +0.151 HD
BRANCH   9  12
ATOM     12  C   UNL     1       5.786   1.781   1.869  0.00  0.00    +0.028 C 
ATOM     13  C   UNL     1       5.768   3.305   2.003  0.00  0.00    +0.031 C 
ATOM     14  C   UNL     1       6.562   1.175   3.040  0.00  0.00    +0.031 C 
ATOM     15  C   UNL     1       6.463   1.393   0.553  0.00  0.00    +0.031 C 
ENDBRANCH   9  12
ENDBRANCH   3   4
ENDBRANCH   1   3
BRANCH   1  16
ATOM     16  C   UNL     1      -1.691   0.780  -1.663  0.00  0.00    +0.340 C 
ATOM     17  O   UNL     1      -1.948  -0.279  -1.126  0.00  0.00    -0.245 OA
BRANCH  16  18
ATOM     18  C   UNL     1      -2.447   1.204  -2.856  0.00  0.00    +0.064 A 
ATOM     19  C   UNL     1      -3.460   0.388  -3.370  0.00  0.00    +0.064 A 
ATOM     20  C   UNL     1      -4.162   0.793  -4.487  0.00  0.00    +0.164 A 
ATOM     21  C   UNL     1      -3.864   2.006  -5.098  0.00  0.00    +0.180 A 
ATOM     22  C   UNL     1      -2.859   2.819  -4.590  0.00  0.00    +0.087 A 
ATOM     23  C   UNL     1      -2.156   2.425  -3.471  0.00  0.00    +0.039 A 
ATOM     24 CL   UNL     1      -2.493   4.332  -5.359  0.00  0.00    -0.080 Cl
ATOM     25  O   UNL     1      -4.566   2.393  -6.201  0.00  0.00    -0.487 OA
ATOM     26  C   UNL     1      -5.940   2.718  -5.986  0.00  0.00    +0.232 C 
ATOM     27  C   UNL     1      -6.802   1.466  -6.018  0.00  0.00    +0.082 C 
ATOM     28  C   UNL     1      -6.481   0.513  -4.877  0.00  0.00    +0.232 C 
ATOM     29  O   UNL     1      -5.151   0.005  -5.000  0.00  0.00    -0.488 OA
ENDBRANCH  16  18
ENDBRANCH   1  16
TORSDOF 5
