REMARK  Name = ZINC23259481
REMARK  6 active torsions:
REMARK  status: ('A' for Active; 'I' for Inactive)
REMARK    1  A    between atoms: C_1  and  C_2
REMARK    2  A    between atoms: C_2  and  C_4
REMARK    3  A    between atoms: C_2  and  N_20
REMARK    4  A    between atoms: N_9  and  C_10
REMARK    5  A    between atoms: N_23  and  C_26
REMARK    6  A    between atoms: C_26  and  C_27
REMARK                            x       y       z     vdW  Elec       q    Type
REMARK                         _______ _______ _______ _____ _____    ______ ____
ROOT
ATOM      1  C   UNL     1      -0.881   5.571   2.118  0.00  0.00    +0.237 C 
ATOM      2  O   UNL     1      -0.632   6.497   1.377  0.00  0.00    -0.274 OA
ATOM      3  N   UNL     1      -0.445   4.331   1.818  0.00  0.00    -0.239 N 
ATOM      4  C   UNL     1       0.268   4.122   0.694  0.00  0.00    +0.306 C 
ATOM      5  O   UNL     1       0.518   5.051  -0.049  0.00  0.00    -0.252 OA
ATOM      6  N   UNL     1       0.705   2.883   0.393  0.00  0.00    -0.294 N 
ATOM      7  H   UNL     1      -0.672   3.491   2.490  0.00  0.00    +0.159 HD
ATOM      8  H   UNL     1       0.478   2.042   1.065  0.00  0.00    +0.151 HD
ENDROOT
BRANCH   6   9
ATOM      9  C   UNL     1       1.480   2.655  -0.829  0.00  0.00    +0.037 C 
ATOM     10  C   UNL     1       2.757   3.497  -0.786  0.00  0.00    +0.029 C 
ATOM     11  C   UNL     1       3.567   3.259  -2.062  0.00  0.00    -0.008 C 
ATOM     12  C   UNL     1       3.936   1.778  -2.164  0.00  0.00    +0.007 C 
ATOM     13  C   UNL     1       2.658   0.936  -2.207  0.00  0.00    -0.008 C 
ATOM     14  C   UNL     1       1.848   1.174  -0.931  0.00  0.00    +0.029 C 
ATOM     15  C   UNL     1       1.823   1.339  -3.424  0.00  0.00    +0.007 C 
ATOM     16  C   UNL     1       1.455   2.821  -3.321  0.00  0.00    -0.008 C 
ATOM     17  C   UNL     1       2.732   3.662  -3.279  0.00  0.00    +0.007 C 
ATOM     18  C   UNL     1       0.645   3.058  -2.045  0.00  0.00    +0.029 C 
ENDBRANCH   6   9
BRANCH   1  20
ATOM     19  C   UNL     1      -3.090   5.240   3.196  0.00  0.00    +0.034 C 
ATOM     20  C   UNL     1      -1.679   5.804   3.375  0.00  0.00    +0.140 C 
BRANCH  20  21
ATOM     21  N   UNL     1      -1.759   7.247   3.643  0.00  0.00    -0.295 NA
ATOM     22  C   UNL     1      -2.191   7.502   5.024  0.00  0.00    +0.066 C 
ATOM     23  C   UNL     1      -2.185   9.010   5.287  0.00  0.00    -0.063 C 
ATOM     24  N   UNL     1      -3.076   9.676   4.327  0.00  0.00    +0.387 N 
ATOM     25  C   UNL     1      -2.644   9.420   2.946  0.00  0.00    -0.063 C 
ATOM     26  C   UNL     1      -2.651   7.912   2.683  0.00  0.00    +0.066 C 
ATOM     27  H   UNL     1      -4.085   9.254   4.451  0.00  0.00    -0.081 HD
BRANCH  24  28
ATOM     28  C   UNL     1      -3.156  11.118   4.595  0.00  0.00    +0.019 C 
BRANCH  28  29
ATOM     29  C   UNL     1      -4.255  11.724   3.760  0.00  0.00    +0.199 C 
ATOM     30  O   UNL     1      -4.974  11.011   3.095  0.00  0.00    -0.278 OA
ATOM     31  N   UNL     1      -4.437  13.060   3.754  0.00  0.00    -0.303 N 
ATOM     32  C   UNL     1      -3.645  14.037   4.515  0.00  0.00    +0.108 C 
ATOM     33  C   UNL     1      -4.228  15.433   4.215  0.00  0.00    +0.020 C 
ATOM     34  C   UNL     1      -5.675  15.112   3.754  0.00  0.00    +0.020 C 
ATOM     35  C   UNL     1      -5.468  13.782   2.986  0.00  0.00    +0.108 C 
ENDBRANCH  28  29
ENDBRANCH  24  28
ENDBRANCH  20  21
ENDBRANCH   1  20
TORSDOF 5
