REMARK  Name = ZINC07450006
REMARK  10 active torsions:
REMARK  status: ('A' for Active; 'I' for Inactive)
REMARK    1  A    between atoms: C_1  and  C_2
REMARK    2  A    between atoms: C_2  and  O_3
REMARK    3  A    between atoms: O_3  and  C_4
REMARK    4  A    between atoms: C_9  and  N_10
REMARK    5  A    between atoms: C_11  and  C_13
REMARK    6  A    between atoms: C_13  and  C_15
REMARK    7  A    between atoms: C_13  and  S_16
REMARK    8  A    between atoms: S_16  and  C_17
REMARK    9  A    between atoms: C_20  and  C_23
REMARK   10  A    between atoms: N_21  and  N_22
REMARK                            x       y       z     vdW  Elec       q    Type
REMARK                         _______ _______ _______ _____ _____    ______ ____
ROOT
ATOM      1  C   UNL     1       2.737   7.911  -0.058  0.00  0.00    +0.137 C 
ATOM      2  C   UNL     1       3.757   7.531  -1.134  0.00  0.00    +0.029 C 
ENDROOT
BRANCH   1   4
ATOM      3  N   UNL     1       3.414  10.216   0.532  0.00  0.00    -0.282 N 
ATOM      4  C   UNL     1       2.525   9.403  -0.072  0.00  0.00    +0.230 C 
ATOM      5  O   UNL     1       1.553   9.872  -0.627  0.00  0.00    -0.274 OA
ATOM      6  H   UNL     1       4.147   9.839   1.043  0.00  0.00    +0.155 HD
BRANCH   3  12
ATOM      7  C   UNL     1       3.824  12.440   1.395  0.00  0.00    +0.142 A 
ATOM      8  C   UNL     1       3.689  13.814   1.280  0.00  0.00    +0.047 A 
ATOM      9  C   UNL     1       3.015  14.355   0.201  0.00  0.00    +0.004 A 
ATOM     10  C   UNL     1       2.474  13.527  -0.767  0.00  0.00    +0.002 A 
ATOM     11  C   UNL     1       2.609  12.156  -0.662  0.00  0.00    +0.027 A 
ATOM     12  C   UNL     1       3.280  11.606   0.421  0.00  0.00    +0.076 A 
BRANCH   7  13
ATOM     13  O   UNL     1       4.488  11.907   2.455  0.00  0.00    -0.490 OA
BRANCH  13  15
ATOM     14  C   UNL     1       5.726  12.044   4.526  0.00  0.00    +0.048 C 
ATOM     15  C   UNL     1       5.020  12.823   3.414  0.00  0.00    +0.226 C 
ENDBRANCH  13  15
ENDBRANCH   7  13
ENDBRANCH   3  12
ENDBRANCH   1   4
BRANCH   1  16
ATOM     16  S   UNL     1       1.167   7.075  -0.393  0.00  0.00    -0.072 S 
BRANCH  16  17
ATOM     17  C   UNL     1       1.661   5.398  -0.172  0.00  0.00    +0.209 A 
ATOM     18  N   UNL     1       2.863   4.975   0.148  0.00  0.00    -0.120 NA
ATOM     19  N   UNL     1       2.874   3.693   0.233  0.00  0.00    -0.123 NA
ATOM     20  C   UNL     1       1.679   3.216  -0.038  0.00  0.00    +0.217 A 
ATOM     21  N   UNL     1       0.864   4.295  -0.302  0.00  0.00    -0.221 N 
BRANCH  20  22
ATOM     22  C   UNL     1       1.285   1.798  -0.050  0.00  0.00    +0.173 A 
ATOM     23  C   UNL     1       2.133   0.732  -0.072  0.00  0.00    +0.053 A 
ATOM     24  C   UNL     1       1.330  -0.425  -0.076  0.00  0.00    +0.042 A 
ATOM     25  C   UNL     1       0.046  -0.015  -0.057  0.00  0.00    +0.196 A 
ATOM     26  O   UNL     1       0.022   1.328  -0.040  0.00  0.00    -0.460 OA
ENDBRANCH  20  22
BRANCH  21  27
ATOM     27  N   UNL     1      -0.463   4.268  -0.624  0.00  0.00    -0.294 N 
ATOM     28  H   UNL     1      -1.038   4.316   0.204  0.00  0.00    +0.163 HD
ATOM     29  H   UNL     1      -0.694   5.010  -1.268  0.00  0.00    +0.163 HD
ENDBRANCH  21  27
ENDBRANCH  16  17
ENDBRANCH   1  16
TORSDOF 8
