REMARK  Name = ZINC20234815
REMARK  10 active torsions:
REMARK  status: ('A' for Active; 'I' for Inactive)
REMARK    1  A    between atoms: C_1  and  C_2
REMARK    2  A    between atoms: C_2  and  C_4
REMARK    3  A    between atoms: C_2  and  N_12
REMARK    4  A    between atoms: C_4  and  C_5
REMARK    5  A    between atoms: C_5  and  C_6
REMARK    6  A    between atoms: C_13  and  C_15
REMARK    7  A    between atoms: C_15  and  C_16
REMARK    8  A    between atoms: C_16  and  N_17
REMARK    9  A    between atoms: N_17  and  S_18
REMARK   10  A    between atoms: S_18  and  C_21
REMARK                            x       y       z     vdW  Elec       q    Type
REMARK                         _______ _______ _______ _____ _____    ______ ____
ROOT
ATOM      1  N   UNL     1       6.238   0.769  -3.676  0.00  0.00    -0.189 NA
ATOM      2  H   UNL     1       5.682   0.194  -4.431  0.00  0.00    +0.148 HD
ENDROOT
BRANCH   1   3
ATOM      3  S   UNL     1       7.867   0.992  -3.866  0.00  0.00    +0.058 S 
ATOM      4  O   UNL     1       8.194   0.516  -5.165  0.00  0.00    -0.153 OA
ATOM      5  O   UNL     1       8.147   2.321  -3.448  0.00  0.00    -0.153 OA
BRANCH   3   6
ATOM      6  C   UNL     1       8.676  -0.076  -2.721  0.00  0.00    +0.106 A 
ATOM      7  C   UNL     1       8.976   0.376  -1.449  0.00  0.00    +0.030 A 
ATOM      8  C   UNL     1       9.606  -0.460  -0.548  0.00  0.00    +0.025 A 
ATOM      9  C   UNL     1       9.947  -1.752  -0.924  0.00  0.00    +0.037 A 
ATOM     10  C   UNL     1       9.649  -2.201  -2.204  0.00  0.00    -0.024 A 
ATOM     11  C   UNL     1       9.015  -1.363  -3.099  0.00  0.00    +0.034 A 
ATOM     12  C   UNL     1      10.019  -3.604  -2.611  0.00  0.00    +0.046 C 
ATOM     13  C   UNL     1      11.323  -4.009  -1.923  0.00  0.00    +0.101 C 
ATOM     14  C   UNL     1      11.248  -3.691  -0.454  0.00  0.00    +0.218 C 
ATOM     15  O   UNL     1      11.787  -4.426   0.346  0.00  0.00    -0.275 OA
ATOM     16  N   UNL     1      10.590  -2.602  -0.018  0.00  0.00    -0.285 N 
ATOM     17  H   UNL     1      10.559  -2.381   1.059  0.00  0.00    +0.155 HD
ENDBRANCH   3   6
ENDBRANCH   1   3
BRANCH   1  18
ATOM     18  C   UNL     1       5.589   1.141  -2.416  0.00  0.00    +0.115 C 
BRANCH  18  19
ATOM     19  C   UNL     1       4.074   1.193  -2.618  0.00  0.00    +0.112 C 
BRANCH  19  21
ATOM     20  N   UNL     1       2.065   1.683  -1.260  0.00  0.00    -0.313 N 
ATOM     21  C   UNL     1       3.407   1.575  -1.322  0.00  0.00    +0.214 C 
ATOM     22  O   UNL     1       4.078   1.786  -0.334  0.00  0.00    -0.276 OA
ATOM     23  H   UNL     1       1.456   1.493  -2.157  0.00  0.00    +0.149 HD
BRANCH  20  25
ATOM     24  C   UNL     1       1.399   3.579   0.134  0.00  0.00    +0.028 C 
ATOM     25  C   UNL     1       1.417   2.055  -0.000  0.00  0.00    +0.070 C 
BRANCH  25  26
ATOM     26  C   UNL     1      -0.019   1.526   0.010  0.00  0.00    +0.026 C 
BRANCH  26  27
ATOM     27  C   UNL     1       0.002  -0.004   0.002  0.00  0.00    +0.037 C 
BRANCH  27  28
ATOM     28  C   UNL     1      -1.412  -0.526   0.013  0.00  0.00    -0.047 A 
ATOM     29  C   UNL     1      -2.047  -0.777   1.215  0.00  0.00    +0.003 A 
ATOM     30  C   UNL     1      -3.345  -1.250   1.224  0.00  0.00    +0.000 A 
ATOM     31  C   UNL     1      -4.005  -1.483   0.032  0.00  0.00    +0.000 A 
ATOM     32  C   UNL     1      -3.368  -1.237  -1.170  0.00  0.00    +0.000 A 
ATOM     33  C   UNL     1      -2.072  -0.758  -1.179  0.00  0.00    +0.003 A 
ENDBRANCH  27  28
ENDBRANCH  26  27
ENDBRANCH  25  26
ENDBRANCH  20  25
ENDBRANCH  19  21
ENDBRANCH  18  19
ENDBRANCH   1  18
TORSDOF 9
