REMARK  Name = ZINC40266908
REMARK  7 active torsions:
REMARK  status: ('A' for Active; 'I' for Inactive)
REMARK    1  A    between atoms: C_1  and  C_2
REMARK    2  A    between atoms: C_3  and  N_9
REMARK    3  A    between atoms: C_4  and  C_8
REMARK    4  A    between atoms: N_5  and  C_7
REMARK    5  A    between atoms: C_10  and  C_12
REMARK    6  A    between atoms: N_14  and  C_15
REMARK    7  A    between atoms: C_15  and  C_16
REMARK                            x       y       z     vdW  Elec       q    Type
REMARK                         _______ _______ _______ _____ _____    ______ ____
ROOT
ATOM      1  C   UNL     1      -0.106   1.379  -4.179  0.00  0.00    +0.299 C 
ATOM      2  O   UNL     1      -0.620   0.655  -5.007  0.00  0.00    -0.265 OA
ATOM      3  N   UNL     1       0.247   2.637  -4.509  0.00  0.00    -0.304 N 
ATOM      4  H   UNL     1       0.657   3.215  -3.847  0.00  0.00    +0.149 HD
ENDROOT
BRANCH   1   6
ATOM      5  N   UNL     1      -0.220  -0.382  -2.463  0.00  0.00    -0.275 N 
ATOM      6  C   UNL     1       0.134   0.875  -2.793  0.00  0.00    +0.303 C 
ATOM      7  O   UNL     1       0.647   1.599  -1.965  0.00  0.00    -0.265 OA
ATOM      8  H   UNL     1      -0.571  -0.982  -3.140  0.00  0.00    +0.155 HD
BRANCH   5  11
ATOM      9  C   UNL     1      -2.013   0.548  -0.090  0.00  0.00    +0.069 C 
ATOM     10  C   UNL     1      -0.867  -0.430  -0.045  0.00  0.00    +0.081 A 
ATOM     11  C   UNL     1      -0.080  -0.826  -1.137  0.00  0.00    +0.078 A 
ATOM     12  C   UNL     1       0.842  -1.715  -0.683  0.00  0.00    +0.057 A 
ATOM     13  N   UNL     1       0.641  -1.871   0.645  0.00  0.00    -0.270 N 
ATOM     14  N   UNL     1      -0.430  -1.052   1.020  0.00  0.00    -0.175 NA
ATOM     15  C   UNL     1       1.413  -2.742   1.536  0.00  0.00    +0.172 C 
ATOM     16  C   UNL     1       1.897  -2.402  -1.510  0.00  0.00    +0.067 C 
ENDBRANCH   5  11
ENDBRANCH   1   6
BRANCH   3  17
ATOM     17  C   UNL     1       0.011   3.130  -5.868  0.00  0.00    +0.152 C 
BRANCH  17  18
ATOM     18  C   UNL     1       0.500   4.576  -5.978  0.00  0.00    +0.228 C 
ATOM     19  C   UNL     1       0.156   5.135  -7.365  0.00  0.00    +0.275 C 
ATOM     20  O   UNL     1       0.638   6.481  -7.438  0.00  0.00    -0.485 OA
ATOM     21  C   UNL     1       1.905   6.702  -6.991  0.00  0.00    +0.162 A 
ATOM     22  C   UNL     1       2.562   7.868  -7.355  0.00  0.00    +0.049 A 
ATOM     23  C   UNL     1       3.847   8.108  -6.907  0.00  0.00    +0.004 A 
ATOM     24  C   UNL     1       4.481   7.187  -6.094  0.00  0.00    +0.004 A 
ATOM     25  C   UNL     1       3.833   6.022  -5.729  0.00  0.00    +0.049 A 
ATOM     26  C   UNL     1       2.544   5.774  -6.177  0.00  0.00    +0.163 A 
ATOM     27  O   UNL     1       1.922   4.619  -5.816  0.00  0.00    -0.480 OA
ENDBRANCH  17  18
ENDBRANCH   3  17
TORSDOF 4
