REMARK  Name = ZINC12483291
REMARK  10 active torsions:
REMARK  status: ('A' for Active; 'I' for Inactive)
REMARK    1  A    between atoms: C_1  and  C_2
REMARK    2  A    between atoms: C_2  and  C_3
REMARK    3  A    between atoms: N_8  and  C_9
REMARK    4  A    between atoms: N_19  and  C_22
REMARK    5  A    between atoms: C_26  and  S_28
REMARK    6  A    between atoms: S_28  and  N_31
REMARK    7  A    between atoms: N_31  and  C_32
REMARK    8  A    between atoms: N_31  and  C_34
REMARK    9  A    between atoms: C_32  and  C_33
REMARK   10  A    between atoms: C_34  and  C_35
REMARK                            x       y       z     vdW  Elec       q    Type
REMARK                         _______ _______ _______ _____ _____    ______ ____
ROOT
ATOM      1  C   UNL     1       4.220  -1.010   1.206  0.00  0.00    +0.087 C 
ATOM      2  C   UNL     1       3.227  -1.123   0.258  0.00  0.00    +0.059 C 
ATOM      3  C   UNL     1       2.497   0.068  -0.225  0.00  0.00    +0.000 A 
ATOM      4  C   UNL     1       2.779   1.342   0.254  0.00  0.00    +0.009 A 
ATOM      5  C   UNL     1       2.068   2.423  -0.228  0.00  0.00    +0.001 A 
ATOM      6  C   UNL     1       1.078   2.246  -1.184  0.00  0.00    +0.001 A 
ATOM      7  C   UNL     1       0.785   0.990  -1.670  0.00  0.00    +0.014 A 
ATOM      8  C   UNL     1       1.491  -0.116  -1.196  0.00  0.00    +0.046 A 
ATOM      9  C   UNL     1       1.210  -1.471  -1.687  0.00  0.00    +0.258 C 
ATOM     10  O   UNL     1       0.343  -1.636  -2.524  0.00  0.00    -0.269 OA
ATOM     11  N   UNL     1       1.893  -2.532  -1.227  0.00  0.00    -0.202 N 
ATOM     12  C   UNL     1       2.862  -2.429  -0.302  0.00  0.00    +0.259 C 
ATOM     13  O   UNL     1       3.445  -3.430   0.074  0.00  0.00    -0.269 OA
ENDROOT
BRANCH   1  19
ATOM     14  C   UNL     1       7.776  -2.171   4.454  0.00  0.00    +0.103 A 
ATOM     15  N   UNL     1       7.336  -1.015   3.999  0.00  0.00    -0.145 NA
ATOM     16  N   UNL     1       6.405  -0.936   3.152  0.00  0.00    -0.126 NA
ATOM     17  C   UNL     1       5.800  -2.016   2.675  0.00  0.00    +0.185 A 
ATOM     18  S   UNL     1       6.705  -3.288   3.553  0.00  0.00    -0.035 S 
ATOM     19  N   UNL     1       4.767  -2.129   1.755  0.00  0.00    -0.298 N 
ATOM     20  H   UNL     1       4.390  -3.122   1.469  0.00  0.00    +0.154 HD
BRANCH  14  22
ATOM     21  C   UNL     1       8.275  -2.513   6.859  0.00  0.00    +0.011 C 
ATOM     22  C   UNL     1       8.868  -2.469   5.449  0.00  0.00    +0.061 C 
ENDBRANCH  14  22
ENDBRANCH   1  19
BRANCH  11  23
ATOM     23  C   UNL     1       1.582  -3.800  -1.733  0.00  0.00    +0.046 A 
ATOM     24  C   UNL     1       0.694  -4.622  -1.051  0.00  0.00    +0.024 A 
ATOM     25  C   UNL     1       0.388  -5.872  -1.553  0.00  0.00    +0.004 A 
ATOM     26  C   UNL     1       0.965  -6.305  -2.733  0.00  0.00    +0.028 A 
ATOM     27  C   UNL     1       1.850  -5.489  -3.413  0.00  0.00    +0.107 A 
ATOM     28  C   UNL     1       2.155  -4.236  -2.919  0.00  0.00    +0.052 A 
BRANCH  27  29
ATOM     29  S   UNL     1       2.582  -6.046  -4.916  0.00  0.00    +0.061 S 
ATOM     30  O   UNL     1       3.791  -5.316  -5.073  0.00  0.00    -0.153 OA
ATOM     31  O   UNL     1       2.549  -7.466  -4.883  0.00  0.00    -0.153 OA
BRANCH  29  32
ATOM     32  N   UNL     1       1.583  -5.578  -6.151  0.00  0.00    -0.177 NA
BRANCH  32  33
ATOM     33  C   UNL     1       1.774  -4.275  -6.794  0.00  0.00    +0.106 C 
ATOM     34  C   UNL     1       2.637  -4.446  -8.046  0.00  0.00    +0.022 C 
ENDBRANCH  32  33
BRANCH  32  35
ATOM     35  C   UNL     1       0.508  -6.466  -6.600  0.00  0.00    +0.106 C 
ATOM     36  C   UNL     1      -0.794  -6.089  -5.891  0.00  0.00    +0.022 C 
ENDBRANCH  32  35
ENDBRANCH  29  32
ENDBRANCH  27  29
ENDBRANCH  11  23
TORSDOF 7
