REMARK  Name = ZINC15087293
REMARK  9 active torsions:
REMARK  status: ('A' for Active; 'I' for Inactive)
REMARK    1  A    between atoms: C_1  and  C_2
REMARK    2  A    between atoms: C_2  and  O_3
REMARK    3  A    between atoms: O_3  and  C_4
REMARK    4  A    between atoms: C_4  and  C_6
REMARK    5  A    between atoms: C_6  and  N_7
REMARK    6  A    between atoms: C_13  and  C_33
REMARK    7  A    between atoms: N_22  and  C_25
REMARK    8  A    between atoms: C_28  and  O_31
REMARK    9  A    between atoms: O_31  and  C_32
REMARK                            x       y       z     vdW  Elec       q    Type
REMARK                         _______ _______ _______ _____ _____    ______ ____
ROOT
ATOM      1  N   UNL     1       1.686  -3.995   2.338  0.00  0.00    -0.286 N 
ATOM      2  C   UNL     1       0.602  -4.615   2.908  0.00  0.00    +0.091 A 
ATOM      3  C   UNL     1       0.616  -5.964   2.845  0.00  0.00    +0.033 A 
ATOM      4  S   UNL     1       2.129  -6.312   1.987  0.00  0.00    -0.030 S 
ATOM      5  C   UNL     1       2.656  -4.731   1.763  0.00  0.00    +0.292 A 
ATOM      6  O   UNL     1       3.674  -4.344   1.215  0.00  0.00    -0.259 OA
ATOM      7  C   UNL     1      -0.381  -6.956   3.373  0.00  0.00    +0.078 C 
ATOM      8  C   UNL     1      -1.206  -6.282   4.441  0.00  0.00    +0.111 C 
ATOM      9  C   UNL     1      -1.967  -5.083   3.800  0.00  0.00    +0.152 C 
ATOM     10  S   UNL     1      -0.757  -3.742   3.674  0.00  0.00    -0.093 S 
ATOM     11  C   UNL     1      -3.034  -4.872   4.839  0.00  0.00    +0.240 C 
ATOM     12  O   UNL     1      -3.572  -3.825   5.128  0.00  0.00    -0.274 OA
ATOM     13  N   UNL     1      -3.274  -6.091   5.389  0.00  0.00    -0.209 N 
ATOM     14  C   UNL     1      -2.358  -7.019   5.048  0.00  0.00    +0.232 C 
ATOM     15  O   UNL     1      -2.452  -8.216   5.215  0.00  0.00    -0.274 OA
ENDROOT
BRANCH  13  16
ATOM     16  C   UNL     1      -4.378  -6.357   6.214  0.00  0.00    +0.044 A 
ATOM     17  C   UNL     1      -4.556  -7.627   6.746  0.00  0.00    +0.027 A 
ATOM     18  C   UNL     1      -5.642  -7.889   7.558  0.00  0.00    +0.047 A 
ATOM     19  C   UNL     1      -6.555  -6.883   7.842  0.00  0.00    +0.120 A 
ATOM     20  C   UNL     1      -6.377  -5.614   7.309  0.00  0.00    +0.047 A 
ATOM     21  C   UNL     1      -5.289  -5.350   6.502  0.00  0.00    +0.027 A 
BRANCH  19  22
ATOM     22  O   UNL     1      -7.624  -7.141   8.641  0.00  0.00    -0.495 OA
ATOM     23  C   UNL     1      -8.523  -6.060   8.891  0.00  0.00    +0.277 C 
ENDBRANCH  19  22
ENDBRANCH  13  16
BRANCH   7  24
ATOM     24  C   UNL     1      -1.277  -7.420   2.253  0.00  0.00    -0.001 A 
ATOM     25  C   UNL     1      -1.763  -8.661   2.007  0.00  0.00    +0.012 A 
ATOM     26  C   UNL     1      -2.577  -8.856   0.907  0.00  0.00    +0.008 A 
ATOM     27  C   UNL     1      -2.865  -7.800   0.107  0.00  0.00    +0.045 A 
ATOM     28  S   UNL     1      -1.979  -6.475   0.911  0.00  0.00    -0.101 S 
ENDBRANCH   7  24
BRANCH   1  29
ATOM     29  C   UNL     1       1.784  -2.533   2.349  0.00  0.00    +0.246 C 
BRANCH  29  30
ATOM     30  C   UNL     1       1.127  -1.976   1.113  0.00  0.00    +0.327 C 
ATOM     31  O   UNL     1       0.628  -2.723   0.305  0.00  0.00    -0.249 OA
BRANCH  30  32
ATOM     32  O   UNL     1       1.096  -0.650   0.909  0.00  0.00    -0.464 OA
BRANCH  32  34
ATOM     33  C   UNL     1       0.521   1.336  -0.342  0.00  0.00    +0.048 C 
ATOM     34  C   UNL     1       0.457  -0.191  -0.284  0.00  0.00    +0.229 C 
ENDBRANCH  32  34
ENDBRANCH  30  32
ENDBRANCH  29  30
ENDBRANCH   1  29
TORSDOF 7
