REMARK  Name = ZINC08985827
REMARK  8 active torsions:
REMARK  status: ('A' for Active; 'I' for Inactive)
REMARK    1  A    between atoms: C_1  and  C_2
REMARK    2  A    between atoms: C_5  and  C_8
REMARK    3  A    between atoms: C_11  and  C_14
REMARK    4  A    between atoms: C_19  and  C_21
REMARK    5  A    between atoms: C_21  and  S_22
REMARK    6  A    between atoms: S_22  and  C_23
REMARK    7  A    between atoms: C_26  and  C_29
REMARK    8  A    between atoms: N_27  and  N_28
REMARK                            x       y       z     vdW  Elec       q    Type
REMARK                         _______ _______ _______ _____ _____    ______ ____
ROOT
ATOM      1  C   UNL     1       8.632   6.293  -0.043  0.00  0.00    +0.069 C 
ATOM      2  N   UNL     1       7.728   5.376  -0.041  0.00  0.00    -0.181 NA
ATOM      3  N   UNL     1       8.233   4.078  -0.052  0.00  0.00    -0.181 N 
ATOM      4  C   UNL     1       9.703   4.139  -0.060  0.00  0.00    +0.173 C 
ATOM      5  C   UNL     1      10.002   5.652  -0.059  0.00  0.00    +0.090 C 
ATOM      6  C   UNL     1       7.496   2.950  -0.051  0.00  0.00    +0.246 C 
ATOM      7  O   UNL     1       8.043   1.867  -0.062  0.00  0.00    -0.273 OA
ENDROOT
BRANCH   1  12
ATOM      8  C   UNL     1       7.620  11.955  -0.000  0.00  0.00    +0.044 C 
ATOM      9  C   UNL     1       7.885  10.471  -0.011  0.00  0.00    -0.050 A 
ATOM     10  C   UNL     1       6.825   9.582  -0.007  0.00  0.00    +0.004 A 
ATOM     11  C   UNL     1       7.060   8.223  -0.018  0.00  0.00    +0.010 A 
ATOM     12  C   UNL     1       8.373   7.745  -0.033  0.00  0.00    -0.002 A 
ATOM     13  C   UNL     1       9.438   8.648  -0.031  0.00  0.00    +0.010 A 
ATOM     14  C   UNL     1       9.188  10.005  -0.026  0.00  0.00    +0.004 A 
ENDBRANCH   1  12
BRANCH   4  15
ATOM     15  C   UNL     1      10.268   3.485   1.175  0.00  0.00    +0.128 A 
ATOM     16  C   UNL     1      11.376   2.725   1.225  0.00  0.00    +0.046 A 
ATOM     17  C   UNL     1      11.535   2.320   2.571  0.00  0.00    +0.041 A 
ATOM     18  C   UNL     1      10.513   2.857   3.262  0.00  0.00    +0.195 A 
ATOM     19  O   UNL     1       9.752   3.566   2.412  0.00  0.00    -0.466 OA
ENDBRANCH   4  15
BRANCH   6  20
ATOM     20  C   UNL     1       5.991   3.033  -0.037  0.00  0.00    +0.175 C 
BRANCH  20  21
ATOM     21  S   UNL     1       5.294   1.363  -0.039  0.00  0.00    -0.075 S 
BRANCH  21  22
ATOM     22  C   UNL     1       3.575   1.748  -0.022  0.00  0.00    +0.209 A 
ATOM     23  N   UNL     1       3.044   2.949  -0.010  0.00  0.00    -0.121 NA
ATOM     24  N   UNL     1       1.762   2.859   0.001  0.00  0.00    -0.132 NA
ATOM     25  C   UNL     1       1.401   1.607  -0.003  0.00  0.00    +0.154 A 
ATOM     26  N   UNL     1       2.543   0.854  -0.012  0.00  0.00    -0.228 N 
BRANCH  25  27
ATOM     27  C   UNL     1      -0.013   1.086   0.008  0.00  0.00    +0.059 C 
ATOM     28  C   UNL     1      -0.729   1.579   1.267  0.00  0.00    +0.011 C 
ATOM     29  C   UNL     1      -2.164   1.050   1.278  0.00  0.00    +0.001 C 
ATOM     30  C   UNL     1      -2.904   1.556   0.038  0.00  0.00    +0.000 C 
ATOM     31  C   UNL     1      -2.188   1.063  -1.221  0.00  0.00    +0.001 C 
ATOM     32  C   UNL     1      -0.753   1.593  -1.232  0.00  0.00    +0.011 C 
ENDBRANCH  25  27
BRANCH  26  33
ATOM     33  N   UNL     1       2.632  -0.509  -0.014  0.00  0.00    -0.295 N 
ATOM     34  H   UNL     1       2.648  -0.868  -0.957  0.00  0.00    +0.163 HD
ATOM     35  H   UNL     1       3.439  -0.819   0.505  0.00  0.00    +0.163 HD
ENDBRANCH  26  33
ENDBRANCH  21  22
ENDBRANCH  20  21
ENDBRANCH   6  20
TORSDOF 7
