REMARK  Name = ZINC09616846
REMARK  3 active torsions:
REMARK  status: ('A' for Active; 'I' for Inactive)
REMARK    1  A    between atoms: C_1  and  C_2
REMARK    2  A    between atoms: C_3  and  N_13
REMARK    3  A    between atoms: C_14  and  C_16
REMARK                            x       y       z     vdW  Elec       q    Type
REMARK                         _______ _______ _______ _____ _____    ______ ____
ROOT
ATOM      1  N   UNL     1       4.842   5.326  -0.018  0.00  0.00    -0.276 N 
ATOM      2  C   UNL     1       4.842   3.990  -0.196  0.00  0.00    +0.255 C 
ATOM      3  O   UNL     1       5.891   3.398  -0.362  0.00  0.00    -0.270 OA
ATOM      4  H   UNL     1       4.003   5.808   0.042  0.00  0.00    +0.155 HD
ENDROOT
BRANCH   1   7
ATOM      5  C   UNL     1       5.382   7.411  -1.893  0.00  0.00    +0.068 C 
ATOM      6  C   UNL     1       6.362   7.039  -0.810  0.00  0.00    +0.067 A 
ATOM      7  C   UNL     1       6.058   6.020   0.079  0.00  0.00    +0.121 A 
ATOM      8  C   UNL     1       6.988   5.699   1.083  0.00  0.00    +0.280 A 
ATOM      9  O   UNL     1       6.751   4.810   1.886  0.00  0.00    -0.265 OA
ATOM     10  N   UNL     1       8.149   6.385   1.140  0.00  0.00    -0.267 N 
ATOM     11  C   UNL     1       9.063   6.082   2.105  0.00  0.00    +0.096 A 
ATOM     12  C   UNL     1      10.230   6.758   2.187  0.00  0.00    +0.018 A 
ATOM     13  C   UNL     1      10.515   7.786   1.276  0.00  0.00    +0.005 A 
ATOM     14  C   UNL     1       9.609   8.098   0.309  0.00  0.00    +0.047 A 
ATOM     15  C   UNL     1       8.398   7.382   0.238  0.00  0.00    +0.141 A 
ATOM     16  N   UNL     1       7.512   7.687  -0.707  0.00  0.00    -0.232 NA
ENDBRANCH   1   7
BRANCH   2  17
ATOM     17  C   UNL     1       3.570   3.247  -0.188  0.00  0.00    +0.122 A 
ATOM     18  C   UNL     1       2.369   3.908   0.000  0.00  0.00    +0.031 A 
ATOM     19  C   UNL     1       1.169   3.153  -0.000  0.00  0.00    +0.018 A 
ATOM     20  C   UNL     1      -0.067   3.792   0.188  0.00  0.00    +0.011 A 
ATOM     21  C   UNL     1      -1.218   3.059   0.186  0.00  0.00    +0.001 A 
ATOM     22  C   UNL     1      -1.177   1.684  -0.006  0.00  0.00    +0.004 A 
ATOM     23  C   UNL     1       0.026   1.036  -0.187  0.00  0.00    +0.047 A 
ATOM     24  C   UNL     1       1.213   1.760  -0.189  0.00  0.00    +0.139 A 
ATOM     25  O   UNL     1       2.389   1.123  -0.372  0.00  0.00    -0.422 OA
ATOM     26  C   UNL     1       3.554   1.792  -0.381  0.00  0.00    +0.350 A 
ATOM     27  O   UNL     1       4.598   1.190  -0.547  0.00  0.00    -0.244 OA
ENDBRANCH   2  17
TORSDOF 2
