REMARK  Name = ZINC00917032
REMARK  10 active torsions:
REMARK  status: ('A' for Active; 'I' for Inactive)
REMARK    1  A    between atoms: C_1  and  O_2
REMARK    2  A    between atoms: O_2  and  C_3
REMARK    3  A    between atoms: C_6  and  S_9
REMARK    4  A    between atoms: S_9  and  N_12
REMARK    5  A    between atoms: N_12  and  C_13
REMARK    6  A    between atoms: N_12  and  C_23
REMARK    7  A    between atoms: C_13  and  C_14
REMARK    8  A    between atoms: C_23  and  C_24
REMARK    9  A    between atoms: C_29  and  O_36
REMARK   10  A    between atoms: O_36  and  C_37
REMARK                            x       y       z     vdW  Elec       q    Type
REMARK                         _______ _______ _______ _____ _____    ______ ____
ROOT
ATOM      1  N   UNL     1      -2.938   9.404   2.479  0.00  0.00    -0.168 NA
ENDROOT
BRANCH   1   2
ATOM      2  S   UNL     1      -4.163   9.692   3.556  0.00  0.00    +0.061 S 
ATOM      3  O   UNL     1      -5.377   9.388   2.881  0.00  0.00    -0.153 OA
ATOM      4  O   UNL     1      -3.790   9.061   4.773  0.00  0.00    -0.153 OA
BRANCH   2   8
ATOM      5  C   UNL     1      -4.213  14.147   4.366  0.00  0.00    +0.120 A 
ATOM      6  C   UNL     1      -5.037  13.609   3.388  0.00  0.00    +0.047 A 
ATOM      7  C   UNL     1      -5.020  12.250   3.143  0.00  0.00    +0.032 A 
ATOM      8  C   UNL     1      -4.183  11.425   3.871  0.00  0.00    +0.106 A 
ATOM      9  C   UNL     1      -3.365  11.957   4.851  0.00  0.00    +0.032 A 
ATOM     10  C   UNL     1      -3.374  13.317   5.096  0.00  0.00    +0.047 A 
BRANCH   5  12
ATOM     11  C   UNL     1      -3.354  15.967   5.631  0.00  0.00    +0.277 C 
ATOM     12  O   UNL     1      -4.228  15.484   4.609  0.00  0.00    -0.495 OA
ENDBRANCH   5  12
ENDBRANCH   2   8
ENDBRANCH   1   2
BRANCH   1  13
ATOM     13  C   UNL     1      -3.199   9.467   1.039  0.00  0.00    +0.145 C 
BRANCH  13  14
ATOM     14  C   UNL     1      -2.867  10.845   0.528  0.00  0.00    -0.028 A 
ATOM     15  C   UNL     1      -3.867  11.791   0.396  0.00  0.00    +0.009 A 
ATOM     16  C   UNL     1      -3.566  13.058  -0.067  0.00  0.00    +0.050 A 
ATOM     17  C   UNL     1      -2.263  13.380  -0.412  0.00  0.00    +0.166 A 
ATOM     18  C   UNL     1      -1.257  12.425  -0.284  0.00  0.00    +0.167 A 
ATOM     19  C   UNL     1      -1.565  11.159   0.187  0.00  0.00    +0.054 A 
ATOM     20  O   UNL     1      -0.075  12.980  -0.682  0.00  0.00    -0.453 OA
ATOM     21  C   UNL     1      -0.437  14.151  -1.439  0.00  0.00    +0.466 C 
ATOM     22  O   UNL     1      -1.712  14.533  -0.890  0.00  0.00    -0.453 OA
ENDBRANCH  13  14
ENDBRANCH   1  13
BRANCH   1  23
ATOM     23  C   UNL     1      -1.594   9.086   2.967  0.00  0.00    +0.150 C 
BRANCH  23  24
ATOM     24  C   UNL     1      -1.244   7.670   2.588  0.00  0.00    +0.033 A 
ATOM     25  C   UNL     1      -0.528   7.429   1.460  0.00  0.00    +0.020 A 
ATOM     26  C   UNL     1      -0.204   6.044   1.121  0.00  0.00    -0.001 A 
ATOM     27  C   UNL     1       0.531   5.735  -0.030  0.00  0.00    +0.013 A 
ATOM     28  C   UNL     1       0.823   4.434  -0.319  0.00  0.00    +0.046 A 
ATOM     29  C   UNL     1       0.385   3.408   0.517  0.00  0.00    +0.122 A 
ATOM     30  C   UNL     1      -0.343   3.693   1.659  0.00  0.00    +0.072 A 
ATOM     31  C   UNL     1      -0.644   5.012   1.972  0.00  0.00    +0.053 A 
ATOM     32  N   UNL     1      -1.368   5.324   3.104  0.00  0.00    -0.322 N 
ATOM     33  H   UNL     1      -1.679   4.591   3.708  0.00  0.00    +0.169 HD
ATOM     34  C   UNL     1      -1.660   6.601   3.408  0.00  0.00    +0.254 A 
ATOM     35  O   UNL     1      -2.302   6.840   4.416  0.00  0.00    -0.268 OA
BRANCH  29  36
ATOM     36  O   UNL     1       0.680   2.119   0.211  0.00  0.00    -0.495 OA
ATOM     37  C   UNL     1       1.434   1.891  -0.981  0.00  0.00    +0.277 C 
ENDBRANCH  29  36
ENDBRANCH  23  24
ENDBRANCH   1  23
TORSDOF 8
