REMARK  Name = ZINC04517210
REMARK  9 active torsions:
REMARK  status: ('A' for Active; 'I' for Inactive)
REMARK    1  A    between atoms: C_1  and  C_2
REMARK    2  A    between atoms: C_3  and  C_20
REMARK    3  A    between atoms: C_12  and  N_16
REMARK    4  A    between atoms: C_13  and  C_14
REMARK    5  A    between atoms: C_20  and  O_22
REMARK    6  A    between atoms: O_22  and  C_23
REMARK    7  A    between atoms: C_23  and  C_24
REMARK    8  A    between atoms: C_23  and  C_25
REMARK    9  A    between atoms: C_23  and  C_26
REMARK                            x       y       z     vdW  Elec       q    Type
REMARK                         _______ _______ _______ _____ _____    ______ ____
ROOT
ATOM      1  C   UNL     1       3.629   0.961  -0.027  0.00  0.00    +0.061 C 
ATOM      2  C   UNL     1       2.128   0.832  -0.014  0.00  0.00    +0.019 C 
ATOM      3  C   UNL     1       1.474  -0.347  -0.013  0.00  0.00    +0.078 C 
ATOM      4  C   UNL     1       0.002  -0.004   0.002  0.00  0.00    +0.148 C 
ATOM      5  C   UNL     1      -0.669  -0.530  -1.234  0.00  0.00    +0.020 A 
ATOM      6  C   UNL     1      -0.455   0.092  -2.451  0.00  0.00    +0.009 A 
ATOM      7  C   UNL     1      -1.070  -0.385  -3.593  0.00  0.00    +0.001 A 
ATOM      8  C   UNL     1      -1.902  -1.488  -3.522  0.00  0.00    +0.004 A 
ATOM      9  C   UNL     1      -2.119  -2.113  -2.311  0.00  0.00    +0.046 A 
ATOM     10  C   UNL     1      -1.503  -1.635  -1.160  0.00  0.00    +0.135 A 
ATOM     11  O   UNL     1      -1.726  -2.259   0.023  0.00  0.00    -0.441 OA
ATOM     12  C   UNL     1      -1.466  -1.627   1.180  0.00  0.00    +0.199 C 
ATOM     13  C   UNL     1      -0.650  -0.546   1.238  0.00  0.00    +0.110 C 
ATOM     14  C   UNL     1      -0.018   1.507   0.010  0.00  0.00    +0.238 C 
ATOM     15  O   UNL     1      -0.996   2.225   0.019  0.00  0.00    -0.274 OA
ATOM     16  N   UNL     1       1.273   1.894   0.000  0.00  0.00    -0.288 N 
ATOM     17  H   UNL     1       1.561   2.820   0.002  0.00  0.00    +0.155 HD
ENDROOT
BRANCH  12  18
ATOM     18  N   UNL     1      -2.044  -2.090   2.336  0.00  0.00    -0.328 N 
ATOM     19  H   UNL     1      -2.630  -2.862   2.310  0.00  0.00    +0.145 HD
ATOM     20  H   UNL     1      -1.866  -1.644   3.179  0.00  0.00    +0.145 HD
ENDBRANCH  12  18
BRANCH  13  21
ATOM     21  C   UNL     1      -0.406   0.087   2.500  0.00  0.00    +0.102 C 
ATOM     22  N   UNL     1      -0.213   0.589   3.500  0.00  0.00    -0.191 NA
ENDBRANCH  13  21
BRANCH   3  23
ATOM     23  C   UNL     1       2.049  -1.640  -0.025  0.00  0.00    +0.339 C 
ATOM     24  O   UNL     1       3.259  -1.768  -0.037  0.00  0.00    -0.245 OA
BRANCH  23  25
ATOM     25  O   UNL     1       1.255  -2.731  -0.023  0.00  0.00    -0.456 OA
BRANCH  25  26
ATOM     26  C   UNL     1       1.902  -4.005  -0.035  0.00  0.00    +0.106 C 
ATOM     27  C   UNL     1       2.788  -4.139   1.205  0.00  0.00    +0.055 C 
ATOM     28  C   UNL     1       0.847  -5.113  -0.030  0.00  0.00    +0.055 C 
ATOM     29  C   UNL     1       2.764  -4.127  -1.293  0.00  0.00    +0.055 C 
ENDBRANCH  25  26
ENDBRANCH  23  25
ENDBRANCH   3  23
TORSDOF 5
