REMARK  Name = ZINC24893263
REMARK  5 active torsions:
REMARK  status: ('A' for Active; 'I' for Inactive)
REMARK    1  A    between atoms: C_3  and  C_6
REMARK    2  A    between atoms: C_6  and  C_8
REMARK    3  A    between atoms: C_6  and  N_23
REMARK    4  A    between atoms: C_8  and  N_9
REMARK    5  A    between atoms: C_16  and  C_19
REMARK                            x       y       z     vdW  Elec       q    Type
REMARK                         _______ _______ _______ _____ _____    ______ ____
ROOT
ATOM      1  N   UNL     1      -2.715   3.524  -0.873  0.00  0.00    -0.329 N 
ATOM      2  C   UNL     1      -1.741   2.698  -1.424  0.00  0.00    +0.140 A 
ATOM      3  C   UNL     1      -2.013   1.327  -1.605  0.00  0.00    +0.049 A 
ATOM      4  C   UNL     1      -1.067   0.509  -2.136  0.00  0.00    +0.053 A 
ATOM      5  C   UNL     1       0.177   1.052  -2.510  0.00  0.00    +0.178 A 
ATOM      6  N   UNL     1       1.276   0.542  -3.044  0.00  0.00    -0.128 NA
ATOM      7  N   UNL     1       2.148   1.477  -3.193  0.00  0.00    -0.123 NA
ATOM      8  C   UNL     1       1.665   2.618  -2.769  0.00  0.00    +0.258 A 
ATOM      9  N   UNL     1       0.410   2.392  -2.325  0.00  0.00    -0.187 N 
ATOM     10  N   UNL     1      -0.582   3.205  -1.772  0.00  0.00    -0.148 NA
ATOM     11  H   UNL     1      -2.511   4.596  -0.732  0.00  0.00    +0.147 HD
ENDROOT
BRANCH   8  12
ATOM     12  C   UNL     1       2.380   3.945  -2.775  0.00  0.00    +0.454 C 
ATOM     13  F   UNL     1       3.505   3.864  -3.603  0.00  0.00    -0.163 F 
ATOM     14  F   UNL     1       1.519   4.938  -3.253  0.00  0.00    -0.163 F 
ATOM     15  F   UNL     1       2.782   4.263  -1.473  0.00  0.00    -0.163 F 
ENDBRANCH   8  12
BRANCH   1  16
ATOM     16  C   UNL     1      -4.013   2.968  -0.482  0.00  0.00    +0.095 C 
BRANCH  16  17
ATOM     17  C   UNL     1      -4.850   4.054   0.195  0.00  0.00    +0.016 C 
BRANCH  17  18
ATOM     18  N   UNL     1      -4.953   5.219  -0.694  0.00  0.00    +0.387 N 
ATOM     19  C   UNL     1      -5.677   6.317  -0.042  0.00  0.00    -0.078 C 
ATOM     20  C   UNL     1      -5.638   7.558  -0.936  0.00  0.00    -0.019 C 
ATOM     21  C   UNL     1      -6.281   7.229  -2.287  0.00  0.00    -0.004 C 
ATOM     22  C   UNL     1      -5.538   6.051  -2.923  0.00  0.00    -0.019 C 
ATOM     23  C   UNL     1      -5.580   4.853  -1.970  0.00  0.00    -0.078 C 
ATOM     24  H   UNL     1      -3.933   5.572  -0.911  0.00  0.00    -0.081 HD
ENDBRANCH  17  18
BRANCH  17  27
ATOM     25  C   UNL     1      -8.040   2.753   1.505  0.00  0.00    +0.041 A 
ATOM     26  C   UNL     1      -6.718   3.214   1.698  0.00  0.00    +0.043 A 
ATOM     27  C   UNL     1      -6.229   3.519   0.482  0.00  0.00    +0.093 A 
ATOM     28  O   UNL     1      -7.178   3.260  -0.432  0.00  0.00    -0.469 OA
ATOM     29  C   UNL     1      -8.278   2.795   0.182  0.00  0.00    +0.195 A 
ENDBRANCH  17  27
ENDBRANCH  16  17
ENDBRANCH   1  16
TORSDOF 5
