REMARK  Name = ZINC13142009
REMARK  8 active torsions:
REMARK  status: ('A' for Active; 'I' for Inactive)
REMARK    1  A    between atoms: C_1  and  C_2
REMARK    2  A    between atoms: C_5  and  C_35
REMARK    3  A    between atoms: C_10  and  C_12
REMARK    4  A    between atoms: C_12  and  O_13
REMARK    5  A    between atoms: O_13  and  C_14
REMARK    6  A    between atoms: C_14  and  C_16
REMARK    7  A    between atoms: C_20  and  S_22
REMARK    8  A    between atoms: S_22  and  N_25
REMARK                            x       y       z     vdW  Elec       q    Type
REMARK                         _______ _______ _______ _____ _____    ______ ____
ROOT
ATOM      1  C   UNL     1      -2.893   4.984  -3.505  0.00  0.00    +0.061 A 
ATOM      2  C   UNL     1      -1.726   4.898  -4.267  0.00  0.00    +0.016 A 
ATOM      3  C   UNL     1      -0.576   4.383  -3.706  0.00  0.00    +0.023 A 
ATOM      4  C   UNL     1      -0.578   3.952  -2.389  0.00  0.00    +0.068 A 
ATOM      5  C   UNL     1      -1.732   4.036  -1.628  0.00  0.00    +0.128 A 
ATOM      6  C   UNL     1      -2.889   4.544  -2.180  0.00  0.00    +0.045 A 
ATOM      7 CL   UNL     1       0.874   3.305  -1.690  0.00  0.00    -0.082 Cl
ENDROOT
BRANCH   5   8
ATOM      8  S   UNL     1      -1.724   3.485   0.045  0.00  0.00    +0.076 S 
ATOM      9  O   UNL     1      -3.026   3.728   0.559  0.00  0.00    -0.150 OA
ATOM     10  O   UNL     1      -0.555   4.027   0.646  0.00  0.00    -0.150 OA
BRANCH   8  11
ATOM     11  N   UNL     1      -1.524   1.842   0.019  0.00  0.00    -0.202 N 
ATOM     12  C   UNL     1      -0.248   1.148   0.217  0.00  0.00    +0.136 C 
ATOM     13  C   UNL     1      -0.582  -0.349   0.102  0.00  0.00    +0.058 C 
ATOM     14  C   UNL     1      -2.071  -0.387  -0.155  0.00  0.00    -0.023 A 
ATOM     15  C   UNL     1      -2.547   0.915  -0.187  0.00  0.00    +0.054 A 
ATOM     16  C   UNL     1      -3.907   1.134  -0.413  0.00  0.00    +0.025 A 
ATOM     17  C   UNL     1      -4.761   0.068  -0.601  0.00  0.00    +0.002 A 
ATOM     18  C   UNL     1      -4.277  -1.227  -0.567  0.00  0.00    +0.000 A 
ATOM     19  C   UNL     1      -2.931  -1.452  -0.344  0.00  0.00    +0.005 A 
ENDBRANCH   8  11
ENDBRANCH   5   8
BRANCH   1  20
ATOM     20  C   UNL     1      -4.128   5.534  -4.100  0.00  0.00    +0.340 C 
ATOM     21  O   UNL     1      -5.142   5.608  -3.436  0.00  0.00    -0.245 OA
BRANCH  20  22
ATOM     22  O   UNL     1      -4.130   5.953  -5.381  0.00  0.00    -0.452 OA
BRANCH  22  23
ATOM     23  C   UNL     1      -5.378   6.481  -5.900  0.00  0.00    +0.328 C 
BRANCH  23  31
ATOM     24  C   UNL     1      -7.054   7.658 -11.713  0.00  0.00    +0.009 C 
ATOM     25  C   UNL     1      -7.129   7.141 -10.275  0.00  0.00    +0.004 C 
ATOM     26  C   UNL     1      -8.509   7.451  -9.691  0.00  0.00    +0.009 C 
ATOM     27  C   UNL     1      -8.596   6.904  -8.264  0.00  0.00    +0.004 C 
ATOM     28  C   UNL     1      -7.539   7.584  -7.396  0.00  0.00    +0.111 C 
ATOM     29  N   UNL     1      -6.222   7.419  -8.027  0.00  0.00    -0.298 N 
ATOM     30  C   UNL     1      -6.054   7.829  -9.428  0.00  0.00    +0.111 C 
ATOM     31  C   UNL     1      -5.190   6.896  -7.336  0.00  0.00    +0.253 C 
ATOM     32  O   UNL     1      -4.109   6.760  -7.870  0.00  0.00    -0.272 OA
ATOM     33  C   UNL     1      -9.987   7.186  -7.693  0.00  0.00    +0.009 C 
ENDBRANCH  23  31
ENDBRANCH  22  23
ENDBRANCH  20  22
ENDBRANCH   1  20
TORSDOF 6
