REMARK  Name = ZINC65364440
REMARK  5 active torsions:
REMARK  status: ('A' for Active; 'I' for Inactive)
REMARK    1  A    between atoms: C_1  and  N_2
REMARK    2  A    between atoms: N_2  and  C_3
REMARK    3  A    between atoms: N_2  and  S_22
REMARK    4  A    between atoms: C_7  and  C_9
REMARK    5  A    between atoms: S_22  and  C_25
REMARK                            x       y       z     vdW  Elec       q    Type
REMARK                         _______ _______ _______ _____ _____    ______ ____
ROOT
ATOM      1  C   UNL     1      -1.006  -0.226   4.793  0.00  0.00    +0.251 C 
ATOM      2  O   UNL     1      -0.912   0.973   4.968  0.00  0.00    -0.270 OA
ATOM      3  N   UNL     1      -1.635  -0.993   5.705  0.00  0.00    -0.257 N 
ATOM      4  C   UNL     1      -1.696  -2.455   5.556  0.00  0.00    +0.210 C 
ATOM      5  C   UNL     1      -3.080  -2.929   5.917  0.00  0.00    +0.235 C 
ATOM      6  O   UNL     1      -3.524  -3.932   5.399  0.00  0.00    -0.274 OA
ATOM      7  N   UNL     1      -3.829  -2.254   6.809  0.00  0.00    -0.283 N 
ATOM      8  C   UNL     1      -3.361  -1.067   7.383  0.00  0.00    +0.055 A 
ATOM      9  C   UNL     1      -2.249  -0.423   6.830  0.00  0.00    +0.058 A 
ATOM     10  C   UNL     1      -1.773   0.751   7.386  0.00  0.00    +0.025 A 
ATOM     11  C   UNL     1      -2.398   1.286   8.499  0.00  0.00    +0.002 A 
ATOM     12  C   UNL     1      -3.492   0.650   9.055  0.00  0.00    +0.002 A 
ATOM     13  C   UNL     1      -3.983  -0.525   8.496  0.00  0.00    +0.025 A 
ATOM     14  H   UNL     1      -4.704  -2.594   7.055  0.00  0.00    +0.155 HD
ENDROOT
BRANCH   1  19
ATOM     15  C   UNL     1      -0.073  -0.827   1.199  0.00  0.00    +0.051 A 
ATOM     16  C   UNL     1       0.651  -2.008   1.306  0.00  0.00    +0.025 A 
ATOM     17  C   UNL     1       0.834  -2.604   2.539  0.00  0.00    +0.003 A 
ATOM     18  C   UNL     1       0.298  -2.030   3.674  0.00  0.00    +0.013 A 
ATOM     19  C   UNL     1      -0.431  -0.843   3.579  0.00  0.00    +0.039 A 
ATOM     20  C   UNL     1      -0.610  -0.238   2.334  0.00  0.00    +0.037 A 
BRANCH  15  22
ATOM     21  C   UNL     1      -0.499   1.213  -0.144  0.00  0.00    +0.157 C 
ATOM     22  N   UNL     1      -0.255  -0.229  -0.050  0.00  0.00    -0.211 N 
BRANCH  22  23
ATOM     23  S   UNL     1      -0.195  -1.149  -1.425  0.00  0.00    +0.042 S 
ATOM     24  O   UNL     1      -0.563  -2.455  -1.004  0.00  0.00    -0.155 OA
ATOM     25  O   UNL     1      -0.987  -0.442  -2.370  0.00  0.00    -0.155 OA
ATOM     26  C   UNL     1       1.548  -1.123  -1.927  0.00  0.00    +0.218 C 
ENDBRANCH  22  23
ENDBRANCH  15  22
ENDBRANCH   1  19
TORSDOF 3
