REMARK  Name = ZINC10139959
REMARK  8 active torsions:
REMARK  status: ('A' for Active; 'I' for Inactive)
REMARK    1  A    between atoms: C_1  and  C_2
REMARK    2  A    between atoms: C_2  and  C_4
REMARK    3  A    between atoms: C_2  and  N_57
REMARK    4  A    between atoms: N_6  and  C_7
REMARK    5  A    between atoms: C_9  and  N_15
REMARK    6  A    between atoms: C_12  and  O_13
REMARK    7  A    between atoms: O_13  and  C_14
REMARK    8  A    between atoms: C_20  and  C_23
REMARK                            x       y       z     vdW  Elec       q    Type
REMARK                         _______ _______ _______ _____ _____    ______ ____
ROOT
ATOM      1  C   UNL     1      -3.528  10.114   0.042  0.00  0.00    -0.004 C 
ATOM      2  C   UNL     1      -2.045  10.485   0.096  0.00  0.00    +0.016 C 
ENDROOT
BRANCH   2   8
ATOM      3  C   UNL     1      -1.460   8.464   1.294  0.00  0.00    -0.077 C 
ATOM      4  C   UNL     1      -0.496   7.276   1.314  0.00  0.00    -0.011 C 
ATOM      5  C   UNL     1      -0.726   6.418   0.067  0.00  0.00    +0.018 C 
ATOM      6  C   UNL     1      -0.530   7.282  -1.181  0.00  0.00    -0.011 C 
ATOM      7  C   UNL     1      -1.494   8.470  -1.129  0.00  0.00    -0.077 C 
ATOM      8  N   UNL     1      -1.205   9.269   0.081  0.00  0.00    +0.387 N 
ATOM      9  H   UNL     1      -0.216   9.548   0.068  0.00  0.00    -0.081 HD
BRANCH   5  10
ATOM     10  C   UNL     1       0.262   5.279   0.051  0.00  0.00    -0.019 A 
ATOM     11  C   UNL     1       1.600   5.383   0.030  0.00  0.00    +0.087 A 
ATOM     12  N   UNL     1       2.164   4.137   0.021  0.00  0.00    -0.360 N 
ATOM     13  H   UNL     1       3.118   3.957   0.006  0.00  0.00    +0.165 HD
ATOM     14  C   UNL     1       1.178   3.176   0.036  0.00  0.00    +0.047 A 
ATOM     15  C   UNL     1      -0.057   3.849   0.055  0.00  0.00    +0.003 A 
ATOM     16  C   UNL     1      -1.247   3.121   0.074  0.00  0.00    +0.010 A 
ATOM     17  C   UNL     1      -1.207   1.755   0.067  0.00  0.00    +0.001 A 
ATOM     18  C   UNL     1       0.009   1.085   0.054  0.00  0.00    +0.002 A 
ATOM     19  C   UNL     1       1.196   1.785   0.035  0.00  0.00    +0.026 A 
ENDBRANCH   5  10
ENDBRANCH   2   8
BRANCH   2  20
ATOM     20  C   UNL     1      -1.696  11.333  -1.100  0.00  0.00    +0.203 C 
ATOM     21  O   UNL     1      -0.854  10.955  -1.887  0.00  0.00    -0.277 OA
ATOM     22  N   UNL     1      -2.319  12.511  -1.295  0.00  0.00    -0.284 N 
ATOM     23  H   UNL     1      -3.048  12.777  -0.712  0.00  0.00    +0.155 HD
BRANCH  22  24
ATOM     24  C   UNL     1      -1.915  13.353  -2.340  0.00  0.00    +0.078 A 
ATOM     25  C   UNL     1      -0.622  13.274  -2.837  0.00  0.00    +0.059 A 
ATOM     26  C   UNL     1      -0.226  14.105  -3.867  0.00  0.00    +0.128 A 
ATOM     27  C   UNL     1      -1.115  15.017  -4.405  0.00  0.00    +0.036 A 
ATOM     28  C   UNL     1      -2.405  15.102  -3.915  0.00  0.00    +0.050 A 
ATOM     29  C   UNL     1      -2.812  14.269  -2.886  0.00  0.00    +0.141 A 
BRANCH  26  30
ATOM     30  N   UNL     1       1.154  14.019  -4.396  0.00  0.00    +0.056 N 
ATOM     31  O   UNL     1       1.938  13.216  -3.923  0.00  0.00    -0.126 OA
ATOM     32  O   UNL     1       1.505  14.751  -5.304  0.00  0.00    -0.126 OA
ENDBRANCH  26  30
BRANCH  29  33
ATOM     33  O   UNL     1      -4.082  14.347  -2.407  0.00  0.00    -0.493 OA
ATOM     34  C   UNL     1      -4.947  15.309  -3.015  0.00  0.00    +0.277 C 
ENDBRANCH  29  33
ENDBRANCH  22  24
ENDBRANCH   2  20
TORSDOF 6
