REMARK  Name = ZINC39631528
REMARK  12 active torsions:
REMARK  status: ('A' for Active; 'I' for Inactive)
REMARK    1  A    between atoms: C_1  and  C_2
REMARK    2  A    between atoms: C_2  and  C_3
REMARK    3  A    between atoms: C_7  and  C_16
REMARK    4  A    between atoms: N_18  and  C_19
REMARK    5  A    between atoms: C_19  and  C_21
REMARK    6  A    between atoms: C_19  and  C_22
REMARK    7  A    between atoms: C_22  and  C_23
REMARK    8  A    between atoms: C_23  and  C_24
REMARK    9  A    between atoms: C_24  and  C_25
REMARK   10  A    between atoms: C_25  and  C_26
REMARK   11  A    between atoms: C_25  and  C_27
REMARK   12  A    between atoms: C_25  and  O_28
REMARK                            x       y       z     vdW  Elec       q    Type
REMARK                         _______ _______ _______ _____ _____    ______ ____
ROOT
ATOM      1  C   UNL     1       0.659  -0.530  -0.907  0.00  0.00    +0.215 C 
ATOM      2  O   UNL     1       1.097   0.345  -1.623  0.00  0.00    -0.276 OA
ATOM      3  N   UNL     1       0.817  -1.824  -1.249  0.00  0.00    -0.300 N 
ATOM      4  C   UNL     1       0.349  -3.022  -0.512  0.00  0.00    +0.121 C 
ATOM      5  C   UNL     1      -0.137  -3.992  -1.612  0.00  0.00    +0.100 C 
ATOM      6  C   UNL     1       0.621  -3.560  -2.879  0.00  0.00    -0.004 C 
ATOM      7  C   UNL     1       1.492  -2.370  -2.450  0.00  0.00    +0.115 C 
ATOM      8  C   UNL     1      -0.362  -3.124  -3.961  0.00  0.00    -0.010 C 
ATOM      9  C   UNL     1       0.412  -2.754  -5.229  0.00  0.00    -0.082 C 
ATOM     10  N   UNL     1       1.190  -3.913  -5.685  0.00  0.00    +0.379 N 
ATOM     11  C   UNL     1       2.196  -4.268  -4.677  0.00  0.00    -0.082 C 
ATOM     12  C   UNL     1       1.497  -4.702  -3.385  0.00  0.00    -0.010 C 
ATOM     13  H   UNL     1       0.570  -4.696  -5.830  0.00  0.00    -0.086 HD
ATOM     14  H   UNL     1       1.651  -3.686  -6.553  0.00  0.00    -0.086 HD
ENDROOT
BRANCH   5  15
ATOM     15  C   UNL     1      -1.624  -3.852  -1.815  0.00  0.00    +0.218 C 
ATOM     16  O   UNL     1      -2.165  -2.784  -1.621  0.00  0.00    -0.275 OA
ATOM     17  N   UNL     1      -2.353  -4.914  -2.211  0.00  0.00    -0.312 N 
ATOM     18  H   UNL     1      -1.920  -5.769  -2.366  0.00  0.00    +0.149 HD
BRANCH  17  19
ATOM     19  C   UNL     1      -3.798  -4.779  -2.408  0.00  0.00    +0.070 C 
ATOM     20  C   UNL     1      -4.073  -4.249  -3.817  0.00  0.00    +0.028 C 
BRANCH  19  21
ATOM     21  C   UNL     1      -4.466  -6.144  -2.237  0.00  0.00    +0.022 C 
BRANCH  21  22
ATOM     22  C   UNL     1      -4.297  -6.617  -0.792  0.00  0.00    +0.005 C 
BRANCH  22  23
ATOM     23  C   UNL     1      -4.966  -7.982  -0.620  0.00  0.00    +0.034 C 
BRANCH  23  24
ATOM     24  C   UNL     1      -4.797  -8.455   0.825  0.00  0.00    +0.061 C 
ATOM     25  C   UNL     1      -5.355  -9.873   0.966  0.00  0.00    +0.041 C 
ATOM     26  C   UNL     1      -3.311  -8.453   1.192  0.00  0.00    +0.041 C 
BRANCH  24  27
ATOM     27  O   UNL     1      -5.505  -7.575   1.700  0.00  0.00    -0.389 OA
ATOM     28  H   UNL     1      -5.442  -7.815   2.635  0.00  0.00    +0.210 HD
ENDBRANCH  24  27
ENDBRANCH  23  24
ENDBRANCH  22  23
ENDBRANCH  21  22
ENDBRANCH  19  21
ENDBRANCH  17  19
ENDBRANCH   5  15
BRANCH   1  30
ATOM     29  C   UNL     1      -0.104   1.352   0.516  0.00  0.00    +0.013 C 
ATOM     30  C   UNL     1      -0.063  -0.170   0.366  0.00  0.00    +0.092 C 
ENDBRANCH   1  30
TORSDOF 8
