REMARK  Name = ZINC12504776
REMARK  7 active torsions:
REMARK  status: ('A' for Active; 'I' for Inactive)
REMARK    1  A    between atoms: C_1  and  C_2
REMARK    2  A    between atoms: C_2  and  N_3
REMARK    3  A    between atoms: N_3  and  C_4
REMARK    4  A    between atoms: C_4  and  C_5
REMARK    5  A    between atoms: C_7  and  C_24
REMARK    6  A    between atoms: C_14  and  N_16
REMARK    7  A    between atoms: C_19  and  C_22
REMARK                            x       y       z     vdW  Elec       q    Type
REMARK                         _______ _______ _______ _____ _____    ______ ____
ROOT
ATOM      1  N   UNL     1      -0.229   2.867   1.359  0.00  0.00    -0.315 N 
ATOM      2  C   UNL     1      -0.882   3.393   2.457  0.00  0.00    +0.141 A 
ATOM      3  C   UNL     1      -0.925   4.786   2.631  0.00  0.00    +0.100 A 
ATOM      4  C   UNL     1      -1.627   5.301   3.807  0.00  0.00    +0.018 A 
ATOM      5  C   UNL     1      -1.746   6.657   4.093  0.00  0.00    +0.027 A 
ATOM      6  C   UNL     1      -2.420   7.061   5.232  0.00  0.00    +0.221 A 
ATOM      7  N   UNL     1      -2.966   6.150   6.045  0.00  0.00    -0.197 NA
ATOM      8  C   UNL     1      -2.893   4.851   5.825  0.00  0.00    +0.131 A 
ATOM      9  C   UNL     1      -2.217   4.362   4.693  0.00  0.00    +0.063 A 
ATOM     10  C   UNL     1      -2.101   2.989   4.405  0.00  0.00    +0.129 A 
ATOM     11  N   UNL     1      -1.461   2.575   3.325  0.00  0.00    -0.216 NA
ATOM     12  N   UNL     1      -3.485   3.967   6.709  0.00  0.00    -0.342 N 
ATOM     13  O   UNL     1      -2.411   8.417   5.350  0.00  0.00    -0.471 OA
ATOM     14  C   UNL     1      -2.121   9.004   4.071  0.00  0.00    +0.194 C 
ATOM     15  C   UNL     1      -1.276   7.908   3.380  0.00  0.00    +0.087 C 
ATOM     16  H   UNL     1      -3.425   2.884   6.527  0.00  0.00    +0.144 HD
ATOM     17  H   UNL     1      -4.015   4.348   7.595  0.00  0.00    +0.144 HD
ENDROOT
BRANCH  10  18
ATOM     18  N   UNL     1      -2.669   2.065   5.256  0.00  0.00    -0.343 N 
ATOM     19  H   UNL     1      -2.583   0.991   5.038  0.00  0.00    +0.144 HD
ATOM     20  H   UNL     1      -3.208   2.403   6.154  0.00  0.00    +0.144 HD
ENDBRANCH  10  18
BRANCH   1  22
ATOM     21  C   UNL     1      -0.221   1.059  -0.293  0.00  0.00    +0.024 C 
ATOM     22  C   UNL     1      -0.643   1.478   1.117  0.00  0.00    +0.103 C 
ENDBRANCH   1  22
BRANCH   1  23
ATOM     23  C   UNL     1       1.228   2.961   1.518  0.00  0.00    +0.103 C 
ATOM     24  C   UNL     1       1.653   2.209   2.781  0.00  0.00    +0.024 C 
ENDBRANCH   1  23
BRANCH  14  25
ATOM     25  C   UNL     1      -1.310  10.291   4.236  0.00  0.00    +0.153 C 
ATOM     26 CL   UNL     1      -2.323  11.539   5.053  0.00  0.00    -0.122 Cl
ENDBRANCH  14  25
BRANCH   3  27
ATOM     27  C   UNL     1      -0.305   5.670   1.691  0.00  0.00    +0.103 C 
ATOM     28  N   UNL     1       0.187   6.372   0.946  0.00  0.00    -0.191 NA
ENDBRANCH   3  27
TORSDOF 5
