REMARK  Name = ZINC52003560
REMARK  5 active torsions:
REMARK  status: ('A' for Active; 'I' for Inactive)
REMARK    1  A    between atoms: C_3  and  S_11
REMARK    2  A    between atoms: C_6  and  N_7
REMARK    3  A    between atoms: S_11  and  N_14
REMARK    4  A    between atoms: N_14  and  C_15
REMARK    5  A    between atoms: C_21  and  O_23
REMARK                            x       y       z     vdW  Elec       q    Type
REMARK                         _______ _______ _______ _____ _____    ______ ____
ROOT
ATOM      1  S   UNL     1       3.986   2.345  -0.061  0.00  0.00    +0.060 S 
ATOM      2  O   UNL     1       4.962   1.874  -0.980  0.00  0.00    -0.153 OA
ATOM      3  O   UNL     1       3.499   3.679  -0.085  0.00  0.00    -0.153 OA
ENDROOT
BRANCH   1   6
ATOM      4  C   UNL     1       1.494  -0.552  -1.302  0.00  0.00    +0.035 A 
ATOM      5  C   UNL     1       2.594   0.273  -1.166  0.00  0.00    +0.032 A 
ATOM      6  C   UNL     1       2.583   1.293  -0.234  0.00  0.00    +0.124 A 
ATOM      7  C   UNL     1       1.470   1.488   0.565  0.00  0.00    +0.069 A 
ATOM      8  C   UNL     1       0.369   0.661   0.429  0.00  0.00    +0.054 A 
ATOM      9  C   UNL     1       0.381  -0.358  -0.504  0.00  0.00    +0.128 A 
ATOM     10 CL   UNL     1       1.455   2.768   1.737  0.00  0.00    -0.081 Cl
BRANCH   9  11
ATOM     11  N   UNL     1      -0.797  -1.242  -0.650  0.00  0.00    +0.056 N 
ATOM     12  O   UNL     1      -0.786  -2.134  -1.467  0.00  0.00    -0.126 OA
ATOM     13  O   UNL     1      -1.770  -1.073   0.047  0.00  0.00    -0.126 OA
ENDBRANCH   9  11
ENDBRANCH   1   6
BRANCH   1  14
ATOM     14  N   UNL     1       4.603   2.094   1.455  0.00  0.00    -0.184 NA
ATOM     15  H   UNL     1       4.598   2.813   2.106  0.00  0.00    +0.148 HD
BRANCH  14  16
ATOM     16  C   UNL     1       5.155   0.785   1.814  0.00  0.00    +0.105 C 
ATOM     17  C   UNL     1       6.672   0.799   1.614  0.00  0.00    +0.023 C 
ATOM     18  C   UNL     1       7.249  -0.567   1.988  0.00  0.00    +0.002 C 
ATOM     19  C   UNL     1       6.930  -0.871   3.454  0.00  0.00    +0.003 C 
ATOM     20  C   UNL     1       5.414  -0.886   3.653  0.00  0.00    +0.033 C 
ATOM     21  C   UNL     1       4.837   0.481   3.279  0.00  0.00    +0.133 C 
BRANCH  21  22
ATOM     22  O   UNL     1       3.420   0.467   3.466  0.00  0.00    -0.390 OA
ATOM     23  H   UNL     1       3.145   0.280   4.373  0.00  0.00    +0.210 HD
ENDBRANCH  21  22
ENDBRANCH  14  16
ENDBRANCH   1  14
TORSDOF 5
