REMARK  Name = ZINC63350365
REMARK  7 active torsions:
REMARK  status: ('A' for Active; 'I' for Inactive)
REMARK    1  A    between atoms: C_1  and  C_2
REMARK    2  A    between atoms: C_7  and  C_9
REMARK    3  A    between atoms: C_7  and  C_10
REMARK    4  A    between atoms: C_20  and  O_29
REMARK    5  A    between atoms: C_21  and  O_27
REMARK    6  A    between atoms: O_27  and  C_28
REMARK    7  A    between atoms: O_29  and  C_30
REMARK                            x       y       z     vdW  Elec       q    Type
REMARK                         _______ _______ _______ _____ _____    ______ ____
ROOT
ATOM      1  C   UNL     1       0.006   1.527   0.022  0.00  0.00    +0.013 C 
ATOM      2  C   UNL     1       0.009  -0.010   0.009  0.00  0.00    -0.014 C 
ATOM      3  C   UNL     1      -1.427  -0.602  -0.033  0.00  0.00    +0.030 C 
ATOM      4  C   UNL     1      -1.101  -2.035  -0.523  0.00  0.00    +0.076 C 
ATOM      5  C   UNL     1      -0.519  -2.797   0.666  0.00  0.00    +0.029 C 
ATOM      6  C   UNL     1       0.691  -2.124   1.290  0.00  0.00    -0.033 C 
ATOM      7  C   UNL     1       0.713  -0.609   1.224  0.00  0.00    +0.014 C 
ATOM      8  C   UNL     1       1.977  -2.698   0.678  0.00  0.00    +0.011 C 
ATOM      9  C   UNL     1       0.707  -2.517   2.789  0.00  0.00    +0.011 C 
ATOM     10  N   UNL     1      -0.049  -1.860  -1.543  0.00  0.00    -0.314 N 
ATOM     11  C   UNL     1       0.636  -0.585  -1.281  0.00  0.00    +0.113 C 
ATOM     12  C   UNL     1       0.232  -2.714  -2.548  0.00  0.00    +0.105 C 
ATOM     13  N   UNL     1      -0.375  -3.886  -2.643  0.00  0.00    -0.336 N 
ATOM     14  C   UNL     1      -0.014  -4.832  -3.500  0.00  0.00    +0.197 C 
ATOM     15  N   UNL     1       1.110  -4.780  -4.201  0.00  0.00    -0.239 NA
ATOM     16  C   UNL     1       1.829  -3.672  -4.124  0.00  0.00    +0.082 C 
ATOM     17  C   UNL     1       3.144  -3.370  -4.370  0.00  0.00    +0.025 A 
ATOM     18  C   UNL     1       4.157  -4.072  -5.066  0.00  0.00    +0.061 A 
ATOM     19  C   UNL     1       5.401  -3.508  -5.081  0.00  0.00    +0.162 A 
ATOM     20  C   UNL     1       5.698  -2.292  -4.448  0.00  0.00    +0.163 A 
ATOM     21  C   UNL     1       4.765  -1.547  -3.779  0.00  0.00    +0.075 A 
ATOM     22  C   UNL     1       3.444  -2.058  -3.740  0.00  0.00    +0.049 A 
ATOM     23  N   UNL     1       2.351  -1.527  -3.232  0.00  0.00    -0.370 N 
ATOM     24  C   UNL     1       1.233  -2.372  -3.600  0.00  0.00    +0.191 C 
ATOM     25  H   UNL     1       2.302  -0.713  -2.707  0.00  0.00    +0.161 HD
ATOM     26  H   UNL     1      -1.124  -4.064  -2.053  0.00  0.00    +0.168 HD
ENDROOT
BRANCH  20  27
ATOM     27  O   UNL     1       6.974  -1.832  -4.501  0.00  0.00    -0.491 OA
ATOM     28  C   UNL     1       7.244  -0.590  -3.847  0.00  0.00    +0.277 C 
ENDBRANCH  20  27
BRANCH  19  29
ATOM     29  O   UNL     1       6.399  -4.157  -5.740  0.00  0.00    -0.491 OA
ATOM     30  C   UNL     1       6.062  -5.393  -6.373  0.00  0.00    +0.277 C 
ENDBRANCH  19  29
TORSDOF 2
