REMARK  Name = ZINC45410260
REMARK  4 active torsions:
REMARK  status: ('A' for Active; 'I' for Inactive)
REMARK    1  A    between atoms: C_8  and  C_10
REMARK    2  A    between atoms: C_10  and  N_11
REMARK    3  A    between atoms: N_19  and  C_20
REMARK    4  A    between atoms: N_23  and  C_26
REMARK                            x       y       z     vdW  Elec       q    Type
REMARK                         _______ _______ _______ _____ _____    ______ ____
ROOT
ATOM      1  N   UNL     1      -1.258   0.529   5.379  0.00  0.00    -0.291 NA
ATOM      2  C   UNL     1      -0.344  -0.110   6.335  0.00  0.00    +0.104 C 
ATOM      3  C   UNL     1      -0.535   0.520   7.718  0.00  0.00    +0.124 C 
ATOM      4  N   UNL     1      -1.960   0.444   8.074  0.00  0.00    -0.283 N 
ATOM      5  C   UNL     1      -2.947   0.940   7.104  0.00  0.00    +0.124 C 
ATOM      6  C   UNL     1      -2.661   0.293   5.744  0.00  0.00    +0.104 C 
ATOM      7  C   UNL     1      -2.350  -0.068   9.259  0.00  0.00    +0.302 C 
ATOM      8  O   UNL     1      -1.530  -0.560  10.009  0.00  0.00    -0.253 OA
ATOM      9  N   UNL     1      -3.651  -0.034   9.611  0.00  0.00    -0.297 N 
ATOM     10  H   UNL     1      -4.315   0.292   8.984  0.00  0.00    +0.151 HD
ENDROOT
BRANCH   9  11
ATOM     11  C   UNL     1      -4.061  -0.490  10.942  0.00  0.00    +0.071 C 
ATOM     12  C   UNL     1      -4.267  -2.007  10.922  0.00  0.00    +0.004 C 
ATOM     13  C   UNL     1      -4.772  -2.465  12.292  0.00  0.00    -0.077 C 
ATOM     14  N   UNL     1      -6.045  -1.801  12.596  0.00  0.00    +0.382 N 
ATOM     15  C   UNL     1      -5.840  -0.350  12.687  0.00  0.00    -0.077 C 
ATOM     16  C   UNL     1      -5.377   0.190  11.332  0.00  0.00    +0.004 C 
ATOM     17  H   UNL     1      -6.710  -2.000  11.864  0.00  0.00    -0.081 HD
BRANCH  14  18
ATOM     18  C   UNL     1      -6.564  -2.302  13.876  0.00  0.00    -0.069 C 
ATOM     19  C   UNL     1      -7.830  -3.160  13.837  0.00  0.00    -0.017 C 
ATOM     20  C   UNL     1      -7.892  -1.728  14.373  0.00  0.00    -0.017 C 
ENDBRANCH  14  18
ENDBRANCH   9  11
BRANCH   1  21
ATOM     21  C   UNL     1      -0.988   0.075   4.008  0.00  0.00    +0.180 C 
BRANCH  21  29
ATOM     22  C   UNL     1      -0.010   1.498   0.011  0.00  0.00    +0.002 C 
ATOM     23  C   UNL     1       1.420   2.028   0.002  0.00  0.00    +0.002 C 
ATOM     24  C   UNL     1       2.039   2.125   1.332  0.00  0.00    +0.019 C 
ATOM     25  C   UNL     1       2.156   0.720   1.974  0.00  0.00    +0.108 C 
ATOM     26  N   UNL     1       0.842   0.250   2.353  0.00  0.00    -0.300 N 
ATOM     27  C   UNL     1      -0.011  -0.546   1.449  0.00  0.00    +0.108 C 
ATOM     28  C   UNL     1       0.015  -0.011   0.005  0.00  0.00    +0.019 C 
ATOM     29  C   UNL     1       0.378   0.550   3.582  0.00  0.00    +0.230 C 
ATOM     30  O   UNL     1       1.058   1.202   4.345  0.00  0.00    -0.274 OA
ENDBRANCH  21  29
ENDBRANCH   1  21
TORSDOF 4
