REMARK  Name = ZINC64539386
REMARK  8 active torsions:
REMARK  status: ('A' for Active; 'I' for Inactive)
REMARK    1  A    between atoms: C_1  and  C_2
REMARK    2  A    between atoms: C_7  and  C_12
REMARK    3  A    between atoms: C_12  and  C_13
REMARK    4  A    between atoms: C_13  and  N_14
REMARK    5  A    between atoms: C_15  and  C_17
REMARK    6  A    between atoms: C_17  and  N_18
REMARK    7  A    between atoms: C_22  and  S_29
REMARK    8  A    between atoms: S_29  and  N_32
REMARK                            x       y       z     vdW  Elec       q    Type
REMARK                         _______ _______ _______ _____ _____    ______ ____
ROOT
ATOM      1  C   UNL     1      -3.667  -9.348   1.808  0.00  0.00    +0.209 C 
ENDROOT
BRANCH   1   2
ATOM      2  N   UNL     1      -3.598 -10.702   1.252  0.00  0.00    -0.262 N 
ATOM      3  C   UNL     1      -4.140 -10.963  -0.010  0.00  0.00    +0.040 A 
ATOM      4  C   UNL     1      -4.390  -9.920  -0.892  0.00  0.00    +0.026 A 
ATOM      5  C   UNL     1      -4.925 -10.184  -2.138  0.00  0.00    +0.030 A 
ATOM      6  C   UNL     1      -5.212 -11.486  -2.506  0.00  0.00    +0.106 A 
ATOM      7  C   UNL     1      -4.965 -12.527  -1.630  0.00  0.00    +0.034 A 
ATOM      8  C   UNL     1      -4.430 -12.268  -0.384  0.00  0.00    -0.024 A 
ATOM      9  C   UNL     1      -4.158 -13.399   0.574  0.00  0.00    +0.046 C 
ATOM     10  C   UNL     1      -2.914 -13.080   1.403  0.00  0.00    +0.101 C 
ATOM     11  C   UNL     1      -3.008 -11.684   1.957  0.00  0.00    +0.221 C 
ATOM     12  O   UNL     1      -2.551 -11.443   3.055  0.00  0.00    -0.275 OA
BRANCH   6  13
ATOM     13  S   UNL     1      -5.896 -11.819  -4.096  0.00  0.00    +0.061 S 
ATOM     14  O   UNL     1      -6.581 -13.059  -3.991  0.00  0.00    -0.153 OA
ATOM     15  O   UNL     1      -6.540 -10.626  -4.519  0.00  0.00    -0.153 OA
BRANCH  13  16
ATOM     16  N   UNL     1      -4.628 -12.065  -5.132  0.00  0.00    -0.177 NA
ATOM     17  C   UNL     1      -3.948 -11.024  -5.917  0.00  0.00    +0.109 C 
ATOM     18  C   UNL     1      -2.853 -11.721  -6.752  0.00  0.00    +0.018 C 
ATOM     19  C   UNL     1      -3.349 -13.190  -6.818  0.00  0.00    +0.018 C 
ATOM     20  C   UNL     1      -3.989 -13.363  -5.416  0.00  0.00    +0.109 C 
ENDBRANCH  13  16
ENDBRANCH   6  13
ENDBRANCH   1   2
BRANCH   1  22
ATOM     21  N   UNL     1      -2.291  -7.292   1.789  0.00  0.00    -0.314 N 
ATOM     22  C   UNL     1      -2.444  -8.571   1.391  0.00  0.00    +0.231 C 
ATOM     23  O   UNL     1      -1.598  -9.097   0.699  0.00  0.00    -0.274 OA
ATOM     24  H   UNL     1      -2.967  -6.872   2.343  0.00  0.00    +0.149 HD
BRANCH  21  25
ATOM     25  C   UNL     1      -1.102  -6.537   1.384  0.00  0.00    +0.108 C 
BRANCH  25  26
ATOM     26  C   UNL     1      -1.174  -5.123   1.965  0.00  0.00    +0.065 C 
BRANCH  26  33
ATOM     27  C   UNL     1      -0.018   1.503   0.010  0.00  0.00    +0.044 C 
ATOM     28  C   UNL     1       0.002  -0.004   0.002  0.00  0.00    -0.048 A 
ATOM     29  C   UNL     1       0.005  -0.672  -1.235  0.00  0.00    +0.005 A 
ATOM     30  C   UNL     1       0.022  -2.017  -1.335  0.00  0.00    +0.027 A 
ATOM     31  C   UNL     1       0.040  -2.834  -0.114  0.00  0.00    +0.060 A 
ATOM     32  N   UNL     1       0.057  -4.120   0.090  0.00  0.00    -0.363 N 
ATOM     33  C   UNL     1       0.067  -4.335   1.542  0.00  0.00    +0.175 C 
ATOM     34  N   UNL     1       0.053  -3.002   2.159  0.00  0.00    -0.363 N 
ATOM     35  C   UNL     1       0.037  -2.127   1.195  0.00  0.00    +0.060 A 
ATOM     36  C   UNL     1       0.022  -0.657   1.181  0.00  0.00    +0.030 A 
ATOM     37  H   UNL     1       0.062  -4.809  -0.593  0.00  0.00    +0.162 HD
ATOM     38  H   UNL     1       0.055  -2.810   3.109  0.00  0.00    +0.162 HD
ENDBRANCH  26  33
ENDBRANCH  25  26
ENDBRANCH  21  25
ENDBRANCH   1  22
TORSDOF 7
