REMARK  Name = ZINC20134251
REMARK  11 active torsions:
REMARK  status: ('A' for Active; 'I' for Inactive)
REMARK    1  A    between atoms: C_1  and  C_2
REMARK    2  A    between atoms: C_2  and  O_3
REMARK    3  A    between atoms: O_3  and  C_4
REMARK    4  A    between atoms: C_4  and  C_6
REMARK    5  A    between atoms: C_7  and  C_34
REMARK    6  A    between atoms: C_11  and  S_23
REMARK    7  A    between atoms: C_14  and  C_16
REMARK    8  A    between atoms: C_19  and  C_22
REMARK    9  A    between atoms: S_23  and  C_24
REMARK   10  A    between atoms: C_24  and  C_25
REMARK   11  A    between atoms: C_28  and  C_31
REMARK                            x       y       z     vdW  Elec       q    Type
REMARK                         _______ _______ _______ _____ _____    ______ ____
ROOT
ATOM      1  C   UNL     1      -3.756   1.943   5.176  0.00  0.00    +0.082 C 
ATOM      2  C   UNL     1      -5.075   2.150   5.034  0.00  0.00    +0.020 C 
ATOM      3  N   UNL     1      -5.580   3.312   4.506  0.00  0.00    -0.287 N 
ATOM      4  C   UNL     1      -4.706   4.381   4.362  0.00  0.00    +0.219 A 
ATOM      5  N   UNL     1      -4.951   5.638   4.109  0.00  0.00    -0.187 NA
ATOM      6  C   UNL     1      -3.797   6.320   4.066  0.00  0.00    +0.211 A 
ATOM      7  N   UNL     1      -2.801   5.491   4.292  0.00  0.00    -0.141 NA
ATOM      8  N   UNL     1      -3.364   4.230   4.484  0.00  0.00    -0.220 N 
ATOM      9  C   UNL     1      -2.717   2.951   4.762  0.00  0.00    +0.179 C 
ATOM     10  C   UNL     1      -6.033   1.072   5.470  0.00  0.00    +0.061 C 
ATOM     11  H   UNL     1      -6.639   3.369   4.215  0.00  0.00    +0.155 HD
ENDROOT
BRANCH   9  12
ATOM     12  C   UNL     1      -2.012   2.464   3.522  0.00  0.00    -0.018 A 
ATOM     13  C   UNL     1      -0.646   2.252   3.542  0.00  0.00    +0.006 A 
ATOM     14  C   UNL     1       0.001   1.806   2.405  0.00  0.00    +0.004 A 
ATOM     15  C   UNL     1      -0.718   1.572   1.248  0.00  0.00    -0.050 A 
ATOM     16  C   UNL     1      -2.083   1.789   1.226  0.00  0.00    +0.004 A 
ATOM     17  C   UNL     1      -2.731   2.230   2.365  0.00  0.00    +0.006 A 
ATOM     18  C   UNL     1      -0.013   1.086   0.008  0.00  0.00    +0.044 C 
ENDBRANCH   9  12
BRANCH   1  19
ATOM     19  C   UNL     1      -3.323   0.722   5.740  0.00  0.00    +0.339 C 
ATOM     20  O   UNL     1      -4.140  -0.112   6.085  0.00  0.00    -0.245 OA
BRANCH  19  21
ATOM     21  O   UNL     1      -2.005   0.481   5.897  0.00  0.00    -0.462 OA
BRANCH  21  23
ATOM     22  C   UNL     1      -0.114  -0.865   6.571  0.00  0.00    +0.048 C 
ATOM     23  C   UNL     1      -1.639  -0.774   6.474  0.00  0.00    +0.229 C 
ENDBRANCH  21  23
ENDBRANCH  19  21
ENDBRANCH   1  19
BRANCH   6  24
ATOM     24  S   UNL     1      -3.640   8.047   3.755  0.00  0.00    -0.080 S 
BRANCH  24  25
ATOM     25  C   UNL     1      -5.350   8.609   3.526  0.00  0.00    +0.112 C 
BRANCH  25  26
ATOM     26  C   UNL     1      -5.359  10.091   3.250  0.00  0.00    -0.037 A 
ATOM     27  C   UNL     1      -5.454  10.987   4.300  0.00  0.00    +0.005 A 
ATOM     28  C   UNL     1      -5.457  12.344   4.054  0.00  0.00    +0.015 A 
ATOM     29  C   UNL     1      -5.376  12.813   2.741  0.00  0.00    +0.063 A 
ATOM     30  C   UNL     1      -5.286  11.903   1.686  0.00  0.00    +0.015 A 
ATOM     31  C   UNL     1      -5.278  10.548   1.946  0.00  0.00    +0.005 A 
BRANCH  29  32
ATOM     32  C   UNL     1      -5.386  14.265   2.469  0.00  0.00    +0.387 C 
ATOM     33  O   UNL     1      -5.316  14.669   1.326  0.00  0.00    -0.241 OA
ATOM     34  O   UNL     1      -5.473  15.140   3.490  0.00  0.00    -0.241 OA
ENDBRANCH  29  32
ENDBRANCH  25  26
ENDBRANCH  24  25
ENDBRANCH   6  24
TORSDOF 8
