REMARK  Name = ZINC33118791
REMARK  10 active torsions:
REMARK  status: ('A' for Active; 'I' for Inactive)
REMARK    1  A    between atoms: C_1  and  C_2
REMARK    2  A    between atoms: C_5  and  N_8
REMARK    3  A    between atoms: C_9  and  C_11
REMARK    4  A    between atoms: C_11  and  S_12
REMARK    5  A    between atoms: S_12  and  C_13
REMARK    6  A    between atoms: C_13  and  C_15
REMARK    7  A    between atoms: C_13  and  C_16
REMARK    8  A    between atoms: N_18  and  C_19
REMARK    9  A    between atoms: C_19  and  C_21
REMARK   10  A    between atoms: C_19  and  C_22
REMARK                            x       y       z     vdW  Elec       q    Type
REMARK                         _______ _______ _______ _____ _____    ______ ____
ROOT
ATOM      1  C   UNL     1       5.381   1.048   0.090  0.00  0.00    +0.226 C 
ATOM      2  O   UNL     1       5.364  -0.104  -0.288  0.00  0.00    -0.275 OA
ATOM      3  N   UNL     1       6.511   1.571   0.605  0.00  0.00    -0.308 N 
ATOM      4  H   UNL     1       6.526   2.616   0.949  0.00  0.00    +0.149 HD
ENDROOT
BRANCH   1   5
ATOM      5  C   UNL     1       4.138   1.893  -0.014  0.00  0.00    +0.129 C 
ATOM      6  C   UNL     1       4.179   2.703  -1.312  0.00  0.00    +0.029 C 
BRANCH   5   7
ATOM      7  S   UNL     1       2.675   0.821  -0.017  0.00  0.00    -0.139 S 
BRANCH   7   8
ATOM      8  C   UNL     1       1.280   1.980   0.007  0.00  0.00    +0.165 C 
BRANCH   8  10
ATOM      9  N   UNL     1      -1.191   1.867   0.018  0.00  0.00    -0.285 N 
ATOM     10  C   UNL     1      -0.014   1.209   0.007  0.00  0.00    +0.227 C 
ATOM     11  O   UNL     1       0.002  -0.004  -0.008  0.00  0.00    -0.275 OA
ATOM     12  H   UNL     1      -1.207   2.963   0.108  0.00  0.00    +0.155 HD
BRANCH   9  17
ATOM     13  C   UNL     1      -6.058  -1.018  -0.403  0.00  0.00    +0.044 C 
ATOM     14  C   UNL     1      -4.765  -0.251  -0.291  0.00  0.00    -0.050 A 
ATOM     15  C   UNL     1      -3.696  -0.798   0.395  0.00  0.00    +0.005 A 
ATOM     16  C   UNL     1      -2.510  -0.099   0.499  0.00  0.00    +0.023 A 
ATOM     17  C   UNL     1      -2.391   1.155  -0.086  0.00  0.00    +0.033 A 
ATOM     18  C   UNL     1      -3.468   1.704  -0.769  0.00  0.00    +0.023 A 
ATOM     19  C   UNL     1      -4.650   0.997  -0.875  0.00  0.00    +0.005 A 
ENDBRANCH   9  17
ENDBRANCH   8  10
ENDBRANCH   7   8
ENDBRANCH   5   7
ENDBRANCH   1   5
BRANCH   3  20
ATOM     20  C   UNL     1       7.719   0.749   0.707  0.00  0.00    +0.100 C 
ATOM     21  C   UNL     1       7.678  -0.060   2.004  0.00  0.00    +0.033 C 
BRANCH  20  22
ATOM     22  C   UNL     1       8.934   1.640   0.709  0.00  0.00    -0.026 A 
ATOM     23  C   UNL     1       8.915   2.831   1.411  0.00  0.00    +0.009 A 
ATOM     24  C   UNL     1      10.026   3.655   1.419  0.00  0.00    +0.048 A 
ATOM     25  C   UNL     1      11.162   3.285   0.721  0.00  0.00    +0.142 A 
ATOM     26  C   UNL     1      11.182   2.085   0.012  0.00  0.00    +0.076 A 
ATOM     27  C   UNL     1      10.068   1.262   0.013  0.00  0.00    +0.032 A 
ATOM     28  N   UNL     1      12.340   1.724  -0.692  0.00  0.00    -0.280 N 
ATOM     29  C   UNL     1      13.497   2.365  -0.421  0.00  0.00    +0.255 C 
ATOM     30  O   UNL     1      14.505   2.090  -1.038  0.00  0.00    -0.272 OA
ATOM     31  C   UNL     1      13.533   3.423   0.652  0.00  0.00    +0.325 C 
ATOM     32  O   UNL     1      12.265   4.081   0.720  0.00  0.00    -0.481 OA
ATOM     33  H   UNL     1      12.296   0.929  -1.451  0.00  0.00    +0.155 HD
ENDBRANCH  20  22
ENDBRANCH   3  20
TORSDOF 7
