REMARK  Name = ZINC39094495
REMARK  2 active torsions:
REMARK  status: ('A' for Active; 'I' for Inactive)
REMARK    1  A    between atoms: C_1  and  C_2
REMARK    2  A    between atoms: C_2  and  C_3
REMARK                            x       y       z     vdW  Elec       q    Type
REMARK                         _______ _______ _______ _____ _____    ______ ____
ROOT
ATOM      1  C   UNL     1       0.742  -0.511   1.242  0.00  0.00    -0.007 C 
ATOM      2  C   UNL     1       2.210  -0.087   1.168  0.00  0.00    +0.004 C 
ATOM      3  C   UNL     1       2.950  -0.582   2.413  0.00  0.00    +0.004 C 
ATOM      4  C   UNL     1       2.874  -2.110   2.475  0.00  0.00    +0.050 C 
ATOM      5  C   UNL     1       1.417  -2.547   2.516  0.00  0.00    +0.131 C 
ATOM      6  C   UNL     1       0.656  -2.039   1.298  0.00  0.00    +0.053 C 
ATOM      7  C   UNL     1       1.318  -4.082   2.610  0.00  0.00    +0.155 C 
ATOM      8  N   UNL     1       1.189  -4.294   4.067  0.00  0.00    -0.277 N 
ATOM      9  C   UNL     1       0.899  -3.105   4.630  0.00  0.00    +0.401 C 
ATOM     10  O   UNL     1       0.756  -2.946   5.826  0.00  0.00    -0.226 OA
ATOM     11  O   UNL     1       0.787  -2.113   3.729  0.00  0.00    -0.442 OA
ATOM     12  H   UNL     1       1.294  -5.138   4.533  0.00  0.00    +0.152 HD
ENDROOT
BRANCH   1  14
ATOM     13  C   UNL     1      -0.019   1.526   0.010  0.00  0.00    +0.004 C 
ATOM     14  C   UNL     1       0.002  -0.004   0.002  0.00  0.00    +0.000 C 
ENDBRANCH   1  14
TORSDOF 1
