REMARK  Name = ZINC59175800
REMARK  7 active torsions:
REMARK  status: ('A' for Active; 'I' for Inactive)
REMARK    1  A    between atoms: C_6  and  C_7
REMARK    2  A    between atoms: C_10  and  S_12
REMARK    3  A    between atoms: S_12  and  C_13
REMARK    4  A    between atoms: C_13  and  C_14
REMARK    5  A    between atoms: C_15  and  S_16
REMARK    6  A    between atoms: S_16  and  C_19
REMARK    7  A    between atoms: C_22  and  N_25
REMARK                            x       y       z     vdW  Elec       q    Type
REMARK                         _______ _______ _______ _____ _____    ______ ____
ROOT
ATOM      1  C   UNL     1      -5.247  -3.599   0.036  0.00  0.00    +0.107 C 
ENDROOT
BRANCH   1   2
ATOM      2  C   UNL     1      -6.020  -4.893   0.041  0.00  0.00    +0.004 C 
ATOM      3  C   UNL     1      -6.760  -5.210   1.074  0.00  0.00    +0.136 C 
BRANCH   3   4
ATOM      4  S   UNL     1      -7.663  -6.723   1.079  0.00  0.00    +0.018 S 
ATOM      5  O   UNL     1      -8.992  -6.402   1.467  0.00  0.00    -0.165 OA
ATOM      6  O   UNL     1      -7.364  -7.379  -0.146  0.00  0.00    -0.165 OA
BRANCH   4   7
ATOM      7  C   UNL     1      -6.992  -7.726   2.363  0.00  0.00    +0.093 A 
ATOM      8  C   UNL     1      -5.943  -8.585   2.093  0.00  0.00    +0.029 A 
ATOM      9  C   UNL     1      -5.417  -9.371   3.101  0.00  0.00    +0.034 A 
ATOM     10  C   UNL     1      -5.939  -9.299   4.379  0.00  0.00    +0.126 A 
ATOM     11  C   UNL     1      -6.988  -8.439   4.649  0.00  0.00    +0.034 A 
ATOM     12  C   UNL     1      -7.511  -7.650   3.642  0.00  0.00    +0.029 A 
BRANCH  10  13
ATOM     13  N   UNL     1      -5.377 -10.142   5.457  0.00  0.00    +0.056 N 
ATOM     14  O   UNL     1      -4.460 -10.893   5.221  0.00  0.00    -0.126 OA
ATOM     15  O   UNL     1      -5.834 -10.078   6.575  0.00  0.00    -0.126 OA
ENDBRANCH  10  13
ENDBRANCH   4   7
ENDBRANCH   3   4
ENDBRANCH   1   2
BRANCH   1  16
ATOM     16  S   UNL     1      -3.469  -3.956   0.024  0.00  0.00    -0.061 S 
BRANCH  16  20
ATOM     17  C   UNL     1      -1.265  -0.763   0.011  0.00  0.00    +0.249 A 
ATOM     18  N   UNL     1      -2.474  -0.256   0.019  0.00  0.00    -0.106 NA
ATOM     19  N   UNL     1      -3.338  -1.209   0.025  0.00  0.00    -0.101 NA
ATOM     20  C   UNL     1      -2.714  -2.364   0.020  0.00  0.00    +0.278 A 
ATOM     21  O   UNL     1      -1.392  -2.109   0.005  0.00  0.00    -0.411 OA
BRANCH  17  27
ATOM     22  C   UNL     1      -0.017   1.392   0.010  0.00  0.00    +0.014 A 
ATOM     23  C   UNL     1       1.170   2.095   0.002  0.00  0.00    +0.016 A 
ATOM     24  C   UNL     1       2.378   1.419  -0.013  0.00  0.00    +0.018 A 
ATOM     25  C   UNL     1       2.404   0.035  -0.021  0.00  0.00    +0.016 A 
ATOM     26  C   UNL     1       1.224  -0.680  -0.014  0.00  0.00    +0.014 A 
ATOM     27  C   UNL     1       0.002  -0.004   0.002  0.00  0.00    +0.039 A 
ATOM     28 BR   UNL     1       4.000   2.390  -0.024  0.00  0.00    -0.050 Br
ENDBRANCH  17  27
ENDBRANCH  16  20
ENDBRANCH   1  16
TORSDOF 7
