REMARK  Name = ZINC59878275
REMARK  8 active torsions:
REMARK  status: ('A' for Active; 'I' for Inactive)
REMARK    1  A    between atoms: C_1  and  C_2
REMARK    2  A    between atoms: C_2  and  C_4
REMARK    3  A    between atoms: C_2  and  S_14
REMARK    4  A    between atoms: N_6  and  N_7
REMARK    5  A    between atoms: C_8  and  C_10
REMARK    6  A    between atoms: S_14  and  C_15
REMARK    7  A    between atoms: C_18  and  C_21
REMARK    8  A    between atoms: N_19  and  N_20
REMARK                            x       y       z     vdW  Elec       q    Type
REMARK                         _______ _______ _______ _____ _____    ______ ____
ROOT
ATOM      1  S   UNL     1       0.851  -0.589  -1.490  0.00  0.00    -0.072 S 
ENDROOT
BRANCH   1   2
ATOM      2  C   UNL     1       2.509  -0.029  -1.285  0.00  0.00    +0.209 A 
ATOM      3  N   UNL     1       2.982   0.650  -0.264  0.00  0.00    -0.121 NA
ATOM      4  N   UNL     1       4.231   0.896  -0.437  0.00  0.00    -0.127 NA
ATOM      5  C   UNL     1       4.633   0.389  -1.579  0.00  0.00    +0.182 A 
ATOM      6  N   UNL     1       3.544  -0.224  -2.155  0.00  0.00    -0.224 N 
BRANCH   5   7
ATOM      7  C   UNL     1       5.999   0.459  -2.139  0.00  0.00    +0.021 A 
ATOM      8  C   UNL     1       6.221   0.165  -3.486  0.00  0.00    +0.011 A 
ATOM      9  C   UNL     1       7.499   0.232  -4.002  0.00  0.00    +0.001 A 
ATOM     10  C   UNL     1       8.559   0.589  -3.188  0.00  0.00    +0.000 A 
ATOM     11  C   UNL     1       8.346   0.881  -1.852  0.00  0.00    +0.001 A 
ATOM     12  C   UNL     1       7.073   0.823  -1.325  0.00  0.00    +0.011 A 
ENDBRANCH   5   7
BRANCH   6  13
ATOM     13  N   UNL     1       3.505  -0.886  -3.349  0.00  0.00    -0.295 N 
ATOM     14  H   UNL     1       3.277  -0.257  -4.104  0.00  0.00    +0.163 HD
ATOM     15  H   UNL     1       4.375  -1.364  -3.526  0.00  0.00    +0.163 HD
ENDBRANCH   6  13
ENDBRANCH   1   2
BRANCH   1  17
ATOM     16  C   UNL     1      -0.019   1.526   0.010  0.00  0.00    +0.029 C 
ATOM     17  C   UNL     1       0.002  -0.004   0.002  0.00  0.00    +0.138 C 
BRANCH  17  18
ATOM     18  C   UNL     1      -1.412  -0.526   0.013  0.00  0.00    +0.242 C 
ATOM     19  O   UNL     1      -1.927  -0.901  -1.019  0.00  0.00    -0.273 OA
ATOM     20  N   UNL     1      -2.103  -0.575   1.169  0.00  0.00    -0.233 N 
ATOM     21  H   UNL     1      -1.691  -0.275   1.994  0.00  0.00    +0.173 HD
BRANCH  20  22
ATOM     22  N   UNL     1      -3.417  -1.060   1.179  0.00  0.00    -0.234 N 
ATOM     23  C   UNL     1      -4.109  -1.109   2.334  0.00  0.00    +0.232 C 
ATOM     24  O   UNL     1      -3.593  -0.734   3.366  0.00  0.00    -0.274 OA
ATOM     25  H   UNL     1      -3.830  -1.360   0.353  0.00  0.00    +0.173 HD
BRANCH  23  26
ATOM     26  C   UNL     1      -5.523  -1.631   2.345  0.00  0.00    +0.076 C 
ATOM     27  C   UNL     1      -6.570  -0.581   1.937  0.00  0.00    +0.013 C 
ATOM     28  C   UNL     1      -7.464  -1.156   3.048  0.00  0.00    +0.001 C 
ATOM     29  C   UNL     1      -6.172  -1.622   3.739  0.00  0.00    +0.013 C 
ENDBRANCH  23  26
ENDBRANCH  20  22
ENDBRANCH  17  18
ENDBRANCH   1  17
TORSDOF 7
