REMARK  Name = ZINC01425734
REMARK  5 active torsions:
REMARK  status: ('A' for Active; 'I' for Inactive)
REMARK    1  A    between atoms: C_1  and  C_2
REMARK    2  A    between atoms: C_4  and  C_23
REMARK    3  A    between atoms: C_8  and  N_22
REMARK    4  A    between atoms: C_9  and  C_11
REMARK    5  A    between atoms: N_13  and  C_14
REMARK                            x       y       z     vdW  Elec       q    Type
REMARK                         _______ _______ _______ _____ _____    ______ ____
ROOT
ATOM      1  C   UNL     1       4.752  10.478  -1.025  0.00  0.00    +0.044 C 
ATOM      2  C   UNL     1       5.731   9.335  -0.957  0.00  0.00    -0.037 A 
ATOM      3  C   UNL     1       7.080   9.577  -0.838  0.00  0.00    +0.027 A 
ATOM      4  C   UNL     1       7.979   8.523  -0.775  0.00  0.00    +0.040 A 
ATOM      5  N   UNL     1       7.552   7.277  -0.829  0.00  0.00    -0.245 NA
ATOM      6  C   UNL     1       6.272   6.993  -0.943  0.00  0.00    +0.111 A 
ATOM      7  C   UNL     1       5.277   7.994  -1.014  0.00  0.00    +0.032 A 
ATOM      8  C   UNL     1       3.914   7.502  -1.144  0.00  0.00    +0.054 A 
ATOM      9  C   UNL     1       3.711   6.140  -1.174  0.00  0.00    +0.097 A 
ATOM     10  S   UNL     1       5.359   5.474  -1.042  0.00  0.00    -0.062 S 
ATOM     11  C   UNL     1       9.454   8.804  -0.645  0.00  0.00    +0.065 C 
ENDROOT
BRANCH   9  12
ATOM     12  C   UNL     1       2.487   5.436  -1.290  0.00  0.00    +0.257 C 
ATOM     13  O   UNL     1       1.438   6.049  -1.372  0.00  0.00    -0.269 OA
ATOM     14  N   UNL     1       2.483   4.089  -1.308  0.00  0.00    -0.280 N 
ATOM     15  H   UNL     1       3.300   3.599  -1.126  0.00  0.00    +0.155 HD
BRANCH  14  16
ATOM     16  C   UNL     1       1.300   3.397  -1.591  0.00  0.00    +0.054 A 
ATOM     17  C   UNL     1       0.239   4.052  -2.201  0.00  0.00    +0.044 A 
ATOM     18  C   UNL     1      -0.928   3.365  -2.479  0.00  0.00    +0.043 A 
ATOM     19  C   UNL     1      -1.037   2.024  -2.155  0.00  0.00    +0.021 A 
ATOM     20  C   UNL     1       0.015   1.370  -1.542  0.00  0.00    +0.023 A 
ATOM     21  C   UNL     1       1.185   2.051  -1.261  0.00  0.00    +0.062 A 
ATOM     22 CL   UNL     1       2.508   1.228  -0.497  0.00  0.00    -0.082 Cl
ATOM     23 CL   UNL     1      -2.255   4.183  -3.243  0.00  0.00    -0.083 Cl
ENDBRANCH  14  16
ENDBRANCH   9  12
BRANCH   8  24
ATOM     24  N   UNL     1       2.845   8.382  -1.230  0.00  0.00    -0.356 N 
ATOM     25  H   UNL     1       1.975   8.062  -1.517  0.00  0.00    +0.142 HD
ATOM     26  H   UNL     1       2.967   9.318  -1.004  0.00  0.00    +0.142 HD
ENDBRANCH   8  24
TORSDOF 3
