REMARK  Name = ZINC39590286
REMARK  5 active torsions:
REMARK  status: ('A' for Active; 'I' for Inactive)
REMARK    1  A    between atoms: C_4  and  C_7
REMARK    2  A    between atoms: C_7  and  N_8
REMARK    3  A    between atoms: C_9  and  C_11
REMARK    4  A    between atoms: C_14  and  N_18
REMARK    5  A    between atoms: C_19  and  C_21
REMARK                            x       y       z     vdW  Elec       q    Type
REMARK                         _______ _______ _______ _____ _____    ______ ____
ROOT
ATOM      1  C   UNL     1       3.782  -4.289   3.268  0.00  0.00    +0.086 C 
ATOM      2  C   UNL     1       4.505  -4.879   4.241  0.00  0.00    +0.021 C 
ATOM      3  N   UNL     1       4.990  -4.176   5.286  0.00  0.00    -0.320 N 
ATOM      4  C   UNL     1       5.280  -4.933   6.524  0.00  0.00    +0.219 C 
ATOM      5  S   UNL     1       5.698  -6.584   5.815  0.00  0.00    -0.114 S 
ATOM      6  C   UNL     1       4.807  -6.369   4.216  0.00  0.00    +0.123 C 
ATOM      7  H   UNL     1       5.142  -3.220   5.228  0.00  0.00    +0.148 HD
ENDROOT
BRANCH   1   9
ATOM      8  N   UNL     1       2.800  -2.303   2.364  0.00  0.00    -0.312 N 
ATOM      9  C   UNL     1       3.402  -2.932   3.393  0.00  0.00    +0.238 C 
ATOM     10  O   UNL     1       3.618  -2.333   4.431  0.00  0.00    -0.271 OA
ATOM     11  H   UNL     1       2.628  -2.781   1.537  0.00  0.00    +0.149 HD
BRANCH   8  12
ATOM     12  C   UNL     1       2.407  -0.898   2.493  0.00  0.00    +0.108 C 
BRANCH  12  16
ATOM     13  C   UNL     1      -0.510   0.768  -0.236  0.00  0.00    +0.000 C 
ATOM     14  C   UNL     1       0.796   1.535  -0.018  0.00  0.00    +0.000 C 
ATOM     15  C   UNL     1       1.452   1.068   1.282  0.00  0.00    +0.005 C 
ATOM     16  C   UNL     1       1.750  -0.430   1.193  0.00  0.00    +0.006 C 
ATOM     17  C   UNL     1       0.445  -1.198   0.976  0.00  0.00    +0.005 C 
ATOM     18  C   UNL     1      -0.211  -0.730  -0.325  0.00  0.00    +0.000 C 
ENDBRANCH  12  16
ENDBRANCH   8  12
ENDBRANCH   1   9
BRANCH   4  19
ATOM     19  N   UNL     1       4.099  -5.010   7.388  0.00  0.00    -0.284 N 
ATOM     20  C   UNL     1       4.229  -5.384   8.676  0.00  0.00    +0.251 C 
ATOM     21  O   UNL     1       5.335  -5.575   9.145  0.00  0.00    -0.270 OA
ATOM     22  H   UNL     1       3.223  -4.790   7.033  0.00  0.00    +0.152 HD
BRANCH  20  23
ATOM     23  C   UNL     1       3.034  -5.562   9.514  0.00  0.00    +0.101 A 
ATOM     24  C   UNL     1       3.139  -6.113  10.790  0.00  0.00    +0.020 A 
ATOM     25  C   UNL     1       1.984  -6.266  11.556  0.00  0.00    +0.018 A 
ATOM     26  C   UNL     1       0.780  -5.883  11.059  0.00  0.00    +0.086 A 
ATOM     27  N   UNL     1       0.671  -5.348   9.819  0.00  0.00    -0.328 N 
ATOM     28  C   UNL     1       1.755  -5.172   9.041  0.00  0.00    +0.261 A 
ATOM     29  O   UNL     1       1.637  -4.684   7.930  0.00  0.00    -0.267 OA
ATOM     30  H   UNL     1      -0.202  -5.084   9.489  0.00  0.00    +0.168 HD
ENDBRANCH  20  23
ENDBRANCH   4  19
TORSDOF 5
