REMARK  Name = ZINC03380961
REMARK  9 active torsions:
REMARK  status: ('A' for Active; 'I' for Inactive)
REMARK    1  A    between atoms: C_1  and  C_2
REMARK    2  A    between atoms: C_2  and  O_3
REMARK    3  A    between atoms: O_3  and  C_4
REMARK    4  A    between atoms: N_6  and  C_7
REMARK    5  A    between atoms: C_11  and  C_18
REMARK    6  A    between atoms: C_18  and  O_19
REMARK    7  A    between atoms: O_19  and  C_20
REMARK    8  A    between atoms: C_20  and  C_22
REMARK    9  A    between atoms: C_29  and  C_32
REMARK                            x       y       z     vdW  Elec       q    Type
REMARK                         _______ _______ _______ _____ _____    ______ ____
ROOT
ATOM      1  C   UNL     1       0.009   3.087  12.369  0.00  0.00    +0.040 A 
ATOM      2  C   UNL     1      -1.026   3.576  11.571  0.00  0.00    +0.024 A 
ATOM      3  C   UNL     1      -1.025   3.353  10.225  0.00  0.00    +0.014 A 
ATOM      4  C   UNL     1       0.024   2.633   9.640  0.00  0.00    +0.024 A 
ATOM      5  C   UNL     1       0.047   2.373   8.199  0.00  0.00    +0.007 A 
ATOM      6  C   UNL     1       1.088   1.663   7.692  0.00  0.00    +0.099 A 
ATOM      7  C   UNL     1       2.104   1.197   8.551  0.00  0.00    +0.338 A 
ATOM      8  O   UNL     1       3.032   0.562   8.083  0.00  0.00    -0.245 OA
ATOM      9  O   UNL     1       2.074   1.434   9.872  0.00  0.00    -0.422 OA
ATOM     10  C   UNL     1       1.068   2.132  10.440  0.00  0.00    +0.141 A 
ATOM     11  C   UNL     1       1.052   2.368  11.806  0.00  0.00    +0.070 A 
ENDROOT
BRANCH   1  14
ATOM     12  C   UNL     1       1.151   3.501  14.410  0.00  0.00    +0.405 C 
ATOM     13  O   UNL     1       2.201   3.551  13.801  0.00  0.00    -0.226 OA
ATOM     14  N   UNL     1      -0.007   3.324  13.744  0.00  0.00    -0.251 N 
ATOM     15  H   UNL     1      -0.851   3.361  14.220  0.00  0.00    +0.158 HD
BRANCH  12  16
ATOM     16  O   UNL     1       1.145   3.622  15.751  0.00  0.00    -0.450 OA
BRANCH  16  18
ATOM     17  C   UNL     1       2.222   3.926  17.914  0.00  0.00    +0.048 C 
ATOM     18  C   UNL     1       2.429   3.810  16.402  0.00  0.00    +0.230 C 
ENDBRANCH  16  18
ENDBRANCH  12  16
ENDBRANCH   1  14
BRANCH   5  19
ATOM     19  C   UNL     1      -1.051   2.884   7.303  0.00  0.00    +0.269 C 
BRANCH  19  20
ATOM     20  O   UNL     1      -0.778   2.492   5.931  0.00  0.00    -0.456 OA
BRANCH  20  21
ATOM     21  C   UNL     1      -1.672   2.874   4.996  0.00  0.00    +0.346 C 
ATOM     22  O   UNL     1      -2.653   3.517   5.318  0.00  0.00    -0.244 OA
BRANCH  21  23
ATOM     23  C   UNL     1      -1.462   2.514   3.592  0.00  0.00    +0.097 A 
ATOM     24  C   UNL     1      -2.247   2.803   2.490  0.00  0.00    +0.026 A 
ATOM     25  C   UNL     1      -1.829   2.346   1.252  0.00  0.00    -0.036 A 
ATOM     26  C   UNL     1      -0.659   1.638   1.220  0.00  0.00    -0.006 A 
ATOM     27  S   UNL     1      -0.125   1.589   2.856  0.00  0.00    -0.086 S 
ATOM     28  C   UNL     1       0.001   1.042   0.015  0.00  0.00    +0.043 C 
ATOM     29  C   UNL     1      -0.634   1.657  -1.240  0.00  0.00    +0.009 C 
ATOM     30  C   UNL     1      -2.157   1.607  -1.097  0.00  0.00    -0.009 C 
ATOM     31  C   UNL     1      -2.615   2.603  -0.031  0.00  0.00    +0.039 C 
ATOM     32  C   UNL     1      -2.806   1.962  -2.437  0.00  0.00    +0.008 C 
ENDBRANCH  21  23
ENDBRANCH  20  21
ENDBRANCH  19  20
ENDBRANCH   5  19
TORSDOF 7
