REMARK  Name = ZINC49776914
REMARK  3 active torsions:
REMARK  status: ('A' for Active; 'I' for Inactive)
REMARK    1  A    between atoms: C_1  and  C_2
REMARK    2  A    between atoms: C_5  and  N_9
REMARK    3  A    between atoms: C_17  and  C_19
REMARK                            x       y       z     vdW  Elec       q    Type
REMARK                         _______ _______ _______ _____ _____    ______ ____
ROOT
ATOM      1  C   UNL     1      -3.067   4.978  -2.122  0.00  0.00    +0.085 C 
ATOM      2  C   UNL     1      -2.821   3.561  -2.573  0.00  0.00    +0.102 C 
ATOM      3  N   UNL     1      -1.637   3.069  -2.764  0.00  0.00    -0.245 NA
ATOM      4  C   UNL     1      -1.831   1.673  -3.194  0.00  0.00    +0.239 C 
ATOM      5  C   UNL     1      -3.340   1.521  -3.195  0.00  0.00    +0.111 C 
ATOM      6  N   UNL     1      -3.802   2.685  -2.811  0.00  0.00    -0.333 N 
ATOM      7  N   UNL     1      -4.058   0.413  -3.519  0.00  0.00    -0.345 N 
ATOM      8  H   UNL     1      -3.607  -0.433  -3.660  0.00  0.00    +0.143 HD
ATOM      9  H   UNL     1      -5.023   0.470  -3.608  0.00  0.00    +0.143 HD
ATOM     10  H   UNL     1      -4.745   2.888  -2.713  0.00  0.00    +0.168 HD
ENDROOT
BRANCH   4  11
ATOM     11  N   UNL     1      -1.284   1.464  -4.542  0.00  0.00    -0.268 NA
ATOM     12  C   UNL     1      -1.975   2.308  -5.527  0.00  0.00    +0.092 C 
ATOM     13  C   UNL     1      -1.125   2.373  -6.807  0.00  0.00    +0.058 C 
ATOM     14  C   UNL     1      -0.696   0.981  -7.139  0.00  0.00    -0.004 A 
ATOM     15  C   UNL     1      -0.763  -0.108  -6.323  0.00  0.00    -0.020 A 
ATOM     16  C   UNL     1      -0.305  -1.312  -6.852  0.00  0.00    +0.013 A 
ATOM     17  C   UNL     1       0.178  -1.356  -8.116  0.00  0.00    +0.046 A 
ATOM     18  S   UNL     1       0.004   0.345  -8.636  0.00  0.00    -0.101 S 
ATOM     19  C   UNL     1      -1.319   0.043  -4.910  0.00  0.00    +0.087 C 
ATOM     20  C   UNL     1      -0.462  -0.762  -3.932  0.00  0.00    +0.029 C 
ENDBRANCH   4  11
TORSDOF 1
