REMARK  Name = ZINC65618888
REMARK  9 active torsions:
REMARK  status: ('A' for Active; 'I' for Inactive)
REMARK    1  A    between atoms: C_1  and  C_2
REMARK    2  A    between atoms: C_5  and  O_8
REMARK    3  A    between atoms: O_8  and  C_9
REMARK    4  A    between atoms: C_9  and  C_10
REMARK    5  A    between atoms: C_10  and  C_11
REMARK    6  A    between atoms: C_10  and  N_12
REMARK    7  A    between atoms: C_13  and  C_15
REMARK    8  A    between atoms: N_17  and  C_18
REMARK    9  A    between atoms: C_20  and  N_25
REMARK                            x       y       z     vdW  Elec       q    Type
REMARK                         _______ _______ _______ _____ _____    ______ ____
ROOT
ATOM      1  N   UNL     1       1.358  -6.680   0.409  0.00  0.00    -0.302 N 
ATOM      2  C   UNL     1       1.836  -7.931   0.559  0.00  0.00    +0.300 C 
ATOM      3  O   UNL     1       1.232  -8.733   1.241  0.00  0.00    -0.265 OA
ATOM      4  H   UNL     1       1.840  -6.039  -0.137  0.00  0.00    +0.150 HD
ENDROOT
BRANCH   2   5
ATOM      5  C   UNL     1       3.107  -8.331  -0.115  0.00  0.00    +0.303 C 
ATOM      6  O   UNL     1       3.711  -7.528  -0.797  0.00  0.00    -0.265 OA
ATOM      7  N   UNL     1       3.585  -9.582   0.036  0.00  0.00    -0.275 N 
ATOM      8  H   UNL     1       3.139 -10.203   0.632  0.00  0.00    +0.155 HD
BRANCH   7   9
ATOM      9  C   UNL     1       4.724  -9.985  -0.668  0.00  0.00    +0.072 A 
ATOM     10  C   UNL     1       5.746  -9.077  -0.917  0.00  0.00    +0.059 A 
ATOM     11  C   UNL     1       6.870  -9.478  -1.613  0.00  0.00    +0.128 A 
ATOM     12  C   UNL     1       6.979 -10.781  -2.062  0.00  0.00    +0.035 A 
ATOM     13  C   UNL     1       5.965 -11.689  -1.818  0.00  0.00    +0.042 A 
ATOM     14  C   UNL     1       4.839 -11.296  -1.117  0.00  0.00    +0.145 A 
ATOM     15  F   UNL     1       3.851 -12.184  -0.872  0.00  0.00    -0.204 F 
BRANCH  11  16
ATOM     16  N   UNL     1       7.958  -8.511  -1.878  0.00  0.00    +0.056 N 
ATOM     17  O   UNL     1       7.863  -7.371  -1.486  0.00  0.00    -0.126 OA
ATOM     18  O   UNL     1       8.942  -8.861  -2.487  0.00  0.00    -0.126 OA
ENDBRANCH  11  16
ENDBRANCH   7   9
ENDBRANCH   2   5
BRANCH   1  19
ATOM     19  C   UNL     1       0.110  -6.288   1.069  0.00  0.00    +0.108 C 
ATOM     20  C   UNL     1      -1.078  -6.689   0.194  0.00  0.00    +0.031 C 
BRANCH  19  21
ATOM     21  C   UNL     1       0.100  -4.772   1.280  0.00  0.00    +0.251 C 
BRANCH  21  22
ATOM     22  O   UNL     1       0.078  -4.115   0.012  0.00  0.00    -0.490 OA
BRANCH  22  27
ATOM     23  C   UNL     1       0.026   1.517   0.052  0.00  0.00    +0.044 C 
ATOM     24  C   UNL     1       0.041   0.010   0.041  0.00  0.00    -0.050 A 
ATOM     25  C   UNL     1       0.033  -0.671  -1.162  0.00  0.00    +0.007 A 
ATOM     26  C   UNL     1       0.046  -2.053  -1.174  0.00  0.00    +0.046 A 
ATOM     27  C   UNL     1       0.066  -2.756   0.021  0.00  0.00    +0.121 A 
ATOM     28  C   UNL     1       0.074  -2.070   1.227  0.00  0.00    +0.046 A 
ATOM     29  C   UNL     1       0.067  -0.688   1.234  0.00  0.00    +0.007 A 
ENDBRANCH  22  27
ENDBRANCH  21  22
ENDBRANCH  19  21
ENDBRANCH   1  19
TORSDOF 7
