REMARK  Name = ZINC66783136
REMARK  6 active torsions:
REMARK  status: ('A' for Active; 'I' for Inactive)
REMARK    1  A    between atoms: C_1  and  C_2
REMARK    2  A    between atoms: C_6  and  C_7
REMARK    3  A    between atoms: N_9  and  N_10
REMARK    4  A    between atoms: C_11  and  C_13
REMARK    5  A    between atoms: C_16  and  N_20
REMARK    6  A    between atoms: C_17  and  C_19
REMARK                            x       y       z     vdW  Elec       q    Type
REMARK                         _______ _______ _______ _____ _____    ______ ____
ROOT
ATOM      1  N   UNL     1       0.058  -0.732   4.900  0.00  0.00    -0.230 N 
ATOM      2  C   UNL     1       0.080  -1.625   5.909  0.00  0.00    +0.260 C 
ATOM      3  O   UNL     1       0.094  -2.816   5.666  0.00  0.00    -0.269 OA
ATOM      4  H   UNL     1       0.046   0.219   5.094  0.00  0.00    +0.173 HD
ENDROOT
BRANCH   2   5
ATOM      5  C   UNL     1       0.086  -1.157   7.309  0.00  0.00    +0.039 A 
ATOM      6  C   UNL     1       0.064   0.212   7.590  0.00  0.00    +0.015 A 
ATOM      7  C   UNL     1       0.069   0.645   8.896  0.00  0.00    +0.024 A 
ATOM      8  C   UNL     1       0.097  -0.278   9.937  0.00  0.00    +0.041 A 
ATOM      9  C   UNL     1       0.119  -1.641   9.661  0.00  0.00    -0.028 A 
ATOM     10  C   UNL     1       0.108  -2.082   8.356  0.00  0.00    +0.018 A 
ATOM     11  C   UNL     1       0.150  -2.638  10.791  0.00  0.00    +0.046 C 
BRANCH   8  12
ATOM     12  N   UNL     1       0.103   0.164  11.259  0.00  0.00    -0.254 N 
ATOM     13  C   UNL     1       1.305   0.462  12.053  0.00  0.00    +0.134 C 
ATOM     14  C   UNL     1       0.746   0.903  13.419  0.00  0.00    +0.125 C 
ATOM     15  N   UNL     1      -0.712   0.808  13.250  0.00  0.00    -0.297 N 
ATOM     16  C   UNL     1      -0.985   0.391  12.007  0.00  0.00    +0.307 C 
ATOM     17  O   UNL     1      -2.117   0.229  11.595  0.00  0.00    -0.252 OA
ATOM     18  H   UNL     1      -1.372   1.017  13.930  0.00  0.00    +0.150 HD
ENDBRANCH   8  12
ENDBRANCH   2   5
BRANCH   1  21
ATOM     19  C   UNL     1       0.030  -0.283   2.562  0.00  0.00    +0.267 C 
ATOM     20  O   UNL     1       0.015   0.910   2.805  0.00  0.00    -0.268 OA
ATOM     21  N   UNL     1       0.051  -1.176   3.571  0.00  0.00    -0.230 N 
ATOM     22  H   UNL     1       0.063  -2.126   3.378  0.00  0.00    +0.173 HD
BRANCH  19  28
ATOM     23  C   UNL     1      -0.018   1.503   0.010  0.00  0.00    +0.045 C 
ATOM     24  C   UNL     1       0.002  -0.004   0.002  0.00  0.00    -0.031 A 
ATOM     25  C   UNL     1       0.007  -0.729  -1.166  0.00  0.00    +0.011 A 
ATOM     26  C   UNL     1       0.026  -2.083  -1.101  0.00  0.00    +0.046 A 
ATOM     27  S   UNL     1       0.038  -2.416   0.545  0.00  0.00    -0.092 S 
ATOM     28  C   UNL     1       0.023  -0.748   1.172  0.00  0.00    +0.078 A 
ENDBRANCH  19  28
ENDBRANCH   1  21
TORSDOF 4
