REMARK  Name = ZINC41663793
REMARK  10 active torsions:
REMARK  status: ('A' for Active; 'I' for Inactive)
REMARK    1  A    between atoms: C_1  and  N_2
REMARK    2  A    between atoms: C_3  and  C_20
REMARK    3  A    between atoms: C_6  and  S_7
REMARK    4  A    between atoms: S_7  and  C_8
REMARK    5  A    between atoms: C_8  and  C_9
REMARK    6  A    between atoms: C_10  and  C_16
REMARK    7  A    between atoms: C_16  and  O_18
REMARK    8  A    between atoms: O_18  and  C_19
REMARK    9  A    between atoms: C_20  and  O_21
REMARK   10  A    between atoms: O_21  and  C_22
REMARK                            x       y       z     vdW  Elec       q    Type
REMARK                         _______ _______ _______ _____ _____    ______ ____
ROOT
ATOM      1  C   UNL     1       0.740   1.316  -0.019  0.00  0.00    +0.153 C 
ATOM      2  N   UNL     1       0.485  -0.127  -0.011  0.00  0.00    -0.306 N 
ATOM      3  C   UNL     1       0.375  -0.952  -1.096  0.00  0.00    +0.172 A 
ATOM      4  N   UNL     1       0.149  -2.154  -0.647  0.00  0.00    -0.130 NA
ATOM      5  N   UNL     1       0.109  -2.146   0.637  0.00  0.00    -0.122 NA
ATOM      6  C   UNL     1       0.314  -0.927   1.082  0.00  0.00    +0.192 A 
ENDROOT
BRANCH   6   7
ATOM      7  S   UNL     1       0.357  -0.421   2.769  0.00  0.00    -0.080 S 
BRANCH   7   8
ATOM      8  C   UNL     1       0.062  -1.952   3.695  0.00  0.00    +0.133 C 
BRANCH   8   9
ATOM      9  C   UNL     1       0.074  -1.657   5.172  0.00  0.00    +0.070 A 
ATOM     10  C   UNL     1       1.285  -1.590   5.875  0.00  0.00    +0.099 A 
ATOM     11  C   UNL     1       1.242  -1.312   7.247  0.00  0.00    +0.131 A 
ATOM     12  N   UNL     1       0.070  -1.124   7.825  0.00  0.00    -0.222 NA
ATOM     13  C   UNL     1      -1.054  -1.196   7.125  0.00  0.00    +0.213 A 
ATOM     14  N   UNL     1      -1.055  -1.451   5.823  0.00  0.00    -0.218 NA
ATOM     15  N   UNL     1      -2.257  -0.993   7.768  0.00  0.00    -0.327 N 
ATOM     16  H   UNL     1      -2.273  -0.801   8.719  0.00  0.00    +0.145 HD
ATOM     17  H   UNL     1      -3.088  -1.042   7.270  0.00  0.00    +0.145 HD
BRANCH  10  18
ATOM     18  C   UNL     1       2.571  -1.807   5.187  0.00  0.00    +0.342 C 
ATOM     19  O   UNL     1       2.600  -1.942   3.980  0.00  0.00    -0.245 OA
BRANCH  18  20
ATOM     20  O   UNL     1       3.715  -1.856   5.898  0.00  0.00    -0.464 OA
ATOM     21  C   UNL     1       4.924  -2.070   5.167  0.00  0.00    +0.280 C 
ENDBRANCH  18  20
ENDBRANCH  10  18
ENDBRANCH   8   9
ENDBRANCH   7   8
ENDBRANCH   6   7
BRANCH   3  22
ATOM     22  C   UNL     1       0.493  -0.546  -2.542  0.00  0.00    +0.305 C 
BRANCH  22  23
ATOM     23  O   UNL     1       1.856  -0.651  -2.957  0.00  0.00    -0.484 OA
BRANCH  23  24
ATOM     24  C   UNL     1       2.137  -0.319  -4.245  0.00  0.00    +0.121 A 
ATOM     25  C   UNL     1       1.122   0.104  -5.090  0.00  0.00    +0.047 A 
ATOM     26  C   UNL     1       1.409   0.441  -6.399  0.00  0.00    +0.019 A 
ATOM     27  C   UNL     1       2.708   0.357  -6.866  0.00  0.00    +0.018 A 
ATOM     28  C   UNL     1       3.722  -0.066  -6.025  0.00  0.00    +0.019 A 
ATOM     29  C   UNL     1       3.440  -0.398  -4.714  0.00  0.00    +0.047 A 
ATOM     30 BR   UNL     1       3.099   0.819  -8.658  0.00  0.00    -0.050 Br
ENDBRANCH  23  24
ENDBRANCH  22  23
ENDBRANCH   3  22
TORSDOF 8
