REMARK  Name = ZINC65520421
REMARK  8 active torsions:
REMARK  status: ('A' for Active; 'I' for Inactive)
REMARK    1  A    between atoms: C_1  and  C_2
REMARK    2  A    between atoms: C_8  and  C_10
REMARK    3  A    between atoms: N_12  and  N_13
REMARK    4  A    between atoms: N_16  and  C_17
REMARK    5  A    between atoms: C_17  and  C_18
REMARK    6  A    between atoms: N_21  and  C_23
REMARK    7  A    between atoms: C_23  and  C_24
REMARK    8  A    between atoms: C_23  and  C_25
REMARK                            x       y       z     vdW  Elec       q    Type
REMARK                         _______ _______ _______ _____ _____    ______ ____
ROOT
ATOM      1  N   UNL     1       2.215  -7.558   3.277  0.00  0.00    -0.218 N 
ATOM      2  C   UNL     1       1.826  -8.840   3.123  0.00  0.00    +0.316 C 
ATOM      3  O   UNL     1       2.419  -9.729   3.704  0.00  0.00    -0.251 OA
ATOM      4  N   UNL     1       0.780  -9.136   2.327  0.00  0.00    -0.298 N 
ATOM      5  H   UNL     1       2.968  -7.345   3.850  0.00  0.00    +0.174 HD
ATOM      6  H   UNL     1       0.307  -8.427   1.864  0.00  0.00    +0.150 HD
ENDROOT
BRANCH   1   9
ATOM      7  C   UNL     1       1.921  -5.253   2.761  0.00  0.00    +0.267 C 
ATOM      8  O   UNL     1       2.866  -4.986   3.481  0.00  0.00    -0.268 OA
ATOM      9  N   UNL     1       1.532  -6.534   2.608  0.00  0.00    -0.229 N 
ATOM     10  H   UNL     1       0.779  -6.747   2.035  0.00  0.00    +0.173 HD
BRANCH   7  18
ATOM     11  C   UNL     1      -0.019   1.526   0.010  0.00  0.00    +0.008 C 
ATOM     12  C   UNL     1       0.002  -0.004   0.002  0.00  0.00    -0.009 C 
ATOM     13  C   UNL     1      -1.435  -0.532   0.004  0.00  0.00    +0.009 C 
ATOM     14  C   UNL     1      -1.407  -2.041  -0.277  0.00  0.00    +0.043 C 
ATOM     15  C   UNL     1      -0.379  -2.671   0.616  0.00  0.00    -0.006 A 
ATOM     16  C   UNL     1       0.599  -2.027   1.315  0.00  0.00    -0.036 A 
ATOM     17  C   UNL     1       1.441  -2.819   2.082  0.00  0.00    +0.024 A 
ATOM     18  C   UNL     1       1.206  -4.181   2.062  0.00  0.00    +0.076 A 
ATOM     19  S   UNL     1      -0.192  -4.294   0.962  0.00  0.00    -0.088 S 
ATOM     20  C   UNL     1       0.742  -0.509   1.241  0.00  0.00    +0.039 C 
ENDBRANCH   7  18
ENDBRANCH   1   9
BRANCH   4  21
ATOM     21  C   UNL     1       0.358 -10.528   2.160  0.00  0.00    +0.107 C 
BRANCH  21  22
ATOM     22  C   UNL     1      -0.842 -10.587   1.212  0.00  0.00    -0.012 C 
ATOM     23  C   UNL     1      -0.406 -10.279  -0.244  0.00  0.00    -0.015 C 
ATOM     24  C   UNL     1      -1.493 -11.021  -1.060  0.00  0.00    -0.078 C 
ATOM     25  N   UNL     1      -1.762 -12.257  -0.294  0.00  0.00    +0.381 N 
ATOM     26  C   UNL     1      -1.389 -12.027   1.114  0.00  0.00    -0.074 C 
ATOM     27  H   UNL     1      -1.215 -13.016  -0.671  0.00  0.00    -0.081 HD
BRANCH  25  28
ATOM     28  C   UNL     1      -3.191 -12.590  -0.379  0.00  0.00    -0.075 C 
ATOM     29  C   UNL     1      -3.570 -12.841  -1.840  0.00  0.00    -0.014 C 
ATOM     30  C   UNL     1      -3.470 -13.849   0.444  0.00  0.00    -0.014 C 
ENDBRANCH  25  28
ENDBRANCH  21  22
ENDBRANCH   4  21
TORSDOF 5
