REMARK  Name = ZINC09867882
REMARK  5 active torsions:
REMARK  status: ('A' for Active; 'I' for Inactive)
REMARK    1  A    between atoms: C_1  and  C_2
REMARK    2  A    between atoms: N_11  and  C_15
REMARK    3  A    between atoms: C_15  and  N_63
REMARK    4  A    between atoms: N_18  and  C_21
REMARK    5  A    between atoms: N_24  and  C_29
REMARK                            x       y       z     vdW  Elec       q    Type
REMARK                         _______ _______ _______ _____ _____    ______ ____
ROOT
ATOM      1  C   UNL     1      -0.700   1.975  -0.671  0.00  0.00    -0.057 C 
ATOM      2  C   UNL     1      -0.749   3.502  -0.578  0.00  0.00    +0.086 C 
ATOM      3  N   UNL     1       0.533   4.059  -1.031  0.00  0.00    -0.331 N 
ATOM      4  C   UNL     1       1.643   3.556  -0.210  0.00  0.00    +0.086 C 
ATOM      5  C   UNL     1       1.692   2.029  -0.303  0.00  0.00    -0.057 C 
ATOM      6  N   UNL     1       0.406   1.481   0.176  0.00  0.00    +0.392 N 
ATOM      7  H   UNL     1       0.250   1.792   1.143  0.00  0.00    -0.079 HD
ENDROOT
BRANCH   3   8
ATOM      8  C   UNL     1       0.501   5.444  -1.028  0.00  0.00    +0.074 A 
ATOM      9  C   UNL     1       0.324   6.149   0.182  0.00  0.00    +0.158 A 
ATOM     10  N   UNL     1       0.300   7.453   0.188  0.00  0.00    -0.170 NA
ATOM     11  N   UNL     1       0.435   8.182  -0.998  0.00  0.00    -0.195 N 
ATOM     12  C   UNL     1       0.600   7.550  -2.176  0.00  0.00    +0.292 A 
ATOM     13  O   UNL     1       0.718   8.193  -3.208  0.00  0.00    -0.264 OA
ATOM     14  C   UNL     1       0.636   6.149  -2.211  0.00  0.00    +0.129 A 
ATOM     15 CL   UNL     1       0.848   5.309  -3.716  0.00  0.00    -0.076 Cl
BRANCH  11  16
ATOM     16  C   UNL     1       0.399   9.581  -0.961  0.00  0.00    +0.069 A 
ATOM     17  C   UNL     1       1.377  10.320  -1.615  0.00  0.00    +0.028 A 
ATOM     18  C   UNL     1       1.335  11.700  -1.581  0.00  0.00    +0.002 A 
ATOM     19  C   UNL     1       0.328  12.346  -0.886  0.00  0.00    +0.000 A 
ATOM     20  C   UNL     1      -0.643  11.613  -0.229  0.00  0.00    +0.002 A 
ATOM     21  C   UNL     1      -0.611  10.233  -0.265  0.00  0.00    +0.028 A 
ENDBRANCH  11  16
ENDBRANCH   3   8
BRANCH   6  22
ATOM     22  C   UNL     1       0.444   0.003   0.147  0.00  0.00    +0.043 C 
BRANCH  22  32
ATOM     23  C   UNL     1      -0.862  -3.588   2.396  0.00  0.00    +0.010 C 
ATOM     24  C   UNL     1      -1.372  -2.691   3.525  0.00  0.00    +0.018 C 
ATOM     25  C   UNL     1      -0.360  -2.693   4.674  0.00  0.00    +0.006 C 
ATOM     26  C   UNL     1      -0.861  -1.780   5.795  0.00  0.00    +0.000 C 
ATOM     27  C   UNL     1      -1.011  -0.353   5.263  0.00  0.00    +0.003 C 
ATOM     28  C   UNL     1      -2.025  -0.341   4.117  0.00  0.00    +0.035 C 
ATOM     29  C   UNL     1      -1.550  -1.269   3.004  0.00  0.00    +0.115 C 
ATOM     30  C   UNL     1      -0.256  -0.764   2.407  0.00  0.00    +0.245 C 
ATOM     31  O   UNL     1       0.805  -0.618   2.974  0.00  0.00    -0.273 OA
ATOM     32  N   UNL     1      -0.532  -0.510   1.111  0.00  0.00    -0.241 N 
ATOM     33  C   UNL     1      -1.808  -0.790   0.815  0.00  0.00    +0.308 C 
ATOM     34  O   UNL     1      -2.292  -0.646  -0.291  0.00  0.00    -0.252 OA
ATOM     35  N   UNL     1      -2.494  -1.248   1.879  0.00  0.00    -0.285 N 
ATOM     36  H   UNL     1      -3.427  -1.513   1.899  0.00  0.00    +0.151 HD
ENDBRANCH  22  32
ENDBRANCH   6  22
TORSDOF 4
