REMARK  Name = ZINC08760998
REMARK  9 active torsions:
REMARK  status: ('A' for Active; 'I' for Inactive)
REMARK    1  A    between atoms: C_1  and  C_2
REMARK    2  A    between atoms: C_2  and  N_3
REMARK    3  A    between atoms: N_3  and  C_4
REMARK    4  A    between atoms: N_3  and  C_6
REMARK    5  A    between atoms: C_4  and  C_5
REMARK    6  A    between atoms: C_9  and  N_12
REMARK    7  A    between atoms: C_13  and  C_15
REMARK    8  A    between atoms: C_15  and  N_16
REMARK    9  A    between atoms: C_23  and  N_27
REMARK                            x       y       z     vdW  Elec       q    Type
REMARK                         _______ _______ _______ _____ _____    ______ ____
ROOT
ATOM      1  N   UNL     1       1.587  -6.019   0.668  0.00  0.00    -0.284 N 
ATOM      2  C   UNL     1       0.788  -6.769  -0.118  0.00  0.00    +0.235 C 
ATOM      3  O   UNL     1      -0.077  -6.240  -0.783  0.00  0.00    -0.274 OA
ATOM      4  H   UNL     1       2.325  -6.432   1.143  0.00  0.00    +0.155 HD
ENDROOT
BRANCH   1   8
ATOM      5  C   UNL     1       0.884  -1.932   1.058  0.00  0.00    +0.014 A 
ATOM      6  C   UNL     1      -0.179  -2.803   0.908  0.00  0.00    +0.023 A 
ATOM      7  C   UNL     1       0.051  -4.159   0.779  0.00  0.00    +0.025 A 
ATOM      8  C   UNL     1       1.351  -4.646   0.798  0.00  0.00    +0.034 A 
ATOM      9  C   UNL     1       2.416  -3.768   0.949  0.00  0.00    +0.025 A 
ATOM     10  C   UNL     1       2.180  -2.413   1.073  0.00  0.00    +0.023 A 
BRANCH   5  11
ATOM     11  N   UNL     1       0.648  -0.560   1.189  0.00  0.00    -0.394 NA
ATOM     12  H   UNL     1       1.527  -0.075   1.284  0.00  0.00    +0.126 HD
BRANCH  11  14
ATOM     13  C   UNL     1       0.841  -0.233  -1.230  0.00  0.00    +0.022 C 
ATOM     14  C   UNL     1      -0.057  -0.068  -0.002  0.00  0.00    +0.081 C 
ENDBRANCH  11  14
BRANCH  11  15
ATOM     15  C   UNL     1      -0.176  -0.316   2.381  0.00  0.00    +0.081 C 
ATOM     16  C   UNL     1       0.602  -0.728   3.632  0.00  0.00    +0.022 C 
ENDBRANCH  11  15
ENDBRANCH   5  11
ENDBRANCH   1   8
BRANCH   2  17
ATOM     17  C   UNL     1       0.971  -8.264  -0.170  0.00  0.00    +0.213 C 
BRANCH  17  18
ATOM     18  N   UNL     1      -0.011  -8.844  -1.089  0.00  0.00    -0.225 N 
ATOM     19  C   UNL     1      -1.240  -9.257  -0.729  0.00  0.00    +0.254 C 
ATOM     20  O   UNL     1      -1.703  -9.208   0.393  0.00  0.00    -0.270 OA
ATOM     21  C   UNL     1      -1.931  -9.779  -1.926  0.00  0.00    +0.052 A 
ATOM     22  C   UNL     1      -3.183 -10.324  -2.160  0.00  0.00    +0.014 A 
ATOM     23  C   UNL     1      -3.530 -10.727  -3.440  0.00  0.00    +0.003 A 
ATOM     24  C   UNL     1      -2.635 -10.588  -4.484  0.00  0.00    +0.033 A 
ATOM     25  C   UNL     1      -1.379 -10.044  -4.266  0.00  0.00    +0.139 A 
ATOM     26  C   UNL     1      -1.019  -9.637  -2.991  0.00  0.00    +0.080 A 
ATOM     27  C   UNL     1       0.195  -9.028  -2.406  0.00  0.00    +0.256 C 
ATOM     28  O   UNL     1       1.208  -8.745  -3.011  0.00  0.00    -0.269 OA
BRANCH  25  29
ATOM     29  N   UNL     1      -0.426  -9.898  -5.389  0.00  0.00    +0.057 N 
ATOM     30  O   UNL     1      -0.743 -10.254  -6.500  0.00  0.00    -0.126 OA
ATOM     31  O   UNL     1       0.669  -9.424  -5.196  0.00  0.00    -0.126 OA
ENDBRANCH  25  29
ENDBRANCH  17  18
ENDBRANCH   2  17
TORSDOF 7
