REMARK  Name = ZINC60362734
REMARK  4 active torsions:
REMARK  status: ('A' for Active; 'I' for Inactive)
REMARK    1  A    between atoms: C_7  and  C_10
REMARK    2  A    between atoms: C_10  and  C_11
REMARK    3  A    between atoms: N_13  and  C_14
REMARK    4  A    between atoms: C_21  and  N_23
REMARK                            x       y       z     vdW  Elec       q    Type
REMARK                         _______ _______ _______ _____ _____    ______ ____
ROOT
ATOM      1  C   UNL     1       0.318  -3.653  -1.442  0.00  0.00    +0.219 C 
ATOM      2  O   UNL     1       0.805  -3.036  -2.365  0.00  0.00    -0.275 OA
ATOM      3  N   UNL     1      -0.518  -4.682  -1.685  0.00  0.00    -0.312 N 
ATOM      4  H   UNL     1      -0.907  -5.176  -0.947  0.00  0.00    +0.149 HD
ENDROOT
BRANCH   3   5
ATOM      5  C   UNL     1      -0.838  -5.054  -3.066  0.00  0.00    +0.082 C 
ATOM      6  C   UNL     1       0.281  -5.975  -3.601  0.00  0.00    +0.186 C 
ATOM      7  S   UNL     1      -0.485  -7.640  -3.378  0.00  0.00    -0.031 S 
ATOM      8  O   UNL     1      -0.316  -8.059  -2.031  0.00  0.00    -0.174 OA
ATOM      9  O   UNL     1      -0.075  -8.492  -4.439  0.00  0.00    -0.174 OA
ATOM     10  C   UNL     1      -2.239  -7.130  -3.643  0.00  0.00    +0.152 C 
ATOM     11  C   UNL     1      -2.219  -5.691  -3.089  0.00  0.00    -0.025 C 
BRANCH  11  12
ATOM     12  N   UNL     1      -3.105  -4.862  -3.916  0.00  0.00    +0.384 N 
ATOM     13  C   UNL     1      -3.179  -3.510  -3.348  0.00  0.00    -0.078 C 
ATOM     14  C   UNL     1      -4.035  -2.619  -4.250  0.00  0.00    -0.019 C 
ATOM     15  C   UNL     1      -5.445  -3.210  -4.352  0.00  0.00    -0.004 C 
ATOM     16  C   UNL     1      -5.349  -4.646  -4.876  0.00  0.00    -0.019 C 
ATOM     17  C   UNL     1      -4.444  -5.462  -3.950  0.00  0.00    -0.078 C 
ATOM     18  H   UNL     1      -2.737  -4.810  -4.854  0.00  0.00    -0.081 HD
ENDBRANCH  11  12
ENDBRANCH   3   5
BRANCH   1  19
ATOM     19  C   UNL     1       0.648  -3.271  -0.022  0.00  0.00    +0.155 C 
BRANCH  19  26
ATOM     20  C   UNL     1      -0.017   1.362   0.009  0.00  0.00    +0.001 A 
ATOM     21  C   UNL     1       1.169   2.083   0.002  0.00  0.00    +0.004 A 
ATOM     22  C   UNL     1       2.385   1.434  -0.013  0.00  0.00    +0.049 A 
ATOM     23  C   UNL     1       2.426   0.044  -0.021  0.00  0.00    +0.168 A 
ATOM     24  C   UNL     1       1.224  -0.681  -0.013  0.00  0.00    +0.045 A 
ATOM     25  C   UNL     1       0.002  -0.004   0.002  0.00  0.00    +0.013 A 
ATOM     26  C   UNL     1       1.596  -2.099  -0.025  0.00  0.00    +0.100 A 
ATOM     27  N   UNL     1       2.892  -2.160  -0.037  0.00  0.00    -0.082 NA
ATOM     28  O   UNL     1       3.431  -0.854  -0.035  0.00  0.00    -0.354 OA
ENDBRANCH  19  26
ENDBRANCH   1  19
TORSDOF 4
