REMARK  Name = ZINC41447423
REMARK  12 active torsions:
REMARK  status: ('A' for Active; 'I' for Inactive)
REMARK    1  A    between atoms: C_1  and  N_2
REMARK    2  A    between atoms: N_2  and  C_3
REMARK    3  A    between atoms: N_2  and  C_4
REMARK    4  A    between atoms: C_4  and  C_6
REMARK    5  A    between atoms: C_4  and  C_23
REMARK    6  A    between atoms: C_6  and  N_7
REMARK    7  A    between atoms: N_10  and  C_11
REMARK    8  A    between atoms: C_11  and  C_12
REMARK    9  A    between atoms: C_12  and  C_14
REMARK   10  A    between atoms: C_12  and  O_22
REMARK   11  A    between atoms: C_17  and  O_20
REMARK   12  A    between atoms: O_20  and  C_21
REMARK                            x       y       z     vdW  Elec       q    Type
REMARK                         _______ _______ _______ _____ _____    ______ ____
ROOT
ATOM      1  N   UNL     1       0.906  -1.994  -0.533  0.00  0.00    -0.301 N 
ATOM      2  C   UNL     1       0.921  -3.260  -0.996  0.00  0.00    +0.300 C 
ATOM      3  O   UNL     1       0.472  -4.162  -0.315  0.00  0.00    -0.253 OA
ATOM      4  N   UNL     1       1.434  -3.526  -2.214  0.00  0.00    -0.297 N 
ATOM      5  H   UNL     1       1.264  -1.275  -1.076  0.00  0.00    +0.150 HD
ATOM      6  H   UNL     1       1.792  -2.806  -2.757  0.00  0.00    +0.150 HD
ENDROOT
BRANCH   1   7
ATOM      7  C   UNL     1       0.349  -1.705   0.791  0.00  0.00    +0.095 C 
BRANCH   7   8
ATOM      8  C   UNL     1       0.569  -0.229   1.126  0.00  0.00    -0.014 C 
BRANCH   8   9
ATOM      9  C   UNL     1       2.046   0.043   1.252  0.00  0.00    -0.022 A 
ATOM     10  C   UNL     1       2.892   0.600   0.350  0.00  0.00    +0.009 A 
ATOM     11  C   UNL     1       4.224   0.753   0.687  0.00  0.00    +0.008 A 
ATOM     12  C   UNL     1       4.645   0.343   1.908  0.00  0.00    +0.045 A 
ATOM     13  S   UNL     1       3.135  -0.279   2.630  0.00  0.00    -0.103 S 
ENDBRANCH   8   9
BRANCH   8  15
ATOM     14  C   UNL     1       0.174   1.489   2.753  0.00  0.00    -0.096 C 
ATOM     15  N   UNL     1      -0.098   0.090   2.395  0.00  0.00    +0.382 N 
ATOM     16  C   UNL     1      -1.546  -0.106   2.250  0.00  0.00    -0.096 C 
ATOM     17  H   UNL     1       0.253  -0.516   3.121  0.00  0.00    -0.082 HD
ENDBRANCH   8  15
ENDBRANCH   7   8
ENDBRANCH   1   7
BRANCH   4  18
ATOM     18  C   UNL     1       1.450  -4.901  -2.717  0.00  0.00    +0.141 C 
BRANCH  18  19
ATOM     19  C   UNL     1       2.080  -4.927  -4.111  0.00  0.00    +0.162 C 
BRANCH  19  20
ATOM     20  C   UNL     1       2.097  -6.342  -4.629  0.00  0.00    -0.017 A 
ATOM     21  C   UNL     1       0.986  -6.855  -5.272  0.00  0.00    +0.010 A 
ATOM     22  C   UNL     1       0.999  -8.152  -5.747  0.00  0.00    +0.046 A 
ATOM     23  C   UNL     1       2.128  -8.940  -5.579  0.00  0.00    +0.120 A 
ATOM     24  C   UNL     1       3.242  -8.423  -4.934  0.00  0.00    +0.046 A 
ATOM     25  C   UNL     1       3.226  -7.124  -4.465  0.00  0.00    +0.010 A 
BRANCH  23  26
ATOM     26  O   UNL     1       2.143 -10.216  -6.045  0.00  0.00    -0.495 OA
ATOM     27  C   UNL     1       3.339 -10.970  -5.837  0.00  0.00    +0.277 C 
ENDBRANCH  23  26
ENDBRANCH  19  20
BRANCH  19  28
ATOM     28  O   UNL     1       1.315  -4.105  -4.995  0.00  0.00    -0.386 OA
ATOM     29  H   UNL     1       0.394  -4.384  -5.093  0.00  0.00    +0.210 HD
ENDBRANCH  19  28
ENDBRANCH  18  19
ENDBRANCH   4  18
TORSDOF 9
