REMARK  Name = ZINC65553684
REMARK  4 active torsions:
REMARK  status: ('A' for Active; 'I' for Inactive)
REMARK    1  A    between atoms: C_4  and  C_6
REMARK    2  A    between atoms: C_6  and  C_7
REMARK    3  A    between atoms: N_12  and  C_15
REMARK    4  A    between atoms: C_15  and  C_16
REMARK                            x       y       z     vdW  Elec       q    Type
REMARK                         _______ _______ _______ _____ _____    ______ ____
ROOT
ATOM      1  C   UNL     1       1.069  -2.861   0.186  0.00  0.00    +0.216 C 
ATOM      2  O   UNL     1       0.504  -2.732  -0.879  0.00  0.00    -0.276 OA
ATOM      3  N   UNL     1       1.133  -4.072   0.773  0.00  0.00    -0.299 N 
ATOM      4  C   UNL     1       1.809  -4.250   2.067  0.00  0.00    +0.123 C 
ATOM      5  C   UNL     1       0.859  -4.988   3.015  0.00  0.00    +0.104 C 
ATOM      6  N   UNL     1       0.403  -6.231   2.377  0.00  0.00    -0.291 NA
ATOM      7  C   UNL     1      -0.370  -5.952   1.160  0.00  0.00    +0.104 C 
ATOM      8  C   UNL     1       0.524  -5.251   0.139  0.00  0.00    +0.123 C 
ENDROOT
BRANCH   1   9
ATOM      9  C   UNL     1       1.701  -1.666   0.854  0.00  0.00    +0.099 C 
BRANCH   9  13
ATOM     10  C   UNL     1      -0.019   1.534   0.011  0.00  0.00    +0.000 C 
ATOM     11  C   UNL     1       1.453   1.995  -0.001  0.00  0.00    +0.000 C 
ATOM     12  C   UNL     1       2.232   0.792   0.586  0.00  0.00    +0.004 C 
ATOM     13  C   UNL     1       1.486  -0.425  -0.014  0.00  0.00    -0.002 C 
ATOM     14  C   UNL     1       0.002  -0.004   0.002  0.00  0.00    +0.004 C 
ENDBRANCH   9  13
ENDBRANCH   1   9
BRANCH   6  15
ATOM     15  C   UNL     1      -0.372  -7.051   3.317  0.00  0.00    +0.181 C 
BRANCH  15  16
ATOM     16  C   UNL     1      -0.612  -8.412   2.716  0.00  0.00    +0.237 C 
ATOM     17  O   UNL     1      -0.179  -8.673   1.614  0.00  0.00    -0.274 OA
ATOM     18  N   UNL     1      -1.306  -9.340   3.404  0.00  0.00    -0.223 N 
ATOM     19  C   UNL     1      -1.604 -10.702   2.936  0.00  0.00    +0.136 C 
ATOM     20  C   UNL     1      -2.409 -11.323   4.094  0.00  0.00    +0.125 C 
ATOM     21  N   UNL     1      -2.481 -10.244   5.091  0.00  0.00    -0.297 N 
ATOM     22  C   UNL     1      -1.831  -9.170   4.625  0.00  0.00    +0.309 C 
ATOM     23  O   UNL     1      -1.729  -8.133   5.251  0.00  0.00    -0.252 OA
ATOM     24  H   UNL     1      -2.924 -10.303   5.952  0.00  0.00    +0.150 HD
ENDBRANCH  15  16
ENDBRANCH   6  15
TORSDOF 4
