REMARK  Name = ZINC04988280
REMARK  7 active torsions:
REMARK  status: ('A' for Active; 'I' for Inactive)
REMARK    1  A    between atoms: C_1  and  C_2
REMARK    2  A    between atoms: C_7  and  N_8
REMARK    3  A    between atoms: C_9  and  C_11
REMARK    4  A    between atoms: C_11  and  N_57
REMARK    5  A    between atoms: N_14  and  S_17
REMARK    6  A    between atoms: S_17  and  N_20
REMARK    7  A    between atoms: C_23  and  C_26
REMARK                            x       y       z     vdW  Elec       q    Type
REMARK                         _______ _______ _______ _____ _____    ______ ____
ROOT
ATOM      1  C   UNL     1       2.622   7.753  -1.544  0.00  0.00    -0.061 C 
ATOM      2  C   UNL     1       2.183   9.221  -1.514  0.00  0.00    +0.092 C 
ATOM      3  N   UNL     1       3.365  10.056  -1.250  0.00  0.00    -0.170 NA
ATOM      4  C   UNL     1       4.216   9.713  -0.100  0.00  0.00    +0.092 C 
ATOM      5  C   UNL     1       4.575   8.226  -0.187  0.00  0.00    -0.061 C 
ATOM      6  N   UNL     1       3.325   7.441  -0.281  0.00  0.00    +0.387 N 
ATOM      7  H   UNL     1       2.717   7.688   0.508  0.00  0.00    -0.081 HD
ENDROOT
BRANCH   3   8
ATOM      8  S   UNL     1       3.726  11.348  -2.220  0.00  0.00    +0.099 S 
ATOM      9  O   UNL     1       2.509  11.749  -2.833  0.00  0.00    -0.141 OA
ATOM     10  O   UNL     1       4.514  12.235  -1.439  0.00  0.00    -0.141 OA
BRANCH   8  11
ATOM     11  N   UNL     1       4.705  10.789  -3.434  0.00  0.00    -0.166 NA
ATOM     12  C   UNL     1       6.166  10.789  -3.277  0.00  0.00    +0.111 C 
ATOM     13  C   UNL     1       6.687   9.372  -3.558  0.00  0.00    +0.020 C 
ATOM     14  C   UNL     1       6.204   8.921  -4.938  0.00  0.00    -0.012 C 
ATOM     15  C   UNL     1       4.674   8.883  -4.957  0.00  0.00    +0.020 C 
ATOM     16  C   UNL     1       4.129  10.290  -4.690  0.00  0.00    +0.111 C 
ATOM     17  C   UNL     1       6.751   7.524  -5.239  0.00  0.00    +0.007 C 
ENDBRANCH   8  11
ENDBRANCH   3   8
BRANCH   6  18
ATOM     18  C   UNL     1       3.631   5.997  -0.218  0.00  0.00    +0.019 C 
BRANCH  18  20
ATOM     19  N   UNL     1       2.357   3.888  -0.001  0.00  0.00    -0.287 N 
ATOM     20  C   UNL     1       2.338   5.232  -0.095  0.00  0.00    +0.201 C 
ATOM     21  O   UNL     1       1.281   5.826  -0.082  0.00  0.00    -0.278 OA
ATOM     22  H   UNL     1       3.203   3.418   0.070  0.00  0.00    +0.155 HD
BRANCH  19  29
ATOM     23  C   UNL     1       2.322   1.324   1.234  0.00  0.00    +0.045 C 
ATOM     24  C   UNL     1       1.095   1.915   0.588  0.00  0.00    -0.029 A 
ATOM     25  C   UNL     1      -0.092   1.207   0.583  0.00  0.00    +0.006 A 
ATOM     26  C   UNL     1      -1.217   1.745  -0.014  0.00  0.00    +0.020 A 
ATOM     27  C   UNL     1      -1.161   2.998  -0.599  0.00  0.00    +0.043 A 
ATOM     28  C   UNL     1       0.024   3.710  -0.598  0.00  0.00    +0.043 A 
ATOM     29  C   UNL     1       1.156   3.170  -0.003  0.00  0.00    +0.038 A 
ATOM     30 CL   UNL     1      -2.577   3.672  -1.343  0.00  0.00    -0.083 Cl
ENDBRANCH  19  29
ENDBRANCH  18  20
ENDBRANCH   6  18
TORSDOF 5
