REMARK  Name = ZINC21089103
REMARK  6 active torsions:
REMARK  status: ('A' for Active; 'I' for Inactive)
REMARK    1  A    between atoms: C_1  and  C_2
REMARK    2  A    between atoms: C_5  and  N_15
REMARK    3  A    between atoms: N_6  and  C_8
REMARK    4  A    between atoms: N_22  and  C_24
REMARK    5  A    between atoms: C_24  and  C_25
REMARK    6  A    between atoms: N_27  and  C_28
REMARK                            x       y       z     vdW  Elec       q    Type
REMARK                         _______ _______ _______ _____ _____    ______ ____
ROOT
ATOM      1  C   UNL     1       3.157  -2.306  -0.040  0.00  0.00    +0.070 C 
ATOM      2  C   UNL     1       1.725  -1.838  -0.024  0.00  0.00    +0.086 A 
ATOM      3  C   UNL     1       1.421  -0.403  -0.014  0.00  0.00    +0.123 A 
ATOM      4  C   UNL     1       0.002  -0.004   0.002  0.00  0.00    +0.112 A 
ATOM      5  C   UNL     1      -0.017   1.378   0.010  0.00  0.00    +0.154 A 
ATOM      6  N   UNL     1       1.264   1.802  -0.000  0.00  0.00    -0.215 N 
ATOM      7  N   UNL     1       2.128   0.701  -0.015  0.00  0.00    -0.162 NA
ATOM      8  C   UNL     1      -1.003  -1.066   0.007  0.00  0.00    +0.281 A 
ATOM      9  O   UNL     1      -2.191  -0.796   0.020  0.00  0.00    -0.265 OA
ATOM     10  N   UNL     1      -0.590  -2.350  -0.004  0.00  0.00    -0.220 N 
ATOM     11  N   UNL     1       0.758  -2.703  -0.018  0.00  0.00    -0.171 NA
ENDROOT
BRANCH   6  12
ATOM     12  C   UNL     1       1.669   3.143   0.003  0.00  0.00    +0.068 A 
ATOM     13  C   UNL     1       0.923   4.096  -0.680  0.00  0.00    +0.029 A 
ATOM     14  C   UNL     1       1.321   5.419  -0.670  0.00  0.00    +0.022 A 
ATOM     15  C   UNL     1       2.468   5.793   0.008  0.00  0.00    +0.041 A 
ATOM     16  C   UNL     1       3.215   4.845   0.684  0.00  0.00    +0.022 A 
ATOM     17  C   UNL     1       2.819   3.522   0.683  0.00  0.00    +0.029 A 
ATOM     18 CL   UNL     1       2.969   7.455   0.012  0.00  0.00    -0.084 Cl
ENDBRANCH   6  12
BRANCH   5  19
ATOM     19  N   UNL     1      -1.149   2.184   0.020  0.00  0.00    -0.307 N 
ATOM     20  C   UNL     1      -2.256   2.015  -0.765  0.00  0.00    +0.092 A 
ATOM     21  C   UNL     1      -3.138   2.989  -0.465  0.00  0.00    +0.019 A 
ATOM     22  C   UNL     1      -2.555   3.796   0.534  0.00  0.00    +0.019 A 
ATOM     23  C   UNL     1      -1.340   3.282   0.812  0.00  0.00    +0.092 A 
ENDBRANCH   5  19
BRANCH  10  24
ATOM     24  C   UNL     1      -1.597  -3.414   0.002  0.00  0.00    +0.243 C 
BRANCH  24  25
ATOM     25  C   UNL     1      -1.956  -3.772  -1.417  0.00  0.00    +0.234 C 
ATOM     26  O   UNL     1      -1.424  -3.195  -2.342  0.00  0.00    -0.274 OA
ATOM     27  N   UNL     1      -2.870  -4.733  -1.659  0.00  0.00    -0.317 N 
ATOM     28  C   UNL     1      -3.219  -5.081  -3.038  0.00  0.00    +0.128 C 
ATOM     29  H   UNL     1      -3.353  -5.256  -0.821  0.00  0.00    +0.148 HD
ENDBRANCH  24  25
ENDBRANCH  10  24
TORSDOF 4
