REMARK  Name = ZINC17093441
REMARK  5 active torsions:
REMARK  status: ('A' for Active; 'I' for Inactive)
REMARK    1  A    between atoms: C_1  and  C_2
REMARK    2  A    between atoms: C_4  and  C_27
REMARK    3  A    between atoms: N_5  and  C_7
REMARK    4  A    between atoms: C_7  and  C_8
REMARK    5  A    between atoms: C_12  and  C_14
REMARK                            x       y       z     vdW  Elec       q    Type
REMARK                         _______ _______ _______ _____ _____    ______ ____
ROOT
ATOM      1  C   UNL     1       1.481  -3.682   1.774  0.00  0.00    -0.025 A 
ATOM      2  C   UNL     1       2.142  -4.559   0.933  0.00  0.00    +0.005 A 
ATOM      3  C   UNL     1       3.452  -4.918   1.192  0.00  0.00    +0.001 A 
ATOM      4  C   UNL     1       4.108  -4.402   2.292  0.00  0.00    +0.011 A 
ATOM      5  C   UNL     1       3.447  -3.519   3.142  0.00  0.00    +0.021 A 
ATOM      6  C   UNL     1       2.128  -3.156   2.874  0.00  0.00    +0.017 A 
ENDROOT
BRANCH   5   7
ATOM      7  C   UNL     1       4.146  -2.961   4.327  0.00  0.00    +0.182 A 
ATOM      8  N   UNL     1       5.408  -3.229   4.676  0.00  0.00    -0.206 NA
ATOM      9  C   UNL     1       5.712  -2.570   5.775  0.00  0.00    +0.170 A 
ATOM     10  C   UNL     1       6.909  -2.464   6.610  0.00  0.00    +0.083 A 
ATOM     11  C   UNL     1       8.199  -3.022   6.569  0.00  0.00    +0.148 A 
ATOM     12  N   UNL     1       8.876  -2.572   7.589  0.00  0.00    -0.180 NA
ATOM     13  N   UNL     1       8.070  -1.707   8.340  0.00  0.00    -0.260 N 
ATOM     14  H   UNL     1       8.335  -1.240   9.148  0.00  0.00    +0.191 HD
ATOM     15  C   UNL     1       6.848  -1.635   7.740  0.00  0.00    +0.161 A 
ATOM     16  N   UNL     1       5.713  -0.975   8.014  0.00  0.00    -0.216 NA
ATOM     17  C   UNL     1       4.653  -1.073   7.267  0.00  0.00    +0.227 A 
ATOM     18  N   UNL     1       4.609  -1.850   6.153  0.00  0.00    -0.201 N 
ATOM     19  N   UNL     1       3.622  -2.120   5.196  0.00  0.00    -0.143 NA
ENDBRANCH   5   7
BRANCH   1  20
ATOM     20  C   UNL     1       0.053  -3.295   1.486  0.00  0.00    +0.179 C 
BRANCH  20  25
ATOM     21  C   UNL     1      -0.018   1.503   0.010  0.00  0.00    +0.068 C 
ATOM     22  C   UNL     1       0.002  -0.004   0.002  0.00  0.00    +0.074 A 
ATOM     23  C   UNL     1       0.008  -0.818  -1.136  0.00  0.00    +0.061 A 
ATOM     24  C   UNL     1       0.027  -2.108  -0.725  0.00  0.00    +0.051 A 
ATOM     25  N   UNL     1       0.034  -2.109   0.625  0.00  0.00    -0.263 N 
ATOM     26  N   UNL     1       0.023  -0.777   1.058  0.00  0.00    -0.175 NA
ATOM     27  C   UNL     1       0.039  -3.324  -1.615  0.00  0.00    +0.066 C 
ATOM     28 BR   UNL     1      -0.009  -0.222  -2.930  0.00  0.00    -0.047 Br
ENDBRANCH  20  25
ENDBRANCH   1  20
TORSDOF 3
