REMARK  Name = ZINC42178281
REMARK  8 active torsions:
REMARK  status: ('A' for Active; 'I' for Inactive)
REMARK    1  A    between atoms: C_1  and  C_2
REMARK    2  A    between atoms: N_10  and  C_28
REMARK    3  A    between atoms: C_11  and  S_13
REMARK    4  A    between atoms: S_13  and  C_14
REMARK    5  A    between atoms: C_14  and  C_16
REMARK    6  A    between atoms: C_14  and  C_17
REMARK    7  A    between atoms: N_19  and  C_20
REMARK    8  A    between atoms: C_23  and  C_27
REMARK                            x       y       z     vdW  Elec       q    Type
REMARK                         _______ _______ _______ _____ _____    ______ ____
ROOT
ATOM      1  S   UNL     1       0.070  -6.571   0.993  0.00  0.00    -0.075 S 
ENDROOT
BRANCH   1  12
ATOM      2  C   UNL     1      -0.101   1.499   0.042  0.00  0.00    +0.044 C 
ATOM      3  C   UNL     1      -0.069  -0.008   0.029  0.00  0.00    -0.050 A 
ATOM      4  C   UNL     1      -0.057  -0.684  -1.184  0.00  0.00    +0.005 A 
ATOM      5  C   UNL     1      -0.029  -2.050  -1.227  0.00  0.00    +0.029 A 
ATOM      6  C   UNL     1      -0.012  -2.780  -0.035  0.00  0.00    +0.079 A 
ATOM      7  C   UNL     1      -0.024  -2.087   1.198  0.00  0.00    +0.065 A 
ATOM      8  C   UNL     1      -0.047  -0.694   1.212  0.00  0.00    +0.018 A 
ATOM      9  C   UNL     1      -0.004  -2.877   2.437  0.00  0.00    +0.262 A 
ATOM     10  O   UNL     1      -0.013  -2.338   3.529  0.00  0.00    -0.267 OA
ATOM     11  N   UNL     1       0.024  -4.224   2.319  0.00  0.00    -0.290 N 
ATOM     12  C   UNL     1       0.033  -4.811   1.086  0.00  0.00    +0.173 A 
ATOM     13  N   UNL     1       0.016  -4.127  -0.032  0.00  0.00    -0.223 NA
ATOM     14  C   UNL     1       0.044  -5.060   3.522  0.00  0.00    +0.154 C 
ENDBRANCH   1  12
BRANCH   1  15
ATOM     15  C   UNL     1       0.073  -6.916  -0.788  0.00  0.00    +0.137 C 
ATOM     16  C   UNL     1       1.368  -6.387  -1.408  0.00  0.00    +0.029 C 
BRANCH  15  17
ATOM     17  C   UNL     1      -0.019  -8.404  -1.011  0.00  0.00    +0.230 C 
ATOM     18  O   UNL     1       0.279  -9.171  -0.119  0.00  0.00    -0.274 OA
ATOM     19  N   UNL     1      -0.433  -8.882  -2.201  0.00  0.00    -0.282 N 
ATOM     20  H   UNL     1      -0.733  -8.271  -2.892  0.00  0.00    +0.155 HD
BRANCH  19  21
ATOM     21  C   UNL     1      -0.431 -10.262  -2.440  0.00  0.00    +0.069 A 
ATOM     22  C   UNL     1      -0.716 -11.147  -1.409  0.00  0.00    +0.026 A 
ATOM     23  C   UNL     1      -0.713 -12.508  -1.648  0.00  0.00    +0.005 A 
ATOM     24  C   UNL     1      -0.426 -12.990  -2.912  0.00  0.00    -0.048 A 
ATOM     25  C   UNL     1      -0.141 -12.112  -3.942  0.00  0.00    +0.043 A 
ATOM     26  C   UNL     1      -0.148 -10.748  -3.712  0.00  0.00    +0.145 A 
ATOM     27  F   UNL     1       0.125  -9.891  -4.719  0.00  0.00    -0.204 F 
ATOM     28  C   UNL     1      -0.424 -14.475  -3.168  0.00  0.00    +0.044 C 
ENDBRANCH  19  21
ENDBRANCH  15  17
ENDBRANCH   1  15
TORSDOF 4
