REMARK  Name = ZINC16195400
REMARK  12 active torsions:
REMARK  status: ('A' for Active; 'I' for Inactive)
REMARK    1  A    between atoms: C_1  and  O_2
REMARK    2  A    between atoms: O_2  and  C_3
REMARK    3  A    between atoms: C_5  and  C_14
REMARK    4  A    between atoms: C_8  and  O_9
REMARK    5  A    between atoms: O_9  and  C_10
REMARK    6  A    between atoms: C_10  and  C_11
REMARK    7  A    between atoms: C_14  and  N_48
REMARK    8  A    between atoms: C_15  and  C_16
REMARK    9  A    between atoms: C_15  and  N_48
REMARK   10  A    between atoms: C_16  and  N_17
REMARK   11  A    between atoms: N_17  and  C_18
REMARK   12  A    between atoms: C_21  and  N_24
REMARK                            x       y       z     vdW  Elec       q    Type
REMARK                         _______ _______ _______ _____ _____    ______ ____
ROOT
ATOM      1  N   UNL     1       0.702   0.598   7.232  0.00  0.00    +0.383 N 
ATOM      2  H   UNL     1      -0.258   0.241   7.152  0.00  0.00    -0.085 HD
ATOM      3  H   UNL     1       0.694   1.622   7.153  0.00  0.00    -0.085 HD
ENDROOT
BRANCH   1   4
ATOM      4  C   UNL     1       1.524   0.033   6.146  0.00  0.00    -0.047 C 
BRANCH   4   7
ATOM      5  C   UNL     1       0.807   1.987   2.993  0.00  0.00    +0.163 A 
ATOM      6  C   UNL     1       1.347   1.611   4.213  0.00  0.00    +0.051 A 
ATOM      7  C   UNL     1       0.936   0.439   4.819  0.00  0.00    -0.060 A 
ATOM      8  C   UNL     1      -0.013  -0.362   4.211  0.00  0.00    +0.021 A 
ATOM      9  C   UNL     1      -0.559   0.009   2.996  0.00  0.00    +0.063 A 
ATOM     10  C   UNL     1      -0.148   1.182   2.381  0.00  0.00    +0.176 A 
ATOM     11 BR   UNL     1      -1.862  -1.085   2.171  0.00  0.00    -0.046 Br
BRANCH   5  13
ATOM     12  C   UNL     1       2.193   3.917   3.082  0.00  0.00    +0.277 C 
ATOM     13  O   UNL     1       1.210   3.140   2.396  0.00  0.00    -0.491 OA
ENDBRANCH   5  13
BRANCH  10  14
ATOM     14  O   UNL     1      -0.682   1.547   1.184  0.00  0.00    -0.483 OA
BRANCH  14  15
ATOM     15  C   UNL     1      -0.013   1.086   0.008  0.00  0.00    +0.256 C 
BRANCH  15  16
ATOM     16  C   UNL     1      -0.742   1.585  -1.213  0.00  0.00    +0.006 C 
ATOM     17  C   UNL     1      -0.069   2.095  -2.215  0.00  0.00    +0.007 C 
ENDBRANCH  15  16
ENDBRANCH  14  15
ENDBRANCH  10  14
ENDBRANCH   4   7
ENDBRANCH   1   4
BRANCH   1  18
ATOM     18  C   UNL     1       1.255   0.216   8.545  0.00  0.00    -0.063 C 
BRANCH  18  19
ATOM     19  C   UNL     1       0.383   0.815   9.650  0.00  0.00    +0.082 C 
BRANCH  19  20
ATOM     20  N   UNL     1       0.926   0.440  10.958  0.00  0.00    -0.346 N 
ATOM     21  H   UNL     1       1.724  -0.109  11.013  0.00  0.00    +0.146 HD
BRANCH  20  22
ATOM     22  C   UNL     1       0.295   0.874  12.127  0.00  0.00    +0.027 A 
ATOM     23  C   UNL     1      -0.844   1.665  12.050  0.00  0.00    +0.025 A 
ATOM     24  C   UNL     1      -1.468   2.087  13.207  0.00  0.00    +0.034 A 
ATOM     25  C   UNL     1      -0.955   1.732  14.441  0.00  0.00    +0.126 A 
ATOM     26  C   UNL     1       0.182   0.949  14.521  0.00  0.00    +0.034 A 
ATOM     27  C   UNL     1       0.809   0.519  13.367  0.00  0.00    +0.025 A 
BRANCH  25  28
ATOM     28  N   UNL     1      -1.623   2.191  15.679  0.00  0.00    +0.056 N 
ATOM     29  O   UNL     1      -1.172   1.878  16.767  0.00  0.00    -0.126 OA
ATOM     30  O   UNL     1      -2.625   2.880  15.611  0.00  0.00    -0.126 OA
ENDBRANCH  25  28
ENDBRANCH  20  22
ENDBRANCH  19  20
ENDBRANCH  18  19
ENDBRANCH   1  18
TORSDOF 11
