REMARK  Name = ZINC39490835
REMARK  8 active torsions:
REMARK  status: ('A' for Active; 'I' for Inactive)
REMARK    1  A    between atoms: C_1  and  C_2
REMARK    2  A    between atoms: C_2  and  S_23
REMARK    3  A    between atoms: N_4  and  O_22
REMARK    4  A    between atoms: N_7  and  C_8
REMARK    5  A    between atoms: C_8  and  C_9
REMARK    6  A    between atoms: C_9  and  C_16
REMARK    7  A    between atoms: S_23  and  O_26
REMARK    8  A    between atoms: O_26  and  C_27
REMARK                            x       y       z     vdW  Elec       q    Type
REMARK                         _______ _______ _______ _____ _____    ______ ____
ROOT
ATOM      1  C   UNL     1      -0.272   2.669   2.261  0.00  0.00    +0.063 C 
ATOM      2  C   UNL     1      -1.492   1.857   2.704  0.00  0.00    +0.209 C 
ATOM      3  C   UNL     1      -2.768   2.380   2.016  0.00  0.00    +0.194 C 
ATOM      4  N   UNL     1      -3.244   1.229   1.235  0.00  0.00    -0.164 N 
ATOM      5  C   UNL     1      -2.408   0.198   1.416  0.00  0.00    +0.329 C 
ATOM      6  O   UNL     1      -2.565  -0.884   0.884  0.00  0.00    -0.250 OA
ATOM      7  N   UNL     1      -1.384   0.467   2.236  0.00  0.00    -0.255 N 
ENDROOT
BRANCH   2   8
ATOM      8  S   UNL     1      -1.669   1.910   4.508  0.00  0.00    +0.145 S 
ATOM      9  O   UNL     1      -2.946   1.420   4.889  0.00  0.00    -0.135 OA
ATOM     10  O   UNL     1      -0.489   1.419   5.130  0.00  0.00    -0.135 OA
BRANCH   8  11
ATOM     11  O   UNL     1      -1.702   3.392   4.855  0.00  0.00    -0.345 OA
BRANCH  11  12
ATOM     12  C   UNL     1      -2.896   3.992   4.602  0.00  0.00    +0.156 A 
ATOM     13  C   UNL     1      -3.093   4.670   3.408  0.00  0.00    +0.048 A 
ATOM     14  C   UNL     1      -4.307   5.278   3.153  0.00  0.00    +0.004 A 
ATOM     15  C   UNL     1      -5.324   5.212   4.087  0.00  0.00    +0.000 A 
ATOM     16  C   UNL     1      -5.130   4.537   5.278  0.00  0.00    +0.004 A 
ATOM     17  C   UNL     1      -3.920   3.922   5.535  0.00  0.00    +0.048 A 
ENDBRANCH  11  12
ENDBRANCH   8  11
ENDBRANCH   2   8
BRANCH   4  18
ATOM     18  O   UNL     1      -4.402   1.213   0.420  0.00  0.00    -0.291 OA
ATOM     19  H   UNL     1      -4.561   0.367  -0.021  0.00  0.00    +0.242 HD
ENDBRANCH   4  18
BRANCH   7  20
ATOM     20  C   UNL     1      -0.325  -0.474   2.609  0.00  0.00    +0.119 C 
BRANCH  20  21
ATOM     21  C   UNL     1      -0.913  -1.586   3.479  0.00  0.00    -0.008 C 
ATOM     22  C   UNL     1       0.160  -2.643   3.755  0.00  0.00    +0.025 C 
ATOM     23  C   UNL     1       0.602  -3.272   2.431  0.00  0.00    +0.098 C 
ATOM     24  N   UNL     1      -0.556  -3.886   1.770  0.00  0.00    -0.242 NA
ATOM     25  C   UNL     1      -1.581  -2.883   1.452  0.00  0.00    +0.098 C 
ATOM     26  C   UNL     1      -2.087  -2.242   2.746  0.00  0.00    +0.025 C 
ATOM     27 BR   UNL     1      -0.040  -4.809   0.252  0.00  0.00    +0.013 Br
BRANCH  21  28
ATOM     28  C   UNL     1      -1.403  -0.995   4.802  0.00  0.00    -0.003 C 
ATOM     29  C   UNL     1      -0.219  -0.834   5.758  0.00  0.00    +0.004 C 
ATOM     30  C   UNL     1      -0.709  -0.243   7.082  0.00  0.00    +0.000 C 
ATOM     31  C   UNL     1      -1.744  -1.180   7.706  0.00  0.00    +0.000 C 
ATOM     32  C   UNL     1      -2.929  -1.341   6.751  0.00  0.00    +0.000 C 
ATOM     33  C   UNL     1      -2.439  -1.932   5.427  0.00  0.00    +0.004 C 
ENDBRANCH  21  28
ENDBRANCH  20  21
ENDBRANCH   7  20
TORSDOF 7
