REMARK  Name = ZINC47288569
REMARK  5 active torsions:
REMARK  status: ('A' for Active; 'I' for Inactive)
REMARK    1  A    between atoms: C_1  and  C_2
REMARK    2  A    between atoms: C_2  and  C_3
REMARK    3  A    between atoms: C_3  and  N_4
REMARK    4  A    between atoms: C_6  and  N_11
REMARK    5  A    between atoms: C_12  and  C_14
REMARK                            x       y       z     vdW  Elec       q    Type
REMARK                         _______ _______ _______ _____ _____    ______ ____
ROOT
ATOM      1  N   UNL     1       2.888  -4.692  -0.109  0.00  0.00    -0.279 N 
ATOM      2  C   UNL     1       2.663  -5.517   0.933  0.00  0.00    +0.270 C 
ATOM      3  O   UNL     1       1.524  -5.756   1.285  0.00  0.00    -0.268 OA
ATOM      4  H   UNL     1       3.791  -4.557  -0.434  0.00  0.00    +0.155 HD
ENDROOT
BRANCH   2   5
ATOM      5  C   UNL     1       3.801  -6.129   1.649  0.00  0.00    +0.165 A 
ATOM      6  C   UNL     1       3.571  -7.083   2.655  0.00  0.00    +0.147 A 
ATOM      7  N   UNL     1       4.601  -7.628   3.291  0.00  0.00    -0.237 NA
ATOM      8  C   UNL     1       5.834  -7.272   2.977  0.00  0.00    +0.132 A 
ATOM      9  C   UNL     1       6.060  -6.330   1.984  0.00  0.00    +0.131 A 
ATOM     10  N   UNL     1       5.048  -5.785   1.340  0.00  0.00    -0.246 NA
ATOM     11  N   UNL     1       2.279  -7.452   2.981  0.00  0.00    -0.341 N 
ATOM     12  H   UNL     1       1.526  -6.995   2.572  0.00  0.00    +0.144 HD
ATOM     13  H   UNL     1       2.125  -8.167   3.617  0.00  0.00    +0.144 HD
ENDBRANCH   2   5
BRANCH   1  16
ATOM     14  N   UNL     1       0.761  -2.020  -1.376  0.00  0.00    -0.313 N 
ATOM     15  C   UNL     1       1.795  -2.672  -0.782  0.00  0.00    +0.112 A 
ATOM     16  C   UNL     1       1.814  -4.030  -0.723  0.00  0.00    +0.050 A 
ATOM     17  C   UNL     1       0.755  -4.769  -1.280  0.00  0.00    +0.030 A 
ATOM     18  C   UNL     1      -0.279  -4.107  -1.874  0.00  0.00    +0.072 A 
ATOM     19  C   UNL     1      -0.268  -2.703  -1.912  0.00  0.00    +0.251 A 
ATOM     20  O   UNL     1      -1.191  -2.101  -2.437  0.00  0.00    -0.268 OA
BRANCH  14  21
ATOM     21  C   UNL     1       0.762  -0.556  -1.427  0.00  0.00    +0.124 C 
BRANCH  21  23
ATOM     22  C   UNL     1       0.074   1.528  -0.232  0.00  0.00    +0.005 C 
ATOM     23  C   UNL     1       0.073  -0.001  -0.179  0.00  0.00    +0.018 C 
ENDBRANCH  21  23
ENDBRANCH  14  21
ENDBRANCH   1  16
TORSDOF 4
