REMARK  Name = ZINC20885138
REMARK  4 active torsions:
REMARK  status: ('A' for Active; 'I' for Inactive)
REMARK    1  A    between atoms: C_3  and  C_6
REMARK    2  A    between atoms: N_7  and  N_8
REMARK    3  A    between atoms: C_9  and  C_11
REMARK    4  A    between atoms: C_13  and  N_19
REMARK                            x       y       z     vdW  Elec       q    Type
REMARK                         _______ _______ _______ _____ _____    ______ ____
ROOT
ATOM      1  C   UNL     1      -2.458   0.867   0.018  0.00  0.00    +0.149 A 
ATOM      2  C   UNL     1      -3.670   1.553   0.034  0.00  0.00    +0.094 A 
ATOM      3  C   UNL     1      -4.859   0.824   0.030  0.00  0.00    +0.067 A 
ATOM      4  C   UNL     1      -4.783  -0.568   0.022  0.00  0.00    +0.100 A 
ATOM      5  C   UNL     1      -3.539  -1.178   0.013  0.00  0.00    +0.150 A 
ATOM      6  N   UNL     1      -2.433  -0.463   0.011  0.00  0.00    -0.228 NA
ATOM      7 CL   UNL     1      -3.436  -2.911   0.003  0.00  0.00    -0.060 Cl
ATOM      8 CL   UNL     1      -6.230  -1.526   0.024  0.00  0.00    -0.078 Cl
ATOM      9 CL   UNL     1      -3.699   3.289   0.051  0.00  0.00    -0.079 Cl
ENDROOT
BRANCH   1  11
ATOM     10  N   UNL     1      -0.011   0.966   0.007  0.00  0.00    -0.202 N 
ATOM     11  C   UNL     1      -1.187   1.624   0.017  0.00  0.00    +0.283 C 
ATOM     12  O   UNL     1      -1.204   2.840   0.023  0.00  0.00    -0.267 OA
ATOM     13  H   UNL     1       0.004  -0.134   0.006  0.00  0.00    +0.178 HD
BRANCH  10  15
ATOM     14  C   UNL     1       2.328   1.048  -0.015  0.00  0.00    +0.145 C 
ATOM     15  N   UNL     1       1.193   1.683  -0.000  0.00  0.00    -0.187 NA
BRANCH  14  18
ATOM     16  C   UNL     1       5.917   2.233  -0.042  0.00  0.00    +0.008 A 
ATOM     17  C   UNL     1       4.887   1.321  -0.037  0.00  0.00    +0.017 A 
ATOM     18  C   UNL     1       3.588   1.798  -0.022  0.00  0.00    +0.032 A 
ATOM     19  S   UNL     1       3.846   3.565  -0.023  0.00  0.00    -0.096 S 
ATOM     20  C   UNL     1       5.631   3.561  -0.033  0.00  0.00    +0.046 A 
ENDBRANCH  14  18
ENDBRANCH  10  15
ENDBRANCH   1  11
BRANCH   3  21
ATOM     21  N   UNL     1      -6.093   1.471   0.040  0.00  0.00    -0.356 N 
ATOM     22  H   UNL     1      -7.023   0.883   0.037  0.00  0.00    +0.142 HD
ATOM     23  H   UNL     1      -6.138   2.570   0.051  0.00  0.00    +0.142 HD
ENDBRANCH   3  21
TORSDOF 4
