REMARK  Name = ZINC44405230
REMARK  6 active torsions:
REMARK  status: ('A' for Active; 'I' for Inactive)
REMARK    1  A    between atoms: C_1  and  C_2
REMARK    2  A    between atoms: C_2  and  C_3
REMARK    3  A    between atoms: C_3  and  C_5
REMARK    4  A    between atoms: C_3  and  N_17
REMARK    5  A    between atoms: C_5  and  C_6
REMARK    6  A    between atoms: C_12  and  O_16
REMARK                            x       y       z     vdW  Elec       q    Type
REMARK                         _______ _______ _______ _____ _____    ______ ____
ROOT
ATOM      1  C   UNL     1       1.770  -2.292  -2.191  0.00  0.00    -0.032 C 
ATOM      2  C   UNL     1       3.031  -2.461  -1.882  0.00  0.00    +0.195 C 
ATOM      3  O   UNL     1       3.969  -2.777  -2.800  0.00  0.00    -0.463 OA
ATOM      4  C   UNL     1       3.723  -2.556  -4.115  0.00  0.00    +0.131 A 
ATOM      5  C   UNL     1       4.781  -2.505  -5.014  0.00  0.00    +0.050 A 
ATOM      6  C   UNL     1       4.540  -2.280  -6.354  0.00  0.00    +0.049 A 
ATOM      7  C   UNL     1       3.240  -2.106  -6.806  0.00  0.00    +0.117 A 
ATOM      8  C   UNL     1       2.183  -2.158  -5.910  0.00  0.00    +0.053 A 
ATOM      9  C   UNL     1       2.424  -2.383  -4.568  0.00  0.00    +0.002 A 
ATOM     10  C   UNL     1       1.270  -2.446  -3.599  0.00  0.00    +0.072 C 
ENDROOT
BRANCH   7  11
ATOM     11  O   UNL     1       3.003  -1.884  -8.126  0.00  0.00    -0.507 OA
ATOM     12  H   UNL     1       2.864  -2.690  -8.642  0.00  0.00    +0.292 HD
ENDBRANCH   7  11
BRANCH   1  13
ATOM     13  C   UNL     1       0.791  -1.940  -1.101  0.00  0.00    +0.018 C 
BRANCH  13  14
ATOM     14  C   UNL     1       0.124  -3.216  -0.583  0.00  0.00    -0.071 C 
BRANCH  14  15
ATOM     15  N   UNL     1       1.131  -4.064   0.069  0.00  0.00    +0.380 N 
ATOM     16  H   UNL     1       1.547  -3.562   0.838  0.00  0.00    -0.090 HD
ATOM     17  H   UNL     1       0.690  -4.904   0.414  0.00  0.00    -0.090 HD
ATOM     18  H   UNL     1       1.846  -4.310  -0.599  0.00  0.00    -0.090 HD
ENDBRANCH  14  15
BRANCH  14  20
ATOM     19  C   UNL     1      -1.714  -4.112   0.853  0.00  0.00    +0.002 C 
ATOM     20  C   UNL     1      -0.964  -2.848   0.428  0.00  0.00    -0.019 C 
ENDBRANCH  14  20
ENDBRANCH  13  14
ENDBRANCH   1  13
TORSDOF 5
