REMARK  Name = ZINC61980072
REMARK  4 active torsions:
REMARK  status: ('A' for Active; 'I' for Inactive)
REMARK    1  A    between atoms: C_1  and  N_2
REMARK    2  A    between atoms: C_8  and  N_13
REMARK    3  A    between atoms: N_13  and  C_14
REMARK    4  A    between atoms: N_18  and  C_20
REMARK                            x       y       z     vdW  Elec       q    Type
REMARK                         _______ _______ _______ _____ _____    ______ ____
ROOT
ATOM      1  C   UNL     1      -0.018   1.461   0.010  0.00  0.00    +0.142 C 
ATOM      2  N   UNL     1       0.002  -0.004   0.002  0.00  0.00    -0.237 N 
ATOM      3  C   UNL     1       0.008  -0.759  -1.111  0.00  0.00    +0.254 C 
ATOM      4  O   UNL     1      -0.003  -0.339  -2.252  0.00  0.00    -0.270 OA
ATOM      5  C   UNL     1       0.029  -2.180  -0.718  0.00  0.00    +0.050 A 
ATOM      6  C   UNL     1       0.042  -3.378  -1.420  0.00  0.00    +0.015 A 
ATOM      7  C   UNL     1       0.060  -4.577  -0.733  0.00  0.00    +0.024 A 
ATOM      8  C   UNL     1       0.066  -4.592   0.657  0.00  0.00    +0.028 A 
ATOM      9  C   UNL     1       0.053  -3.394   1.373  0.00  0.00    +0.036 A 
ATOM     10  C   UNL     1       0.035  -2.190   0.693  0.00  0.00    +0.051 A 
ATOM     11  C   UNL     1       0.023  -0.771   1.107  0.00  0.00    +0.254 C 
ATOM     12  O   UNL     1       0.029  -0.366   2.252  0.00  0.00    -0.270 OA
ENDROOT
BRANCH   8  13
ATOM     13  N   UNL     1       0.084  -5.804   1.337  0.00  0.00    -0.343 N 
ATOM     14  H   UNL     1       0.088  -5.817   2.307  0.00  0.00    +0.146 HD
BRANCH  13  15
ATOM     15  C   UNL     1       0.098  -7.064   0.588  0.00  0.00    +0.052 C 
ATOM     16  C   UNL     1      -1.346  -7.515   0.272  0.00  0.00    +0.002 C 
ATOM     17  C   UNL     1      -1.281  -9.050   0.470  0.00  0.00    -0.077 C 
ATOM     18  N   UNL     1      -0.371  -9.204   1.634  0.00  0.00    +0.383 N 
ATOM     19  C   UNL     1       0.695  -8.192   1.450  0.00  0.00    -0.056 C 
ATOM     20  H   UNL     1      -0.872  -9.032   2.492  0.00  0.00    -0.081 HD
BRANCH  18  21
ATOM     21  C   UNL     1       0.211 -10.553   1.647  0.00  0.00    -0.069 C 
ATOM     22  C   UNL     1      -0.201 -11.489   2.785  0.00  0.00    -0.017 C 
ATOM     23  C   UNL     1       1.204 -10.883   2.763  0.00  0.00    -0.017 C 
ENDBRANCH  18  21
ENDBRANCH  13  15
ENDBRANCH   8  13
TORSDOF 3
