REMARK  Name = ZINC66660275
REMARK  9 active torsions:
REMARK  status: ('A' for Active; 'I' for Inactive)
REMARK    1  A    between atoms: C_1  and  C_2
REMARK    2  A    between atoms: C_4  and  C_30
REMARK    3  A    between atoms: C_9  and  N_14
REMARK    4  A    between atoms: C_11  and  C_13
REMARK    5  A    between atoms: C_15  and  C_17
REMARK    6  A    between atoms: C_17  and  C_19
REMARK    7  A    between atoms: C_17  and  N_20
REMARK    8  A    between atoms: C_21  and  C_23
REMARK    9  A    between atoms: C_23  and  C_24
REMARK                            x       y       z     vdW  Elec       q    Type
REMARK                         _______ _______ _______ _____ _____    ______ ____
ROOT
ATOM      1  N   UNL     1       0.019  -0.747   3.874  0.00  0.00    -0.269 N 
ATOM      2  C   UNL     1       0.014  -0.322   5.153  0.00  0.00    +0.238 C 
ATOM      3  O   UNL     1       0.029  -1.126   6.061  0.00  0.00    -0.273 OA
ATOM      4  H   UNL     1       0.007  -0.104   3.149  0.00  0.00    +0.156 HD
ENDROOT
BRANCH   1  13
ATOM      5  C   UNL     1      -0.018   1.503   0.010  0.00  0.00    +0.066 C 
ATOM      6  C   UNL     1       0.002  -0.004   0.002  0.00  0.00    +0.044 A 
ATOM      7  C   UNL     1       0.006  -0.699  -1.197  0.00  0.00    +0.046 A 
ATOM      8  C   UNL     1       0.025  -2.085  -1.159  0.00  0.00    +0.044 A 
ATOM      9  N   UNL     1       0.039  -2.697   0.013  0.00  0.00    -0.216 NA
ATOM     10  C   UNL     1       0.035  -2.003   1.140  0.00  0.00    +0.253 A 
ATOM     11  N   UNL     1       0.022  -0.680   1.139  0.00  0.00    -0.216 NA
ATOM     12  N   UNL     1       0.049  -2.682   2.357  0.00  0.00    -0.183 N 
ATOM     13  C   UNL     1       0.042  -2.113   3.595  0.00  0.00    +0.132 A 
ATOM     14  C   UNL     1       0.061  -3.121   4.508  0.00  0.00    +0.068 A 
ATOM     15  C   UNL     1       0.081  -4.332   3.809  0.00  0.00    +0.062 A 
ATOM     16  N   UNL     1       0.069  -4.073   2.527  0.00  0.00    -0.167 NA
ATOM     17  C   UNL     1       0.107  -5.706   4.428  0.00  0.00    +0.067 C 
ATOM     18  C   UNL     1       0.029  -2.883  -2.437  0.00  0.00    +0.066 C 
ENDBRANCH   1  13
BRANCH   2  19
ATOM     19  C   UNL     1      -0.010   1.155   5.456  0.00  0.00    +0.156 C 
ATOM     20  C   UNL     1       1.227   1.820   4.849  0.00  0.00    +0.038 C 
BRANCH  19  21
ATOM     21  N   UNL     1      -0.011   1.356   6.907  0.00  0.00    -0.304 N 
ATOM     22  C   UNL     1      -0.522   2.488   7.430  0.00  0.00    +0.214 C 
ATOM     23  O   UNL     1      -0.982   3.340   6.699  0.00  0.00    -0.276 OA
ATOM     24  H   UNL     1       0.357   0.674   7.491  0.00  0.00    +0.149 HD
BRANCH  22  25
ATOM     25  C   UNL     1      -0.523   2.695   8.922  0.00  0.00    +0.099 C 
BRANCH  25  26
ATOM     26  C   UNL     1      -1.155   4.049   9.249  0.00  0.00    -0.002 C 
ATOM     27  C   UNL     1      -0.279   5.170   8.686  0.00  0.00    +0.004 C 
ATOM     28  C   UNL     1      -0.911   6.525   9.012  0.00  0.00    +0.000 C 
ATOM     29  C   UNL     1      -1.026   6.681  10.530  0.00  0.00    +0.000 C 
ATOM     30  C   UNL     1      -1.902   5.561  11.094  0.00  0.00    +0.000 C 
ATOM     31  C   UNL     1      -1.270   4.206  10.767  0.00  0.00    +0.004 C 
ENDBRANCH  25  26
ENDBRANCH  22  25
ENDBRANCH  19  21
ENDBRANCH   2  19
TORSDOF 5
