REMARK  Name = ZINC13128048
REMARK  11 active torsions:
REMARK  status: ('A' for Active; 'I' for Inactive)
REMARK    1  A    between atoms: C_1  and  C_2
REMARK    2  A    between atoms: C_2  and  C_3
REMARK    3  A    between atoms: C_3  and  C_5
REMARK    4  A    between atoms: C_3  and  N_6
REMARK    5  A    between atoms: N_6  and  C_7
REMARK    6  A    between atoms: C_15  and  C_17
REMARK    7  A    between atoms: C_17  and  O_18
REMARK    8  A    between atoms: O_18  and  C_19
REMARK    9  A    between atoms: C_26  and  C_37
REMARK   10  A    between atoms: C_27  and  O_30
REMARK   11  A    between atoms: O_30  and  C_31
REMARK                            x       y       z     vdW  Elec       q    Type
REMARK                         _______ _______ _______ _____ _____    ______ ____
ROOT
ATOM      1  C   UNL     1       1.176   2.087   0.002  0.00  0.00    +0.125 A 
ATOM      2  C   UNL     1       2.396   1.413  -0.014  0.00  0.00    +0.046 A 
ATOM      3  C   UNL     1       2.431   0.048  -0.021  0.00  0.00    +0.019 A 
ATOM      4  C   UNL     1       1.238  -0.675  -0.013  0.00  0.00    +0.068 A 
ATOM      5  C   UNL     1       0.002  -0.004   0.002  0.00  0.00    +0.142 A 
ATOM      6  C   UNL     1      -0.017   1.384   0.010  0.00  0.00    +0.092 A 
ATOM      7  O   UNL     1      -1.145  -0.713   0.009  0.00  0.00    -0.456 OA
ATOM      8  C   UNL     1      -1.161  -2.052   0.002  0.00  0.00    +0.148 A 
ATOM      9  C   UNL     1      -0.036  -2.795  -0.013  0.00  0.00    +0.213 A 
ATOM     10  C   UNL     1       1.233  -2.148  -0.021  0.00  0.00    +0.235 A 
ATOM     11  O   UNL     1       2.271  -2.787  -0.035  0.00  0.00    -0.283 OA
ATOM     12  C   UNL     1      -2.492  -2.759   0.011  0.00  0.00    +0.090 C 
ENDROOT
BRANCH   1  13
ATOM     13  O   UNL     1       1.157   3.444   0.009  0.00  0.00    -0.483 OA
BRANCH  13  14
ATOM     14  C   UNL     1       2.421   4.111   0.001  0.00  0.00    +0.324 C 
BRANCH  14  16
ATOM     15  N   UNL     1       3.259   6.438   0.004  0.00  0.00    -0.291 N 
ATOM     16  C   UNL     1       2.202   5.602   0.010  0.00  0.00    +0.254 C 
ATOM     17  O   UNL     1       1.075   6.050   0.023  0.00  0.00    -0.272 OA
BRANCH  15  18
ATOM     18  C   UNL     1       3.047   7.888   0.014  0.00  0.00    +0.099 C 
ATOM     19  C   UNL     1       2.254   8.295  -1.239  0.00  0.00    +0.046 C 
ATOM     20  C   UNL     1       1.774   9.763  -1.052  0.00  0.00    +0.168 C 
ATOM     21  S   UNL     1       1.281   9.733   0.723  0.00  0.00    -0.029 S 
ATOM     22  O   UNL     1      -0.102   9.419   0.813  0.00  0.00    -0.174 OA
ATOM     23  O   UNL     1       1.776  10.903   1.360  0.00  0.00    -0.174 OA
ATOM     24  C   UNL     1       2.262   8.284   1.288  0.00  0.00    +0.188 C 
ENDBRANCH  15  18
BRANCH  15  25
ATOM     25  C   UNL     1       4.621   5.897  -0.011  0.00  0.00    +0.073 C 
ATOM     26  C   UNL     1       5.373   6.373   1.234  0.00  0.00    +0.028 C 
BRANCH  25  28
ATOM     27  C   UNL     1       4.670   5.807  -2.507  0.00  0.00    +0.005 C 
ATOM     28  C   UNL     1       5.349   6.386  -1.265  0.00  0.00    +0.019 C 
ENDBRANCH  25  28
ENDBRANCH  15  25
ENDBRANCH  14  16
ENDBRANCH  13  14
ENDBRANCH   1  13
BRANCH   9  29
ATOM     29  O   UNL     1      -0.112  -4.154  -0.020  0.00  0.00    -0.449 OA
BRANCH  29  30
ATOM     30  C   UNL     1      -0.136  -4.798   1.177  0.00  0.00    +0.129 A 
ATOM     31  C   UNL     1      -0.078  -4.072   2.358  0.00  0.00    +0.046 A 
ATOM     32  C   UNL     1      -0.108  -4.729   3.573  0.00  0.00    +0.004 A 
ATOM     33  C   UNL     1      -0.185  -6.109   3.612  0.00  0.00    +0.000 A 
ATOM     34  C   UNL     1      -0.237  -6.835   2.437  0.00  0.00    +0.004 A 
ATOM     35  C   UNL     1      -0.213  -6.183   1.219  0.00  0.00    +0.046 A 
ENDBRANCH  29  30
ENDBRANCH   9  29
TORSDOF 8
