REMARK  Name = ZINC10985294
REMARK  7 active torsions:
REMARK  status: ('A' for Active; 'I' for Inactive)
REMARK    1  A    between atoms: C_1  and  C_2
REMARK    2  A    between atoms: C_9  and  C_14
REMARK    3  A    between atoms: C_14  and  O_16
REMARK    4  A    between atoms: O_16  and  C_17
REMARK    5  A    between atoms: C_17  and  C_18
REMARK    6  A    between atoms: N_20  and  C_21
REMARK    7  A    between atoms: C_25  and  N_27
REMARK                            x       y       z     vdW  Elec       q    Type
REMARK                         _______ _______ _______ _____ _____    ______ ____
ROOT
ATOM      1  O   UNL     1       4.194   7.037  -0.946  0.00  0.00    -0.452 OA
ENDROOT
BRANCH   1   2
ATOM      2  C   UNL     1       4.006   5.703  -0.931  0.00  0.00    +0.340 C 
ATOM      3  O   UNL     1       4.889   4.959  -1.309  0.00  0.00    -0.245 OA
BRANCH   2  11
ATOM      4  C   UNL     1      -1.746   2.231  -1.414  0.00  0.00    +0.029 C 
ATOM      5  C   UNL     1      -1.343   1.895   0.023  0.00  0.00    +0.134 C 
ATOM      6  C   UNL     1      -0.006   1.205   0.023  0.00  0.00    +0.230 C 
ATOM      7  O   UNL     1       0.013  -0.008   0.022  0.00  0.00    -0.274 OA
ATOM      8  N   UNL     1       1.157   1.851   0.017  0.00  0.00    -0.284 N 
ATOM      9  C   UNL     1       1.332   3.233   0.006  0.00  0.00    +0.048 A 
ATOM     10  C   UNL     1       2.533   3.762  -0.440  0.00  0.00    +0.039 A 
ATOM     11  C   UNL     1       2.727   5.145  -0.455  0.00  0.00    +0.061 A 
ATOM     12  C   UNL     1       1.711   6.002  -0.020  0.00  0.00    +0.016 A 
ATOM     13  C   UNL     1       0.517   5.477   0.422  0.00  0.00    +0.017 A 
ATOM     14  C   UNL     1       0.324   4.102   0.436  0.00  0.00    +0.030 A 
ATOM     15  S   UNL     1      -1.208   3.426   0.999  0.00  0.00    -0.111 S 
ATOM     16  H   UNL     1       1.960   1.308   0.021  0.00  0.00    +0.155 HD
ENDBRANCH   2  11
ENDBRANCH   1   2
BRANCH   1  17
ATOM     17  C   UNL     1       5.478   7.516  -1.427  0.00  0.00    +0.328 C 
BRANCH  17  18
ATOM     18  C   UNL     1       5.506   9.021  -1.372  0.00  0.00    +0.255 C 
ATOM     19  O   UNL     1       4.539   9.631  -0.967  0.00  0.00    -0.272 OA
ATOM     20  N   UNL     1       6.605   9.690  -1.772  0.00  0.00    -0.283 N 
ATOM     21  H   UNL     1       7.402   9.202  -2.033  0.00  0.00    +0.155 HD
BRANCH  20  22
ATOM     22  C   UNL     1       6.597  11.089  -1.813  0.00  0.00    +0.036 A 
ATOM     23  C   UNL     1       7.302  11.761  -2.804  0.00  0.00    +0.025 A 
ATOM     24  C   UNL     1       7.287  13.141  -2.845  0.00  0.00    +0.024 A 
ATOM     25  C   UNL     1       6.581  13.855  -1.893  0.00  0.00    +0.071 A 
ATOM     26  C   UNL     1       5.883  13.189  -0.901  0.00  0.00    +0.146 A 
ATOM     27  C   UNL     1       5.889  11.809  -0.859  0.00  0.00    +0.057 A 
ATOM     28 CL   UNL     1       6.570  15.591  -1.943  0.00  0.00    -0.081 Cl
BRANCH  26  29
ATOM     29  N   UNL     1       5.128  13.956   0.115  0.00  0.00    +0.058 N 
ATOM     30  O   UNL     1       4.513  13.370   0.988  0.00  0.00    -0.126 OA
ATOM     31  O   UNL     1       5.122  15.174   0.078  0.00  0.00    -0.126 OA
ENDBRANCH  26  29
ENDBRANCH  20  22
ENDBRANCH  17  18
ENDBRANCH   1  17
TORSDOF 6
