REMARK  Name = ZINC09937866
REMARK  9 active torsions:
REMARK  status: ('A' for Active; 'I' for Inactive)
REMARK    1  A    between atoms: C_1  and  C_2
REMARK    2  A    between atoms: C_3  and  C_33
REMARK    3  A    between atoms: N_9  and  C_27
REMARK    4  A    between atoms: N_12  and  C_13
REMARK    5  A    between atoms: C_13  and  C_14
REMARK    6  A    between atoms: N_16  and  C_17
REMARK    7  A    between atoms: C_22  and  C_23
REMARK    8  A    between atoms: C_23  and  O_25
REMARK    9  A    between atoms: O_25  and  C_26
REMARK                            x       y       z     vdW  Elec       q    Type
REMARK                         _______ _______ _______ _____ _____    ______ ____
ROOT
ATOM      1  C   UNL     1       3.886   6.628  -0.340  0.00  0.00    +0.045 C 
ATOM      2  C   UNL     1       5.047   5.672  -0.233  0.00  0.00    -0.026 A 
ATOM      3  C   UNL     1       6.313   6.118  -0.228  0.00  0.00    -0.008 A 
ATOM      4  S   UNL     1       7.273   4.624  -0.087  0.00  0.00    -0.075 S 
ATOM      5  C   UNL     1       5.994   3.471  -0.038  0.00  0.00    +0.097 A 
ATOM      6  C   UNL     1       4.830   4.238  -0.131  0.00  0.00    +0.074 A 
ATOM      7  C   UNL     1       3.561   3.480  -0.118  0.00  0.00    +0.270 A 
ATOM      8  O   UNL     1       2.495   4.063  -0.199  0.00  0.00    -0.266 OA
ATOM      9  N   UNL     1       3.596   2.140  -0.011  0.00  0.00    -0.228 N 
ATOM     10  C   UNL     1       4.755   1.467   0.075  0.00  0.00    +0.338 A 
ATOM     11  O   UNL     1       4.734   0.254   0.166  0.00  0.00    -0.246 OA
ATOM     12  N   UNL     1       5.940   2.107   0.063  0.00  0.00    -0.278 N 
ATOM     13  C   UNL     1       6.804   7.539  -0.321  0.00  0.00    +0.052 C 
ENDROOT
BRANCH   9  14
ATOM     14  C   UNL     1       2.390   1.426   0.007  0.00  0.00    +0.054 A 
ATOM     15  C   UNL     1       2.080   0.560  -1.033  0.00  0.00    +0.026 A 
ATOM     16  C   UNL     1       0.891  -0.143  -1.012  0.00  0.00    +0.002 A 
ATOM     17  C   UNL     1       0.010   0.016   0.041  0.00  0.00    +0.000 A 
ATOM     18  C   UNL     1       0.316   0.878   1.078  0.00  0.00    +0.002 A 
ATOM     19  C   UNL     1       1.504   1.584   1.063  0.00  0.00    +0.026 A 
ENDBRANCH   9  14
BRANCH  12  20
ATOM     20  C   UNL     1       7.182   1.336   0.159  0.00  0.00    +0.223 C 
BRANCH  20  21
ATOM     21  C   UNL     1       7.651   0.965  -1.225  0.00  0.00    +0.237 C 
ATOM     22  O   UNL     1       7.011   1.310  -2.195  0.00  0.00    -0.274 OA
ATOM     23  N   UNL     1       8.782   0.249  -1.384  0.00  0.00    -0.283 N 
ATOM     24  H   UNL     1       9.252  -0.093  -0.607  0.00  0.00    +0.155 HD
BRANCH  23  25
ATOM     25  C   UNL     1       9.276   0.002  -2.662  0.00  0.00    +0.047 A 
ATOM     26  C   UNL     1       9.141   0.959  -3.659  0.00  0.00    +0.024 A 
ATOM     27  C   UNL     1       9.635   0.714  -4.924  0.00  0.00    +0.002 A 
ATOM     28  C   UNL     1      10.260  -0.489  -5.213  0.00  0.00    +0.001 A 
ATOM     29  C   UNL     1      10.398  -1.453  -4.237  0.00  0.00    +0.017 A 
ATOM     30  C   UNL     1       9.907  -1.217  -2.950  0.00  0.00    +0.080 A 
BRANCH  30  31
ATOM     31  C   UNL     1      10.051  -2.244  -1.903  0.00  0.00    +0.341 C 
ATOM     32  O   UNL     1       9.704  -2.002  -0.763  0.00  0.00    -0.245 OA
BRANCH  31  33
ATOM     33  O   UNL     1      10.568  -3.450  -2.208  0.00  0.00    -0.464 OA
ATOM     34  C   UNL     1      10.680  -4.412  -1.126  0.00  0.00    +0.280 C 
ENDBRANCH  31  33
ENDBRANCH  30  31
ENDBRANCH  23  25
ENDBRANCH  20  21
ENDBRANCH  12  20
TORSDOF 6
