REMARK  Name = ZINC57641292
REMARK  9 active torsions:
REMARK  status: ('A' for Active; 'I' for Inactive)
REMARK    1  A    between atoms: C_1  and  C_2
REMARK    2  A    between atoms: C_2  and  C_3
REMARK    3  A    between atoms: C_3  and  C_5
REMARK    4  A    between atoms: C_3  and  N_16
REMARK    5  A    between atoms: N_9  and  C_10
REMARK    6  A    between atoms: N_16  and  C_17
REMARK    7  A    between atoms: N_16  and  C_23
REMARK    8  A    between atoms: C_17  and  C_18
REMARK    9  A    between atoms: C_23  and  C_24
REMARK                            x       y       z     vdW  Elec       q    Type
REMARK                         _______ _______ _______ _____ _____    ______ ____
ROOT
ATOM      1  N   UNL     1      -1.966  -0.134  -1.124  0.00  0.00    -0.284 NA
ENDROOT
BRANCH   1   2
ATOM      2  C   UNL     1      -1.562  -0.652   0.190  0.00  0.00    +0.127 C 
BRANCH   2   3
ATOM      3  C   UNL     1      -0.188  -0.137   0.532  0.00  0.00    +0.169 A 
ATOM      4  N   UNL     1       0.222   1.106   0.460  0.00  0.00    -0.112 NA
ATOM      5  N   UNL     1       1.454   1.141   0.835  0.00  0.00    -0.023 NA
ATOM      6  N   UNL     1       1.841  -0.047   1.145  0.00  0.00    -0.044 NA
ATOM      7  N   UNL     1       0.855  -0.863   0.976  0.00  0.00    -0.225 N 
BRANCH   7   8
ATOM      8  C   UNL     1       0.869  -2.307   1.219  0.00  0.00    +0.111 C 
ATOM      9  C   UNL     1       1.197  -2.574   2.689  0.00  0.00    +0.027 C 
ATOM     10  C   UNL     1       1.212  -4.083   2.943  0.00  0.00    +0.002 C 
ATOM     11  C   UNL     1       2.273  -4.739   2.057  0.00  0.00    +0.000 C 
ATOM     12  C   UNL     1       1.945  -4.472   0.586  0.00  0.00    +0.002 C 
ATOM     13  C   UNL     1       1.930  -2.963   0.333  0.00  0.00    +0.027 C 
ENDBRANCH   7   8
ENDBRANCH   2   3
BRANCH   2  15
ATOM     14  C   UNL     1      -3.939  -0.777   0.950  0.00  0.00    +0.006 C 
ATOM     15  C   UNL     1      -2.561  -0.185   1.251  0.00  0.00    +0.023 C 
ENDBRANCH   2  15
ENDBRANCH   1   2
BRANCH   1  16
ATOM     16  C   UNL     1      -1.163  -0.736  -2.197  0.00  0.00    +0.127 C 
BRANCH  16  17
ATOM     17  C   UNL     1      -1.602  -2.161  -2.414  0.00  0.00    +0.004 A 
ATOM     18  C   UNL     1      -2.496  -2.652  -3.307  0.00  0.00    +0.012 A 
ATOM     19  C   UNL     1      -2.745  -4.012  -3.327  0.00  0.00    +0.008 A 
ATOM     20  C   UNL     1      -2.088  -4.814  -2.454  0.00  0.00    +0.045 A 
ATOM     21  S   UNL     1      -1.075  -3.642  -1.567  0.00  0.00    -0.100 S 
ENDBRANCH  16  17
ENDBRANCH   1  16
BRANCH   1  22
ATOM     22  C   UNL     1      -1.880   1.332  -1.162  0.00  0.00    +0.126 C 
BRANCH  22  23
ATOM     23  C   UNL     1      -2.675   1.852  -2.331  0.00  0.00    +0.031 A 
ATOM     24  C   UNL     1      -3.967   2.229  -2.156  0.00  0.00    +0.020 A 
ATOM     25  C   UNL     1      -4.712   2.730  -3.311  0.00  0.00    +0.003 A 
ATOM     26  C   UNL     1      -6.048   3.133  -3.190  0.00  0.00    +0.059 A 
ATOM     27  C   UNL     1      -6.724   3.602  -4.296  0.00  0.00    +0.163 A 
ATOM     28  C   UNL     1      -6.081   3.679  -5.535  0.00  0.00    +0.164 A 
ATOM     29  C   UNL     1      -4.761   3.281  -5.664  0.00  0.00    +0.075 A 
ATOM     30  C   UNL     1      -4.066   2.805  -4.560  0.00  0.00    +0.053 A 
ATOM     31  N   UNL     1      -2.749   2.405  -4.671  0.00  0.00    -0.322 N 
ATOM     32  H   UNL     1      -2.305   2.456  -5.531  0.00  0.00    +0.169 HD
ATOM     33  C   UNL     1      -2.073   1.950  -3.602  0.00  0.00    +0.254 A 
ATOM     34  O   UNL     1      -0.909   1.610  -3.736  0.00  0.00    -0.268 OA
ATOM     35  O   UNL     1      -6.739   4.148  -6.629  0.00  0.00    -0.485 OA
ATOM     36  C   UNL     1      -8.168   4.188  -6.554  0.00  0.00    +0.270 C 
ATOM     37  C   UNL     1      -8.562   4.806  -5.206  0.00  0.00    +0.270 C 
ATOM     38  O   UNL     1      -8.024   3.987  -4.162  0.00  0.00    -0.485 OA
ENDBRANCH  22  23
ENDBRANCH   1  22
TORSDOF 8
