REMARK  Name = ZINC67556570
REMARK  6 active torsions:
REMARK  status: ('A' for Active; 'I' for Inactive)
REMARK    1  A    between atoms: C_1  and  C_2
REMARK    2  A    between atoms: C_9  and  N_12
REMARK    3  A    between atoms: C_13  and  C_15
REMARK    4  A    between atoms: N_17  and  C_18
REMARK    5  A    between atoms: C_18  and  C_20
REMARK    6  A    between atoms: C_18  and  C_21
REMARK                            x       y       z     vdW  Elec       q    Type
REMARK                         _______ _______ _______ _____ _____    ______ ____
ROOT
ATOM      1  C   UNL     1      -0.159  -1.860   6.072  0.00  0.00    +0.300 C 
ATOM      2  O   UNL     1      -0.176  -0.646   6.056  0.00  0.00    -0.265 OA
ATOM      3  N   UNL     1      -0.246  -2.519   7.244  0.00  0.00    -0.298 N 
ATOM      4  H   UNL     1      -0.233  -3.489   7.257  0.00  0.00    +0.150 HD
ENDROOT
BRANCH   1   6
ATOM      5  N   UNL     1       0.046  -1.962   3.622  0.00  0.00    -0.276 N 
ATOM      6  C   UNL     1      -0.041  -2.622   4.794  0.00  0.00    +0.303 C 
ATOM      7  O   UNL     1      -0.024  -3.836   4.810  0.00  0.00    -0.265 OA
ATOM      8  H   UNL     1       0.113  -0.995   3.614  0.00  0.00    +0.155 HD
BRANCH   5  17
ATOM      9  C   UNL     1       2.401   0.969   0.317  0.00  0.00    +0.065 C 
ATOM     10  C   UNL     1       1.763  -0.394   0.226  0.00  0.00    +0.039 A 
ATOM     11  C   UNL     1       1.777  -1.069  -0.992  0.00  0.00    +0.023 A 
ATOM     12  C   UNL     1       1.204  -2.305  -1.093  0.00  0.00    +0.012 A 
ATOM     13  C   UNL     1       0.612  -2.859   0.058  0.00  0.00    +0.002 A 
ATOM     14  C   UNL     1       0.005  -4.125   0.029  0.00  0.00    +0.010 A 
ATOM     15  C   UNL     1      -0.559  -4.634   1.160  0.00  0.00    +0.003 A 
ATOM     16  C   UNL     1      -0.546  -3.917   2.352  0.00  0.00    +0.025 A 
ATOM     17  C   UNL     1       0.040  -2.671   2.421  0.00  0.00    +0.060 A 
ATOM     18  C   UNL     1       0.634  -2.117   1.264  0.00  0.00    +0.092 A 
ATOM     19  N   UNL     1       1.215  -0.915   1.297  0.00  0.00    -0.250 NA
ENDBRANCH   5  17
ENDBRANCH   1   6
BRANCH   3  20
ATOM     20  C   UNL     1      -0.362  -1.772   8.499  0.00  0.00    +0.136 C 
ATOM     21  C   UNL     1       1.033  -1.381   8.991  0.00  0.00    +0.036 C 
BRANCH  20  22
ATOM     22  C   UNL     1      -1.038  -2.632   9.536  0.00  0.00    +0.128 A 
ATOM     23  N   UNL     1      -1.736  -2.161  10.604  0.00  0.00    -0.340 N 
ATOM     24  H   UNL     1      -1.884  -1.229  10.829  0.00  0.00    +0.167 HD
ATOM     25  C   UNL     1      -2.195  -3.255  11.309  0.00  0.00    +0.066 A 
ATOM     26  C   UNL     1      -2.949  -3.414  12.464  0.00  0.00    +0.028 A 
ATOM     27  C   UNL     1      -3.243  -4.682  12.918  0.00  0.00    +0.002 A 
ATOM     28  C   UNL     1      -2.791  -5.799  12.229  0.00  0.00    +0.002 A 
ATOM     29  C   UNL     1      -2.048  -5.661  11.091  0.00  0.00    +0.030 A 
ATOM     30  C   UNL     1      -1.738  -4.386  10.612  0.00  0.00    +0.089 A 
ATOM     31  N   UNL     1      -1.043  -3.933   9.537  0.00  0.00    -0.231 NA
ENDBRANCH  20  22
ENDBRANCH   3  20
TORSDOF 4
