REMARK  Name = ZINC41548146
REMARK  8 active torsions:
REMARK  status: ('A' for Active; 'I' for Inactive)
REMARK    1  A    between atoms: C_1  and  C_2
REMARK    2  A    between atoms: C_11  and  C_13
REMARK    3  A    between atoms: C_11  and  C_14
REMARK    4  A    between atoms: N_16  and  C_17
REMARK    5  A    between atoms: C_19  and  O_25
REMARK    6  A    between atoms: C_22  and  O_23
REMARK    7  A    between atoms: O_23  and  C_24
REMARK    8  A    between atoms: O_25  and  C_26
REMARK                            x       y       z     vdW  Elec       q    Type
REMARK                         _______ _______ _______ _____ _____    ______ ____
ROOT
ATOM      1  C   UNL     1      -0.087   1.502   0.015  0.00  0.00    +0.044 C 
ATOM      2  C   UNL     1      -0.055  -0.005   0.006  0.00  0.00    -0.048 A 
ATOM      3  C   UNL     1      -0.044  -0.687  -1.197  0.00  0.00    +0.007 A 
ATOM      4  C   UNL     1      -0.020  -2.070  -1.213  0.00  0.00    +0.048 A 
ATOM      5  C   UNL     1      -0.003  -2.774  -0.021  0.00  0.00    +0.144 A 
ATOM      6  C   UNL     1      -0.003  -2.086   1.190  0.00  0.00    +0.076 A 
ATOM      7  C   UNL     1      -0.030  -0.701   1.200  0.00  0.00    +0.030 A 
ATOM      8  N   UNL     1       0.049  -2.806   2.392  0.00  0.00    -0.279 N 
ATOM      9  C   UNL     1       0.316  -4.128   2.357  0.00  0.00    +0.270 C 
ATOM     10  O   UNL     1       0.257  -4.789   3.372  0.00  0.00    -0.271 OA
ATOM     11  C   UNL     1       0.687  -4.782   1.050  0.00  0.00    +0.258 C 
ATOM     12  O   UNL     1       0.003  -4.134  -0.024  0.00  0.00    -0.465 OA
ATOM     13  C   UNL     1       2.198  -4.667   0.834  0.00  0.00    +0.076 C 
ATOM     14  H   UNL     1      -0.105  -2.359   3.239  0.00  0.00    +0.155 HD
ENDROOT
BRANCH  11  15
ATOM     15  C   UNL     1       0.297  -6.237   1.088  0.00  0.00    +0.270 C 
ATOM     16  O   UNL     1       0.203  -6.812   2.151  0.00  0.00    -0.271 OA
ATOM     17  N   UNL     1       0.052  -6.899  -0.060  0.00  0.00    -0.279 N 
ATOM     18  H   UNL     1       0.063  -6.424  -0.906  0.00  0.00    +0.155 HD
BRANCH  17  19
ATOM     19  C   UNL     1      -0.220  -8.274  -0.032  0.00  0.00    +0.079 A 
ATOM     20  C   UNL     1      -0.924  -8.821   1.030  0.00  0.00    +0.072 A 
ATOM     21  C   UNL     1      -1.191 -10.181   1.056  0.00  0.00    +0.122 A 
ATOM     22  C   UNL     1      -0.755 -10.994   0.020  0.00  0.00    +0.049 A 
ATOM     23  C   UNL     1      -0.052 -10.451  -1.040  0.00  0.00    +0.051 A 
ATOM     24  C   UNL     1       0.212  -9.091  -1.073  0.00  0.00    +0.141 A 
BRANCH  24  25
ATOM     25  O   UNL     1       0.898  -8.557  -2.120  0.00  0.00    -0.493 OA
ATOM     26  C   UNL     1       1.310  -9.455  -3.152  0.00  0.00    +0.277 C 
ENDBRANCH  24  25
BRANCH  21  27
ATOM     27  O   UNL     1      -1.881 -10.719   2.097  0.00  0.00    -0.495 OA
ATOM     28  C   UNL     1      -2.120 -12.127   2.058  0.00  0.00    +0.277 C 
ENDBRANCH  21  27
ENDBRANCH  17  19
ENDBRANCH  11  15
TORSDOF 4
