REMARK  Name = ZINC36491104
REMARK  11 active torsions:
REMARK  status: ('A' for Active; 'I' for Inactive)
REMARK    1  A    between atoms: C_1  and  C_2
REMARK    2  A    between atoms: C_3  and  C_4
REMARK    3  A    between atoms: C_4  and  C_6
REMARK    4  A    between atoms: C_4  and  N_20
REMARK    5  A    between atoms: N_8  and  C_9
REMARK    6  A    between atoms: C_9  and  S_10
REMARK    7  A    between atoms: S_10  and  C_13
REMARK    8  A    between atoms: C_16  and  C_19
REMARK    9  A    between atoms: N_20  and  C_21
REMARK   10  A    between atoms: C_27  and  C_29
REMARK   11  A    between atoms: C_33  and  N_35
REMARK                            x       y       z     vdW  Elec       q    Type
REMARK                         _______ _______ _______ _____ _____    ______ ____
ROOT
ATOM      1  C   UNL     1       0.993   1.106  -3.226  0.00  0.00    +0.185 C 
ENDROOT
BRANCH   1   2
ATOM      2  C   UNL     1       1.259   1.408  -4.678  0.00  0.00    +0.239 C 
ATOM      3  O   UNL     1       1.739   2.475  -4.998  0.00  0.00    -0.273 OA
ATOM      4  N   UNL     1       0.965   0.492  -5.622  0.00  0.00    -0.294 N 
ATOM      5  H   UNL     1       0.581  -0.361  -5.367  0.00  0.00    +0.150 HD
BRANCH   4   6
ATOM      6  C   UNL     1       1.224   0.786  -7.034  0.00  0.00    +0.278 C 
BRANCH   6   7
ATOM      7  S   UNL     1       2.842   0.114  -7.504  0.00  0.00    +0.013 S 
ATOM      8  O   UNL     1       3.081   0.336  -8.887  0.00  0.00    -0.168 OA
ATOM      9  O   UNL     1       3.819   0.468  -6.535  0.00  0.00    -0.168 OA
BRANCH   7  10
ATOM     10  C   UNL     1       2.670  -1.633  -7.352  0.00  0.00    +0.090 A 
ATOM     11  C   UNL     1       2.954  -2.253  -6.150  0.00  0.00    +0.027 A 
ATOM     12  C   UNL     1       2.819  -3.623  -6.030  0.00  0.00    +0.005 A 
ATOM     13  C   UNL     1       2.398  -4.373  -7.112  0.00  0.00    -0.050 A 
ATOM     14  C   UNL     1       2.112  -3.753  -8.314  0.00  0.00    +0.005 A 
ATOM     15  C   UNL     1       2.244  -2.382  -8.433  0.00  0.00    +0.027 A 
ATOM     16  C   UNL     1       2.251  -5.868  -6.982  0.00  0.00    +0.044 C 
ENDBRANCH   7  10
ENDBRANCH   6   7
ENDBRANCH   4   6
ENDBRANCH   1   2
BRANCH   1  19
ATOM     17  C   UNL     1       0.477  -1.046  -1.479  0.00  0.00    +0.035 C 
ATOM     18  C   UNL     1      -0.639  -0.458  -2.303  0.00  0.00    -0.032 C 
ATOM     19  C   UNL     1      -0.410   0.577  -3.072  0.00  0.00    +0.000 C 
ENDBRANCH   1  19
BRANCH   1  20
ATOM     20  N   UNL     1       1.143   2.331  -2.437  0.00  0.00    -0.279 N 
ATOM     21  C   UNL     1       2.048   2.384  -1.440  0.00  0.00    +0.248 C 
ATOM     22  O   UNL     1       2.832   1.468  -1.282  0.00  0.00    -0.270 OA
BRANCH  20  23
ATOM     23  C   UNL     1       0.308   3.498  -2.731  0.00  0.00    +0.077 C 
ATOM     24  C   UNL     1      -0.875   3.072  -3.603  0.00  0.00    +0.022 C 
ATOM     25  C   UNL     1      -1.747   4.292  -3.910  0.00  0.00    +0.002 C 
ATOM     26  C   UNL     1      -0.916   5.339  -4.654  0.00  0.00    +0.000 C 
ATOM     27  C   UNL     1       0.267   5.764  -3.783  0.00  0.00    +0.002 C 
ATOM     28  C   UNL     1       1.139   4.545  -3.475  0.00  0.00    +0.022 C 
ENDBRANCH  20  23
BRANCH  21  29
ATOM     29  C   UNL     1       2.089   3.556  -0.540  0.00  0.00    +0.039 A 
ATOM     30  C   UNL     1       0.947   3.936   0.168  0.00  0.00    +0.013 A 
ATOM     31  C   UNL     1       0.992   5.030   1.006  0.00  0.00    +0.003 A 
ATOM     32  C   UNL     1       2.165   5.751   1.146  0.00  0.00    +0.033 A 
ATOM     33  C   UNL     1       3.300   5.380   0.447  0.00  0.00    +0.127 A 
ATOM     34  C   UNL     1       3.270   4.284  -0.390  0.00  0.00    +0.045 A 
BRANCH  33  35
ATOM     35  N   UNL     1       4.550   6.157   0.602  0.00  0.00    +0.056 N 
ATOM     36  O   UNL     1       4.578   7.115   1.340  0.00  0.00    -0.126 OA
ATOM     37  O   UNL     1       5.542   5.835  -0.008  0.00  0.00    -0.126 OA
ENDBRANCH  33  35
ENDBRANCH  21  29
ENDBRANCH   1  20
TORSDOF 9
