REMARK  Name = ZINC32958908
REMARK  5 active torsions:
REMARK  status: ('A' for Active; 'I' for Inactive)
REMARK    1  A    between atoms: C_1  and  C_2
REMARK    2  A    between atoms: C_7  and  S_8
REMARK    3  A    between atoms: S_8  and  N_11
REMARK    4  A    between atoms: C_14  and  C_17
REMARK    5  A    between atoms: C_27  and  C_32
REMARK                            x       y       z     vdW  Elec       q    Type
REMARK                         _______ _______ _______ _____ _____    ______ ____
ROOT
ATOM      1  S   UNL     1      -3.189   3.367   0.256  0.00  0.00    +0.061 S 
ATOM      2  O   UNL     1      -4.112   2.672   1.084  0.00  0.00    -0.153 OA
ATOM      3  O   UNL     1      -2.837   4.725   0.483  0.00  0.00    -0.153 OA
ENDROOT
BRANCH   1  10
ATOM      4  C   UNL     1      -0.730   4.081  -1.342  0.00  0.00    +0.046 C 
ATOM      5  C   UNL     1      -0.614   2.851  -0.479  0.00  0.00    -0.022 A 
ATOM      6  C   UNL     1       0.566   2.129  -0.463  0.00  0.00    +0.032 A 
ATOM      7  C   UNL     1       0.672   1.002   0.335  0.00  0.00    +0.076 A 
ATOM      8  C   UNL     1      -0.410   0.595   1.114  0.00  0.00    +0.145 A 
ATOM      9  C   UNL     1      -1.589   1.320   1.088  0.00  0.00    +0.076 A 
ATOM     10  C   UNL     1      -1.689   2.445   0.289  0.00  0.00    +0.112 A 
ATOM     11  O   UNL     1      -0.295  -0.515   1.891  0.00  0.00    -0.478 OA
ATOM     12  C   UNL     1       0.540  -1.564   1.394  0.00  0.00    +0.256 C 
ATOM     13  C   UNL     1       1.840  -0.985   0.897  0.00  0.00    +0.258 C 
ATOM     14  O   UNL     1       2.862  -1.633   0.967  0.00  0.00    -0.271 OA
ATOM     15  N   UNL     1       1.861   0.260   0.372  0.00  0.00    -0.280 N 
ATOM     16  C   UNL     1      -0.172  -2.280   0.244  0.00  0.00    +0.062 C 
ATOM     17  H   UNL     1       2.792   0.693  -0.022  0.00  0.00    +0.155 HD
ENDBRANCH   1  10
BRANCH   1  18
ATOM     18  N   UNL     1      -3.782   3.284  -1.288  0.00  0.00    -0.177 NA
ATOM     19  C   UNL     1      -3.538   4.373  -2.243  0.00  0.00    +0.110 C 
ATOM     20  C   UNL     1      -4.874   4.839  -2.818  0.00  0.00    +0.030 C 
ATOM     21  C   UNL     1      -5.619   3.639  -3.409  0.00  0.00    +0.078 C 
ATOM     22  C   UNL     1      -5.896   2.615  -2.306  0.00  0.00    +0.030 C 
ATOM     23  C   UNL     1      -4.567   2.122  -1.726  0.00  0.00    +0.110 C 
BRANCH  21  24
ATOM     24  C   UNL     1      -6.923   4.102  -4.005  0.00  0.00    +0.219 C 
ATOM     25  O   UNL     1      -7.960   3.935  -3.397  0.00  0.00    -0.275 OA
ATOM     26  N   UNL     1      -6.938   4.700  -5.212  0.00  0.00    -0.301 N 
ATOM     27  C   UNL     1      -8.214   5.033  -5.805  0.00  0.00    +0.108 C 
ATOM     28  C   UNL     1      -8.728   3.847  -6.647  0.00  0.00    +0.019 C 
ATOM     29  C   UNL     1      -7.923   3.701  -7.869  0.00  0.00    +0.002 C 
ATOM     30  C   UNL     1      -6.452   3.380  -7.618  0.00  0.00    +0.002 C 
ATOM     31  C   UNL     1      -5.693   4.662  -7.383  0.00  0.00    +0.019 C 
ATOM     32  C   UNL     1      -5.652   4.984  -5.878  0.00  0.00    +0.108 C 
ENDBRANCH  21  24
ENDBRANCH   1  18
TORSDOF 3
