REMARK  Name = ZINC16295770
REMARK  9 active torsions:
REMARK  status: ('A' for Active; 'I' for Inactive)
REMARK    1  A    between atoms: C_1  and  C_2
REMARK    2  A    between atoms: C_2  and  C_4
REMARK    3  A    between atoms: C_2  and  S_14
REMARK    4  A    between atoms: N_9  and  C_10
REMARK    5  A    between atoms: C_10  and  C_11
REMARK    6  A    between atoms: C_10  and  C_12
REMARK    7  A    between atoms: C_10  and  C_13
REMARK    8  A    between atoms: S_14  and  C_15
REMARK    9  A    between atoms: N_19  and  C_20
REMARK                            x       y       z     vdW  Elec       q    Type
REMARK                         _______ _______ _______ _____ _____    ______ ____
ROOT
ATOM      1  C   UNL     1      -0.019   1.526   0.010  0.00  0.00    +0.029 C 
ATOM      2  C   UNL     1       0.002  -0.004   0.002  0.00  0.00    +0.137 C 
ENDROOT
BRANCH   2   3
ATOM      3  C   UNL     1       0.731  -0.503   1.223  0.00  0.00    +0.234 C 
ATOM      4  O   UNL     1       0.105  -0.891   2.186  0.00  0.00    -0.274 OA
ATOM      5  N   UNL     1       2.079  -0.519   1.244  0.00  0.00    -0.239 N 
ATOM      6  C   UNL     1       2.730  -0.965   2.336  0.00  0.00    +0.306 C 
ATOM      7  O   UNL     1       2.103  -1.354   3.301  0.00  0.00    -0.252 OA
ATOM      8  N   UNL     1       4.078  -0.981   2.357  0.00  0.00    -0.294 N 
ATOM      9  H   UNL     1       2.579  -0.208   0.473  0.00  0.00    +0.159 HD
ATOM     10  H   UNL     1       4.579  -0.670   1.586  0.00  0.00    +0.151 HD
BRANCH   8  11
ATOM     11  C   UNL     1       4.786  -1.466   3.544  0.00  0.00    +0.028 C 
ATOM     12  C   UNL     1       4.396  -2.921   3.812  0.00  0.00    +0.031 C 
ATOM     13  C   UNL     1       6.296  -1.378   3.308  0.00  0.00    +0.031 C 
ATOM     14  C   UNL     1       4.408  -0.606   4.751  0.00  0.00    +0.031 C 
ENDBRANCH   8  11
ENDBRANCH   2   3
BRANCH   2  15
ATOM     15  S   UNL     1      -1.700  -0.632   0.015  0.00  0.00    -0.072 S 
BRANCH  15  16
ATOM     16  C   UNL     1      -2.365  -0.093  -1.525  0.00  0.00    +0.210 A 
ATOM     17  N   UNL     1      -1.734   0.599  -2.450  0.00  0.00    -0.101 NA
ATOM     18  N   UNL     1      -2.509   0.825  -3.449  0.00  0.00    -0.022 NA
ATOM     19  N   UNL     1      -3.670   0.305  -3.242  0.00  0.00    -0.043 NA
ATOM     20  N   UNL     1      -3.619  -0.319  -1.983  0.00  0.00    -0.217 N 
BRANCH  20  21
ATOM     21  C   UNL     1      -4.693  -1.053  -1.310  0.00  0.00    +0.112 C 
ATOM     22  C   UNL     1      -5.116  -2.243  -2.174  0.00  0.00    +0.027 C 
ATOM     23  C   UNL     1      -6.238  -3.010  -1.471  0.00  0.00    +0.002 C 
ATOM     24  C   UNL     1      -7.436  -2.081  -1.259  0.00  0.00    +0.000 C 
ATOM     25  C   UNL     1      -7.012  -0.891  -0.395  0.00  0.00    +0.002 C 
ATOM     26  C   UNL     1      -5.890  -0.125  -1.098  0.00  0.00    +0.027 C 
ENDBRANCH  20  21
ENDBRANCH  15  16
ENDBRANCH   2  15
TORSDOF 5
