REMARK  Name = ZINC17721307
REMARK  8 active torsions:
REMARK  status: ('A' for Active; 'I' for Inactive)
REMARK    1  A    between atoms: C_1  and  C_2
REMARK    2  A    between atoms: C_7  and  N_30
REMARK    3  A    between atoms: C_8  and  C_13
REMARK    4  A    between atoms: N_17  and  C_21
REMARK    5  A    between atoms: C_21  and  C_23
REMARK    6  A    between atoms: C_21  and  C_24
REMARK    7  A    between atoms: C_32  and  C_39
REMARK    8  A    between atoms: C_35  and  C_38
REMARK                            x       y       z     vdW  Elec       q    Type
REMARK                         _______ _______ _______ _____ _____    ______ ____
ROOT
ATOM      1  C   UNL     1      -5.917  -0.508   0.365  0.00  0.00    +0.045 C 
ATOM      2  C   UNL     1      -5.887   0.980   0.602  0.00  0.00    -0.034 A 
ATOM      3  C   UNL     1      -7.048   1.646   1.018  0.00  0.00    +0.008 A 
ATOM      4  C   UNL     1      -7.012   2.993   1.229  0.00  0.00    +0.047 A 
ATOM      5  C   UNL     1      -5.809   3.694   1.029  0.00  0.00    +0.142 A 
ATOM      6  N   UNL     1      -5.783   5.010   1.238  0.00  0.00    -0.214 NA
ATOM      7  C   UNL     1      -4.678   5.721   1.065  0.00  0.00    +0.136 A 
ATOM      8  C   UNL     1      -3.491   5.073   0.646  0.00  0.00    +0.081 A 
ATOM      9  C   UNL     1      -3.532   3.676   0.421  0.00  0.00    +0.267 A 
ATOM     10  O   UNL     1      -2.535   3.078   0.056  0.00  0.00    -0.267 OA
ATOM     11  N   UNL     1      -4.693   3.016   0.624  0.00  0.00    -0.267 N 
ATOM     12  C   UNL     1      -4.740   1.670   0.414  0.00  0.00    +0.099 A 
ENDROOT
BRANCH   8  13
ATOM     13  C   UNL     1      -2.296   5.804   0.453  0.00  0.00    +0.037 C 
ATOM     14  C   UNL     1      -2.272   6.852  -0.421  0.00  0.00    +0.077 C 
ATOM     15  C   UNL     1      -3.279   7.306  -1.320  0.00  0.00    +0.259 C 
ATOM     16  O   UNL     1      -4.356   6.741  -1.391  0.00  0.00    -0.269 OA
ATOM     17  N   UNL     1      -3.011   8.356  -2.077  0.00  0.00    -0.248 N 
ATOM     18  C   UNL     1      -1.818   8.986  -1.994  0.00  0.00    +0.121 C 
ATOM     19  S   UNL     1      -1.262  10.352  -2.864  0.00  0.00    -0.027 S 
ATOM     20  S   UNL     1      -0.968   8.032  -0.746  0.00  0.00    -0.061 S 
BRANCH  17  21
ATOM     21  C   UNL     1      -4.023   8.847  -3.016  0.00  0.00    +0.110 C 
ATOM     22  C   UNL     1      -4.474  10.246  -2.593  0.00  0.00    +0.033 C 
BRANCH  21  23
ATOM     23  C   UNL     1      -3.435   8.906  -4.402  0.00  0.00    -0.027 A 
ATOM     24  C   UNL     1      -3.856   9.878  -5.290  0.00  0.00    +0.005 A 
ATOM     25  C   UNL     1      -3.315   9.934  -6.561  0.00  0.00    +0.000 A 
ATOM     26  C   UNL     1      -2.358   9.014  -6.946  0.00  0.00    +0.000 A 
ATOM     27  C   UNL     1      -1.941   8.039  -6.060  0.00  0.00    +0.000 A 
ATOM     28  C   UNL     1      -2.480   7.984  -4.788  0.00  0.00    +0.005 A 
ENDBRANCH  21  23
ENDBRANCH  17  21
ENDBRANCH   8  13
BRANCH   7  29
ATOM     29  N   UNL     1      -4.684   7.080   1.289  0.00  0.00    -0.314 N 
ATOM     30  C   UNL     1      -6.054   7.576   1.476  0.00  0.00    +0.109 C 
ATOM     31  C   UNL     1      -6.035   9.103   1.577  0.00  0.00    +0.004 C 
ATOM     32  C   UNL     1      -5.156   9.521   2.758  0.00  0.00    +0.009 C 
ATOM     33  C   UNL     1      -3.748   8.951   2.563  0.00  0.00    +0.004 C 
ATOM     34  C   UNL     1      -3.833   7.428   2.434  0.00  0.00    +0.109 C 
ATOM     35  C   UNL     1      -2.879   9.313   3.769  0.00  0.00    +0.009 C 
ATOM     36  C   UNL     1      -7.460   9.618   1.793  0.00  0.00    +0.009 C 
ENDBRANCH   7  29
TORSDOF 4
