REMARK  Name = ZINC35296726
REMARK  9 active torsions:
REMARK  status: ('A' for Active; 'I' for Inactive)
REMARK    1  A    between atoms: C_1  and  C_2
REMARK    2  A    between atoms: C_6  and  O_8
REMARK    3  A    between atoms: O_8  and  C_9
REMARK    4  A    between atoms: C_9  and  C_10
REMARK    5  A    between atoms: N_12  and  C_13
REMARK    6  A    between atoms: C_13  and  N_15
REMARK    7  A    between atoms: N_15  and  C_16
REMARK    8  A    between atoms: C_18  and  N_23
REMARK    9  A    between atoms: C_21  and  O_22
REMARK                            x       y       z     vdW  Elec       q    Type
REMARK                         _______ _______ _______ _____ _____    ______ ____
ROOT
ATOM      1  C   UNL     1       0.360  -6.672   5.038  0.00  0.00    +0.141 C 
ATOM      2  S   UNL     1       0.686  -5.647   6.370  0.00  0.00    -0.018 S 
ENDROOT
BRANCH   1   5
ATOM      3  C   UNL     1       0.559  -4.853   3.590  0.00  0.00    +0.256 C 
ATOM      4  O   UNL     1       0.789  -4.127   4.533  0.00  0.00    -0.272 OA
ATOM      5  N   UNL     1       0.331  -6.166   3.790  0.00  0.00    -0.265 N 
ATOM      6  H   UNL     1       0.146  -6.747   3.035  0.00  0.00    +0.157 HD
BRANCH   3   7
ATOM      7  C   UNL     1       0.526  -4.287   2.193  0.00  0.00    +0.324 C 
BRANCH   7   8
ATOM      8  O   UNL     1       0.795  -2.884   2.242  0.00  0.00    -0.483 OA
BRANCH   8  14
ATOM      9  C   UNL     1       1.341   1.305  -0.203  0.00  0.00    +0.044 C 
ATOM     10  C   UNL     1       1.065  -0.176  -0.173  0.00  0.00    -0.047 A 
ATOM     11  C   UNL     1       0.820  -0.857  -1.351  0.00  0.00    +0.003 A 
ATOM     12  C   UNL     1       0.566  -2.216  -1.327  0.00  0.00    +0.004 A 
ATOM     13  C   UNL     1       0.557  -2.897  -0.125  0.00  0.00    +0.045 A 
ATOM     14  C   UNL     1       0.803  -2.216   1.058  0.00  0.00    +0.121 A 
ATOM     15  C   UNL     1       1.063  -0.854   1.031  0.00  0.00    +0.049 A 
ENDBRANCH   8  14
ENDBRANCH   7   8
ENDBRANCH   3   7
ENDBRANCH   1   5
BRANCH   1  16
ATOM     16  N   UNL     1       0.132  -7.986   5.239  0.00  0.00    -0.294 N 
ATOM     17  H   UNL     1      -0.114  -8.554   4.492  0.00  0.00    +0.154 HD
BRANCH  16  18
ATOM     18  C   UNL     1       0.251  -8.529   6.524  0.00  0.00    +0.077 A 
ATOM     19  C   UNL     1      -0.343  -7.894   7.606  0.00  0.00    +0.059 A 
ATOM     20  C   UNL     1      -0.225  -8.433   8.873  0.00  0.00    +0.128 A 
ATOM     21  C   UNL     1       0.485  -9.603   9.067  0.00  0.00    +0.036 A 
ATOM     22  C   UNL     1       1.080 -10.241   7.995  0.00  0.00    +0.049 A 
ATOM     23  C   UNL     1       0.961  -9.711   6.720  0.00  0.00    +0.138 A 
BRANCH  20  24
ATOM     24  N   UNL     1      -0.859  -7.754  10.025  0.00  0.00    +0.056 N 
ATOM     25  O   UNL     1      -1.480  -6.730   9.857  0.00  0.00    -0.126 OA
ATOM     26  O   UNL     1      -0.757  -8.224  11.135  0.00  0.00    -0.126 OA
ENDBRANCH  20  24
BRANCH  23  27
ATOM     27  O   UNL     1       1.541 -10.341   5.663  0.00  0.00    -0.505 OA
ATOM     28  H   UNL     1       2.448 -10.058   5.486  0.00  0.00    +0.292 HD
ENDBRANCH  23  27
ENDBRANCH  16  18
ENDBRANCH   1  16
TORSDOF 8
