REMARK  Name = ZINC64998351
REMARK  7 active torsions:
REMARK  status: ('A' for Active; 'I' for Inactive)
REMARK    1  A    between atoms: C_1  and  C_2
REMARK    2  A    between atoms: C_2  and  C_3
REMARK    3  A    between atoms: C_7  and  N_9
REMARK    4  A    between atoms: C_10  and  C_12
REMARK    5  A    between atoms: N_17  and  C_20
REMARK    6  A    between atoms: N_21  and  C_23
REMARK    7  A    between atoms: C_26  and  C_29
REMARK                            x       y       z     vdW  Elec       q    Type
REMARK                         _______ _______ _______ _____ _____    ______ ____
ROOT
ATOM      1  C   UNL     1      -0.125  -2.384   6.958  0.00  0.00    +0.174 A 
ATOM      2  C   UNL     1       0.410  -2.973   8.185  0.00  0.00    +0.128 A 
ATOM      3  C   UNL     1      -0.710  -3.131   9.012  0.00  0.00    +0.158 A 
ATOM      4  C   UNL     1      -0.519  -3.689  10.296  0.00  0.00    +0.280 A 
ATOM      5  O   UNL     1      -1.459  -3.849  11.055  0.00  0.00    -0.265 OA
ATOM      6  N   UNL     1       0.735  -4.040  10.661  0.00  0.00    -0.301 N 
ATOM      7  C   UNL     1       1.778  -3.858   9.810  0.00  0.00    +0.202 A 
ATOM      8  N   UNL     1       1.622  -3.347   8.622  0.00  0.00    -0.233 NA
ATOM      9  C   UNL     1       0.970  -4.621  11.985  0.00  0.00    +0.153 C 
ATOM     10  N   UNL     1      -1.784  -2.669   8.304  0.00  0.00    -0.225 N 
ATOM     11  N   UNL     1      -1.425  -2.245   7.145  0.00  0.00    -0.159 NA
ENDROOT
BRANCH  10  12
ATOM     12  C   UNL     1      -3.100  -2.653   8.780  0.00  0.00    +0.066 A 
ATOM     13  C   UNL     1      -3.551  -3.670   9.612  0.00  0.00    +0.028 A 
ATOM     14  C   UNL     1      -4.850  -3.652  10.081  0.00  0.00    +0.005 A 
ATOM     15  C   UNL     1      -5.701  -2.623   9.722  0.00  0.00    -0.050 A 
ATOM     16  C   UNL     1      -5.255  -1.609   8.894  0.00  0.00    +0.005 A 
ATOM     17  C   UNL     1      -3.955  -1.618   8.427  0.00  0.00    +0.028 A 
ATOM     18  C   UNL     1      -7.118  -2.606  10.235  0.00  0.00    +0.044 C 
ENDBRANCH  10  12
BRANCH   1  20
ATOM     19  N   UNL     1       0.003  -1.470   4.694  0.00  0.00    -0.280 N 
ATOM     20  C   UNL     1       0.637  -2.012   5.753  0.00  0.00    +0.270 C 
ATOM     21  O   UNL     1       1.839  -2.195   5.713  0.00  0.00    -0.268 OA
ATOM     22  H   UNL     1      -0.941  -1.254   4.753  0.00  0.00    +0.155 HD
BRANCH  19  27
ATOM     23  C   UNL     1       1.064   0.115   1.552  0.00  0.00    -0.046 A 
ATOM     24  C   UNL     1       2.093  -0.725   1.169  0.00  0.00    +0.004 A 
ATOM     25  C   UNL     1       2.430  -1.812   1.954  0.00  0.00    +0.002 A 
ATOM     26  C   UNL     1       1.739  -2.062   3.124  0.00  0.00    +0.023 A 
ATOM     27  C   UNL     1       0.705  -1.220   3.511  0.00  0.00    +0.034 A 
ATOM     28  C   UNL     1       0.372  -0.126   2.723  0.00  0.00    +0.027 A 
BRANCH  23  30
ATOM     29  C   UNL     1       1.520   2.516   1.127  0.00  0.00    +0.009 C 
ATOM     30  C   UNL     1       0.700   1.299   0.693  0.00  0.00    +0.032 C 
ENDBRANCH  23  30
ENDBRANCH  19  27
ENDBRANCH   1  20
TORSDOF 4
