REMARK  Name = ZINC13896127
REMARK  2 active torsions:
REMARK  status: ('A' for Active; 'I' for Inactive)
REMARK    1  A    between atoms: C_3  and  N_8
REMARK    2  A    between atoms: C_10  and  C_20
REMARK                            x       y       z     vdW  Elec       q    Type
REMARK                         _______ _______ _______ _____ _____    ______ ____
ROOT
ATOM      1  N   UNL     1      -1.154   2.135   0.019  0.00  0.00    -0.212 NA
ATOM      2  C   UNL     1      -0.018   1.472   0.005  0.00  0.00    +0.233 A 
ATOM      3  C   UNL     1       0.003  -0.004   0.004  0.00  0.00    +0.099 A 
ATOM      4  C   UNL     1       1.107  -0.620  -0.571  0.00  0.00    +0.030 A 
ATOM      5  C   UNL     1       2.150   0.247  -1.123  0.00  0.00    +0.020 A 
ATOM      6  C   UNL     1       3.153  -0.276  -1.948  0.00  0.00    +0.031 A 
ATOM      7  C   UNL     1       4.120   0.562  -2.458  0.00  0.00    +0.042 A 
ATOM      8  C   UNL     1       4.104   1.918  -2.158  0.00  0.00    +0.023 A 
ATOM      9  C   UNL     1       3.122   2.447  -1.345  0.00  0.00    +0.048 A 
ATOM     10  C   UNL     1       2.139   1.621  -0.819  0.00  0.00    +0.138 A 
ATOM     11  O   UNL     1       1.172   2.126  -0.014  0.00  0.00    -0.437 OA
ATOM     12 CL   UNL     1       5.367  -0.080  -3.480  0.00  0.00    -0.084 Cl
ENDROOT
BRANCH   1  15
ATOM     13  C   UNL     1      -1.088   5.475   1.494  0.00  0.00    +0.003 A 
ATOM     14  C   UNL     1      -1.096   4.099   1.389  0.00  0.00    +0.028 A 
ATOM     15  C   UNL     1      -1.151   3.498   0.130  0.00  0.00    +0.069 A 
ATOM     16  C   UNL     1      -1.207   4.295  -1.016  0.00  0.00    +0.043 A 
ATOM     17  C   UNL     1      -1.203   5.670  -0.897  0.00  0.00    +0.020 A 
ATOM     18  C   UNL     1      -1.144   6.259   0.355  0.00  0.00    +0.015 A 
ATOM     19 BR   UNL     1      -1.279   6.751  -2.446  0.00  0.00    -0.050 Br
ENDBRANCH   1  15
BRANCH   3  20
ATOM     20  C   UNL     1      -1.099  -0.788   0.586  0.00  0.00    +0.247 C 
ATOM     21  O   UNL     1      -2.054  -0.221   1.082  0.00  0.00    -0.270 OA
ATOM     22  N   UNL     1      -1.050  -2.135   0.569  0.00  0.00    -0.325 N 
ATOM     23  H   UNL     1      -0.289  -2.588   0.173  0.00  0.00    +0.145 HD
ATOM     24  H   UNL     1      -1.776  -2.652   0.952  0.00  0.00    +0.145 HD
ENDBRANCH   3  20
TORSDOF 2
