REMARK  Name = ZINC39722706
REMARK  8 active torsions:
REMARK  status: ('A' for Active; 'I' for Inactive)
REMARK    1  A    between atoms: C_1  and  C_2
REMARK    2  A    between atoms: C_8  and  C_16
REMARK    3  A    between atoms: C_12  and  C_13
REMARK    4  A    between atoms: C_16  and  S_17
REMARK    5  A    between atoms: S_17  and  C_18
REMARK    6  A    between atoms: C_24  and  C_27
REMARK    7  A    between atoms: N_32  and  C_33
REMARK    8  A    between atoms: C_33  and  C_34
REMARK                            x       y       z     vdW  Elec       q    Type
REMARK                         _______ _______ _______ _____ _____    ______ ____
ROOT
ATOM      1  S   UNL     1       0.549  -4.852  -3.950  0.00  0.00    -0.083 S 
ENDROOT
BRANCH   1   2
ATOM      2  C   UNL     1       0.403  -5.868  -5.382  0.00  0.00    +0.160 C 
ATOM      3  N   UNL     1       0.265  -5.296  -6.563  0.00  0.00    -0.247 NA
ATOM      4  C   UNL     1       0.181  -6.206  -7.692  0.00  0.00    +0.185 C 
ATOM      5  C   UNL     1       1.334  -7.237  -7.451  0.00  0.00    +0.137 C 
ATOM      6  C   UNL     1       1.714  -7.868  -8.723  0.00  0.00    -0.046 C 
ATOM      7  C   UNL     1       1.571  -7.127  -9.833  0.00  0.00    +0.043 C 
ATOM      8  S   UNL     1       0.839  -5.545  -9.271  0.00  0.00    -0.105 S 
ATOM      9  C   UNL     1       0.962  -8.018  -6.244  0.00  0.00    +0.232 C 
ATOM     10  O   UNL     1       1.109  -9.219  -6.156  0.00  0.00    -0.274 OA
ATOM     11  N   UNL     1       0.441  -7.247  -5.238  0.00  0.00    -0.247 N 
BRANCH   6  12
ATOM     12  C   UNL     1       2.240  -9.280  -8.778  0.00  0.00    +0.016 C 
ATOM     13  C   UNL     1       1.862 -10.127  -9.995  0.00  0.00    +0.008 C 
ATOM     14  C   UNL     1       1.226 -10.417  -8.634  0.00  0.00    +0.008 C 
ENDBRANCH   6  12
BRANCH  11  15
ATOM     15  C   UNL     1      -0.076  -7.877  -4.021  0.00  0.00    +0.142 C 
BRANCH  15  16
ATOM     16  C   UNL     1      -1.539  -8.191  -4.200  0.00  0.00    -0.015 C 
ATOM     17  C   UNL     1      -1.974  -9.413  -4.016  0.00  0.00    +0.005 C 
ENDBRANCH  15  16
ENDBRANCH  11  15
ENDBRANCH   1   2
BRANCH   1  18
ATOM     18  C   UNL     1       0.449  -3.161  -4.599  0.00  0.00    +0.151 C 
BRANCH  18  26
ATOM     19  C   UNL     1       0.865   1.841  -0.232  0.00  0.00    +0.046 C 
ATOM     20  C   UNL     1       0.894   0.335  -0.183  0.00  0.00    -0.015 A 
ATOM     21  C   UNL     1       0.772  -0.408  -1.357  0.00  0.00    +0.076 A 
ATOM     22  C   UNL     1       0.607   0.067  -2.750  0.00  0.00    +0.260 A 
ATOM     23  O   UNL     1       0.560   1.258  -3.003  0.00  0.00    -0.267 OA
ATOM     24  N   UNL     1       0.511  -0.852  -3.731  0.00  0.00    -0.310 N 
ATOM     25  H   UNL     1       0.403  -0.557  -4.649  0.00  0.00    +0.170 HD
ATOM     26  C   UNL     1       0.562  -2.179  -3.461  0.00  0.00    +0.121 A 
ATOM     27  N   UNL     1       0.707  -2.632  -2.246  0.00  0.00    -0.226 NA
ATOM     28  C   UNL     1       0.812  -1.814  -1.206  0.00  0.00    +0.116 A 
ATOM     29  S   UNL     1       1.013  -2.036   0.544  0.00  0.00    -0.062 S 
ATOM     30  C   UNL     1       1.046  -0.316   1.021  0.00  0.00    +0.106 A 
BRANCH  30  31
ATOM     31  C   UNL     1       1.190   0.240   2.317  0.00  0.00    +0.393 C 
ATOM     32  O   UNL     1       1.189   1.456   2.465  0.00  0.00    -0.240 OA
ATOM     33  O   UNL     1       1.317  -0.495   3.289  0.00  0.00    -0.240 OA
ENDBRANCH  30  31
ENDBRANCH  18  26
ENDBRANCH   1  18
TORSDOF 7
