REMARK  Name = ZINC03650415
REMARK  9 active torsions:
REMARK  status: ('A' for Active; 'I' for Inactive)
REMARK    1  A    between atoms: C_1  and  C_2
REMARK    2  A    between atoms: C_4  and  N_11
REMARK    3  A    between atoms: C_5  and  O_9
REMARK    4  A    between atoms: O_9  and  C_10
REMARK    5  A    between atoms: C_12  and  C_14
REMARK    6  A    between atoms: C_14  and  N_15
REMARK    7  A    between atoms: C_22  and  S_26
REMARK    8  A    between atoms: C_23  and  C_25
REMARK    9  A    between atoms: S_26  and  N_29
REMARK                            x       y       z     vdW  Elec       q    Type
REMARK                         _______ _______ _______ _____ _____    ______ ____
ROOT
ATOM      1  N   UNL     1      -0.423  -1.829  -5.983  0.00  0.00    -0.290 N 
ATOM      2  C   UNL     1      -1.635  -1.381  -6.401  0.00  0.00    +0.203 A 
ATOM      3  N   UNL     1      -1.739  -0.543  -7.397  0.00  0.00    -0.230 NA
ATOM      4  C   UNL     1      -0.660  -0.099  -8.035  0.00  0.00    +0.117 A 
ATOM      5  C   UNL     1       0.637  -0.506  -7.675  0.00  0.00    +0.099 A 
ATOM      6  C   UNL     1       0.716  -1.422  -6.575  0.00  0.00    +0.264 A 
ATOM      7  O   UNL     1       1.796  -1.830  -6.185  0.00  0.00    -0.267 OA
ATOM      8  C   UNL     1       1.704   0.070  -8.471  0.00  0.00    +0.130 A 
ATOM      9  C   UNL     1       1.396   0.922  -9.462  0.00  0.00    +0.016 A 
ATOM     10  S   UNL     1      -0.384   1.009  -9.392  0.00  0.00    -0.072 S 
ATOM     11  C   UNL     1       2.330   1.633 -10.407  0.00  0.00    +0.053 C 
ENDROOT
BRANCH   8  12
ATOM     12  S   UNL     1       3.385  -0.342  -8.141  0.00  0.00    +0.062 S 
ATOM     13  O   UNL     1       3.384  -1.662  -7.613  0.00  0.00    -0.153 OA
ATOM     14  O   UNL     1       4.126   0.014  -9.300  0.00  0.00    -0.153 OA
BRANCH  12  15
ATOM     15  N   UNL     1       3.903   0.654  -6.923  0.00  0.00    -0.177 NA
ATOM     16  C   UNL     1       4.509   1.957  -7.228  0.00  0.00    +0.109 C 
ATOM     17  C   UNL     1       3.760   3.043  -6.449  0.00  0.00    +0.017 C 
ATOM     18  C   UNL     1       3.755   2.686  -4.961  0.00  0.00    +0.003 C 
ATOM     19  C   UNL     1       3.026   1.355  -4.757  0.00  0.00    +0.017 C 
ATOM     20  C   UNL     1       3.761   0.253  -5.517  0.00  0.00    +0.109 C 
ENDBRANCH  12  15
ENDBRANCH   8  12
BRANCH   1  21
ATOM     21  C   UNL     1      -0.352  -2.769  -4.862  0.00  0.00    +0.222 C 
BRANCH  21  23
ATOM     22  N   UNL     1      -0.167  -2.664  -2.398  0.00  0.00    -0.281 N 
ATOM     23  C   UNL     1      -0.245  -2.002  -3.569  0.00  0.00    +0.237 C 
ATOM     24  O   UNL     1      -0.229  -0.789  -3.583  0.00  0.00    -0.274 OA
ATOM     25  H   UNL     1      -0.096  -3.631  -2.391  0.00  0.00    +0.155 HD
BRANCH  22  29
ATOM     26  C   UNL     1      -1.447   1.357   0.128  0.00  0.00    +0.045 C 
ATOM     27  C   UNL     1      -0.802  -0.004   0.064  0.00  0.00    -0.030 A 
ATOM     28  C   UNL     1      -0.781  -0.702  -1.129  0.00  0.00    +0.031 A 
ATOM     29  C   UNL     1      -0.188  -1.954  -1.189  0.00  0.00    +0.076 A 
ATOM     30  C   UNL     1       0.387  -2.505  -0.046  0.00  0.00    +0.143 A 
ATOM     31  C   UNL     1       0.363  -1.799   1.146  0.00  0.00    +0.067 A 
ATOM     32  C   UNL     1      -0.226  -0.548   1.198  0.00  0.00    +0.047 A 
ATOM     33 CL   UNL     1      -0.249   0.337   2.691  0.00  0.00    -0.083 Cl
BRANCH  30  34
ATOM     34  O   UNL     1       0.970  -3.732  -0.100  0.00  0.00    -0.493 OA
ATOM     35  C   UNL     1       1.540  -4.233   1.111  0.00  0.00    +0.277 C 
ENDBRANCH  30  34
ENDBRANCH  22  29
ENDBRANCH  21  23
ENDBRANCH   1  21
TORSDOF 6
