REMARK  Name = ZINC20193835
REMARK  12 active torsions:
REMARK  status: ('A' for Active; 'I' for Inactive)
REMARK    1  A    between atoms: C_1  and  N_2
REMARK    2  A    between atoms: C_3  and  C_21
REMARK    3  A    between atoms: C_6  and  S_7
REMARK    4  A    between atoms: S_7  and  C_8
REMARK    5  A    between atoms: C_8  and  C_9
REMARK    6  A    between atoms: N_11  and  C_12
REMARK    7  A    between atoms: C_15  and  O_19
REMARK    8  A    between atoms: O_19  and  C_20
REMARK    9  A    between atoms: C_21  and  N_22
REMARK   10  A    between atoms: N_22  and  C_23
REMARK   11  A    between atoms: N_22  and  S_30
REMARK   12  A    between atoms: S_30  and  C_33
REMARK                            x       y       z     vdW  Elec       q    Type
REMARK                         _______ _______ _______ _____ _____    ______ ____
ROOT
ATOM      1  C   UNL     1       5.013  -0.422  -0.393  0.00  0.00    +0.152 C 
ATOM      2  N   UNL     1       4.862  -1.649   0.393  0.00  0.00    -0.308 N 
ATOM      3  C   UNL     1       3.849  -2.564   0.308  0.00  0.00    +0.153 A 
ATOM      4  N   UNL     1       4.101  -3.503   1.176  0.00  0.00    -0.132 NA
ATOM      5  N   UNL     1       5.193  -3.244   1.802  0.00  0.00    -0.122 NA
ATOM      6  C   UNL     1       5.701  -2.116   1.364  0.00  0.00    +0.192 A 
ENDROOT
BRANCH   6   7
ATOM      7  S   UNL     1       7.189  -1.351   1.919  0.00  0.00    -0.077 S 
BRANCH   7   8
ATOM      8  C   UNL     1       7.708  -2.548   3.174  0.00  0.00    +0.173 C 
BRANCH   8   9
ATOM      9  C   UNL     1       8.998  -2.088   3.803  0.00  0.00    +0.227 C 
ATOM     10  O   UNL     1       9.515  -1.053   3.438  0.00  0.00    -0.275 OA
ATOM     11  N   UNL     1       9.576  -2.827   4.770  0.00  0.00    -0.285 N 
ATOM     12  H   UNL     1       9.156  -3.807   5.040  0.00  0.00    +0.155 HD
BRANCH  11  13
ATOM     13  C   UNL     1      10.714  -2.347   5.432  0.00  0.00    +0.035 A 
ATOM     14  C   UNL     1      11.688  -3.234   5.871  0.00  0.00    +0.027 A 
ATOM     15  C   UNL     1      12.812  -2.760   6.519  0.00  0.00    +0.049 A 
ATOM     16  C   UNL     1      12.963  -1.399   6.742  0.00  0.00    +0.138 A 
ATOM     17  C   UNL     1      11.987  -0.512   6.309  0.00  0.00    +0.084 A 
ATOM     18  C   UNL     1      10.865  -0.985   5.655  0.00  0.00    +0.047 A 
ATOM     19 CL   UNL     1      12.176   1.191   6.587  0.00  0.00    -0.080 Cl
BRANCH  16  20
ATOM     20  O   UNL     1      14.067  -0.934   7.385  0.00  0.00    -0.494 OA
ATOM     21  C   UNL     1      15.031  -1.903   7.803  0.00  0.00    +0.277 C 
ENDBRANCH  16  20
ENDBRANCH  11  13
ENDBRANCH   8   9
ENDBRANCH   7   8
ENDBRANCH   6   7
BRANCH   3  22
ATOM     22  C   UNL     1       2.665  -2.502  -0.622  0.00  0.00    +0.207 C 
BRANCH  22  23
ATOM     23  N   UNL     1       1.525  -1.904   0.079  0.00  0.00    -0.200 N 
BRANCH  23  24
ATOM     24  C   UNL     1       0.714  -2.696   0.898  0.00  0.00    +0.052 A 
ATOM     25  C   UNL     1       0.005  -2.118   1.942  0.00  0.00    +0.027 A 
ATOM     26  C   UNL     1      -0.796  -2.903   2.749  0.00  0.00    +0.040 A 
ATOM     27  C   UNL     1      -0.891  -4.265   2.518  0.00  0.00    +0.124 A 
ATOM     28  C   UNL     1      -0.184  -4.843   1.477  0.00  0.00    +0.040 A 
ATOM     29  C   UNL     1       0.617  -4.063   0.667  0.00  0.00    +0.027 A 
ATOM     30  F   UNL     1      -1.675  -5.030   3.308  0.00  0.00    -0.205 F 
ENDBRANCH  23  24
BRANCH  23  31
ATOM     31  S   UNL     1       1.197  -0.291  -0.099  0.00  0.00    +0.043 S 
ATOM     32  O   UNL     1       1.857   0.083  -1.301  0.00  0.00    -0.155 OA
ATOM     33  O   UNL     1      -0.216  -0.194   0.013  0.00  0.00    -0.155 OA
ATOM     34  C   UNL     1       1.993   0.506   1.324  0.00  0.00    +0.218 C 
ENDBRANCH  23  31
ENDBRANCH  22  23
ENDBRANCH   3  22
TORSDOF 9
