REMARK  Name = ZINC60368448
REMARK  8 active torsions:
REMARK  status: ('A' for Active; 'I' for Inactive)
REMARK    1  A    between atoms: C_1  and  C_2
REMARK    2  A    between atoms: N_5  and  C_11
REMARK    3  A    between atoms: C_7  and  C_10
REMARK    4  A    between atoms: C_11  and  C_12
REMARK    5  A    between atoms: N_15  and  C_18
REMARK    6  A    between atoms: C_18  and  C_19
REMARK    7  A    between atoms: N_21  and  C_22
REMARK    8  A    between atoms: C_22  and  C_27
REMARK                            x       y       z     vdW  Elec       q    Type
REMARK                         _______ _______ _______ _____ _____    ______ ____
ROOT
ATOM      1  C   UNL     1       9.179   1.010  -4.212  0.00  0.00    +0.197 C 
ATOM      2  O   UNL     1       8.461   0.172  -4.714  0.00  0.00    -0.278 OA
ATOM      3  N   UNL     1      10.359   1.318  -4.785  0.00  0.00    -0.307 N 
ATOM      4  H   UNL     1      10.966   1.934  -4.346  0.00  0.00    +0.149 HD
ENDROOT
BRANCH   3   5
ATOM      5  C   UNL     1      10.725   0.723  -6.073  0.00  0.00    +0.060 C 
ATOM      6  C   UNL     1      12.175   1.102  -6.438  0.00  0.00    +0.030 C 
ATOM      7  C   UNL     1      13.017  -0.102  -5.948  0.00  0.00    +0.002 C 
ATOM      8  C   UNL     1      12.110  -1.312  -6.283  0.00  0.00    +0.002 C 
ATOM      9  C   UNL     1      10.684  -0.812  -5.974  0.00  0.00    +0.030 C 
BRANCH   5  10
ATOM     10  C   UNL     1       9.780   1.197  -7.147  0.00  0.00    -0.020 A 
ATOM     11  C   UNL     1       9.667   0.487  -8.328  0.00  0.00    +0.009 A 
ATOM     12  C   UNL     1       8.803   0.919  -9.317  0.00  0.00    +0.050 A 
ATOM     13  C   UNL     1       8.047   2.066  -9.126  0.00  0.00    +0.162 A 
ATOM     14  C   UNL     1       8.159   2.778  -7.938  0.00  0.00    +0.162 A 
ATOM     15  C   UNL     1       9.025   2.337  -6.949  0.00  0.00    +0.055 A 
ATOM     16  O   UNL     1       7.421   3.902  -7.727  0.00  0.00    -0.485 OA
ATOM     17  C   UNL     1       6.840   4.516  -8.882  0.00  0.00    +0.270 C 
ATOM     18  C   UNL     1       6.188   3.419  -9.734  0.00  0.00    +0.270 C 
ATOM     19  O   UNL     1       7.203   2.482 -10.110  0.00  0.00    -0.485 OA
ENDBRANCH   5  10
ENDBRANCH   3   5
BRANCH   1  20
ATOM     20  C   UNL     1       8.752   1.707  -2.945  0.00  0.00    +0.019 C 
BRANCH  20  24
ATOM     21  C   UNL     1       4.659   1.513  -1.775  0.00  0.00    -0.000 C 
ATOM     22  C   UNL     1       5.752   1.200  -0.749  0.00  0.00    -0.014 C 
ATOM     23  C   UNL     1       7.080   1.788  -1.230  0.00  0.00    -0.078 C 
ATOM     24  N   UNL     1       7.440   1.198  -2.525  0.00  0.00    +0.385 N 
ATOM     25  C   UNL     1       6.433   1.554  -3.532  0.00  0.00    -0.078 C 
ATOM     26  C   UNL     1       5.080   0.957  -3.139  0.00  0.00    -0.014 C 
ATOM     27  H   UNL     1       7.484   0.194  -2.434  0.00  0.00    -0.081 HD
BRANCH  21  28
ATOM     28  C   UNL     1       3.346   0.860  -1.340  0.00  0.00    +0.088 C 
BRANCH  28  32
ATOM     29  C   UNL     1       3.216   3.537   1.960  0.00  0.00    +0.039 C 
ATOM     30  C   UNL     1       1.960   3.370   1.102  0.00  0.00    +0.130 C 
ATOM     31  C   UNL     1       2.343   2.781  -0.258  0.00  0.00    +0.115 C 
ATOM     32  N   UNL     1       2.912   1.440  -0.062  0.00  0.00    -0.297 NA
ATOM     33  C   UNL     1       1.948   0.559   0.615  0.00  0.00    +0.115 C 
ATOM     34  C   UNL     1       1.568   1.171   1.966  0.00  0.00    +0.130 C 
ATOM     35  O   UNL     1       1.046   2.487   1.759  0.00  0.00    -0.371 OA
ATOM     36  C   UNL     1       0.506   0.300   2.641  0.00  0.00    +0.039 C 
ENDBRANCH  28  32
ENDBRANCH  21  28
ENDBRANCH  20  24
ENDBRANCH   1  20
TORSDOF 6
