REMARK  Name = ZINC03533246
REMARK  5 active torsions:
REMARK  status: ('A' for Active; 'I' for Inactive)
REMARK    1  A    between atoms: N_13  and  C_16
REMARK    2  A    between atoms: C_19  and  C_22
REMARK    3  A    between atoms: C_22  and  O_24
REMARK    4  A    between atoms: O_24  and  C_25
REMARK    5  A    between atoms: C_25  and  C_26
REMARK                            x       y       z     vdW  Elec       q    Type
REMARK                         _______ _______ _______ _____ _____    ______ ____
ROOT
ATOM      1  C   UNL     1      -1.227   1.754   0.017  0.00  0.00    +0.045 A 
ATOM      2  C   UNL     1      -0.068   1.170   0.518  0.00  0.00    +0.025 A 
ATOM      3  C   UNL     1       1.116   1.871   0.513  0.00  0.00    +0.017 A 
ATOM      4  C   UNL     1       1.152   3.175   0.009  0.00  0.00    +0.059 A 
ATOM      5  C   UNL     1      -0.015   3.761  -0.488  0.00  0.00    +0.017 A 
ATOM      6  C   UNL     1      -1.196   3.053  -0.480  0.00  0.00    +0.025 A 
ENDROOT
BRANCH   1  19
ATOM      7  C   UNL     1      -6.554  -0.270   2.205  0.00  0.00    +0.001 A 
ATOM      8  C   UNL     1      -6.910  -1.050   1.142  0.00  0.00    +0.008 A 
ATOM      9  C   UNL     1      -6.064  -1.141   0.022  0.00  0.00    -0.016 A 
ATOM     10  C   UNL     1      -6.385  -1.930  -1.096  0.00  0.00    +0.008 A 
ATOM     11  C   UNL     1      -5.532  -1.986  -2.160  0.00  0.00    +0.001 A 
ATOM     12  C   UNL     1      -4.336  -1.277  -2.173  0.00  0.00    +0.014 A 
ATOM     13  C   UNL     1      -3.982  -0.487  -1.089  0.00  0.00    +0.046 A 
ATOM     14  C   UNL     1      -4.854  -0.416   0.021  0.00  0.00    +0.006 A 
ATOM     15  C   UNL     1      -4.503   0.386   1.131  0.00  0.00    +0.046 A 
ATOM     16  C   UNL     1      -5.364   0.448   2.216  0.00  0.00    +0.014 A 
ATOM     17  C   UNL     1      -3.233   1.126   1.093  0.00  0.00    +0.258 C 
ATOM     18  O   UNL     1      -2.910   1.822   2.036  0.00  0.00    -0.269 OA
ATOM     19  N   UNL     1      -2.425   1.037   0.019  0.00  0.00    -0.202 N 
ATOM     20  C   UNL     1      -2.733   0.286  -1.056  0.00  0.00    +0.258 C 
ATOM     21  O   UNL     1      -1.971   0.245  -2.003  0.00  0.00    -0.269 OA
ENDBRANCH   1  19
BRANCH   4  22
ATOM     22  C   UNL     1       2.419   3.930   0.001  0.00  0.00    +0.340 C 
ATOM     23  O   UNL     1       3.434   3.419   0.433  0.00  0.00    -0.245 OA
BRANCH  22  24
ATOM     24  O   UNL     1       2.452   5.186  -0.485  0.00  0.00    -0.455 OA
BRANCH  24  25
ATOM     25  C   UNL     1       3.733   5.869  -0.462  0.00  0.00    +0.288 C 
BRANCH  25  26
ATOM     26  C   UNL     1       3.577   7.251  -1.041  0.00  0.00    +0.087 A 
ATOM     27  C   UNL     1       3.763   8.367  -0.253  0.00  0.00    +0.097 A 
ATOM     28  C   UNL     1       3.618   9.639  -0.808  0.00  0.00    +0.259 A 
ATOM     29  O   UNL     1       3.786  10.630  -0.116  0.00  0.00    -0.267 OA
ATOM     30  N   UNL     1       3.283   9.773  -2.126  0.00  0.00    -0.262 N 
ATOM     31  C   UNL     1       3.099  10.950  -2.812  0.00  0.00    +0.104 A 
ATOM     32  C   UNL     1       2.771  10.949  -4.103  0.00  0.00    +0.067 A 
ATOM     33  S   UNL     1       2.694   9.201  -4.461  0.00  0.00    -0.058 S 
ATOM     34  C   UNL     1       3.112   8.613  -2.834  0.00  0.00    +0.180 A 
ATOM     35  N   UNL     1       3.251   7.416  -2.320  0.00  0.00    -0.224 NA
ENDBRANCH  25  26
ENDBRANCH  24  25
ENDBRANCH  22  24
ENDBRANCH   4  22
TORSDOF 5
