REMARK  Name = ZINC20607896
REMARK  6 active torsions:
REMARK  status: ('A' for Active; 'I' for Inactive)
REMARK    1  A    between atoms: C_1  and  C_2
REMARK    2  A    between atoms: C_2  and  N_3
REMARK    3  A    between atoms: C_4  and  C_25
REMARK    4  A    between atoms: C_5  and  C_8
REMARK    5  A    between atoms: C_21  and  S_23
REMARK    6  A    between atoms: S_23  and  C_24
REMARK                            x       y       z     vdW  Elec       q    Type
REMARK                         _______ _______ _______ _____ _____    ______ ____
ROOT
ATOM      1  C   UNL     1       1.698  -1.809  -0.039  0.00  0.00    +0.179 C 
ATOM      2  C   UNL     1       0.519  -2.692   0.305  0.00  0.00    +0.041 C 
ATOM      3  C   UNL     1      -0.749  -2.227   0.305  0.00  0.00    +0.020 C 
ATOM      4  C   UNL     1      -1.909  -3.140   0.626  0.00  0.00    +0.052 C 
ATOM      5  C   UNL     1      -1.459  -4.212   1.621  0.00  0.00    +0.014 C 
ATOM      6  C   UNL     1      -0.300  -4.994   0.996  0.00  0.00    +0.080 C 
ATOM      7  C   UNL     1       0.795  -4.033   0.626  0.00  0.00    +0.163 C 
ATOM      8  O   UNL     1       1.946  -4.424   0.603  0.00  0.00    -0.292 OA
ATOM      9  N   UNL     1      -1.040  -0.916   0.013  0.00  0.00    -0.287 N 
ATOM     10  C   UNL     1       0.002  -0.004   0.002  0.00  0.00    +0.219 A 
ATOM     11  N   UNL     1       1.296  -0.408  -0.018  0.00  0.00    -0.220 N 
ATOM     12  N   UNL     1       2.075   0.748  -0.015  0.00  0.00    -0.141 NA
ATOM     13  C   UNL     1       1.242   1.766  -0.000  0.00  0.00    +0.210 A 
ATOM     14  N   UNL     1      -0.016   1.301   0.009  0.00  0.00    -0.187 NA
ATOM     15  H   UNL     1      -2.077  -0.618  -0.203  0.00  0.00    +0.155 HD
ENDROOT
BRANCH   1  18
ATOM     16  N   UNL     1       3.498  -2.807  -3.050  0.00  0.00    -0.269 N 
ATOM     17  C   UNL     1       3.446  -2.605  -1.717  0.00  0.00    +0.042 A 
ATOM     18  C   UNL     1       2.203  -2.163  -1.414  0.00  0.00    +0.022 A 
ATOM     19  C   UNL     1       1.468  -2.099  -2.603  0.00  0.00    +0.140 A 
ATOM     20  N   UNL     1       2.245  -2.479  -3.584  0.00  0.00    -0.179 NA
ATOM     21  C   UNL     1       4.571  -2.829  -0.740  0.00  0.00    +0.065 C 
BRANCH  16  23
ATOM     22  C   UNL     1       4.626  -4.813  -3.878  0.00  0.00    +0.029 C 
ATOM     23  C   UNL     1       4.658  -3.285  -3.805  0.00  0.00    +0.140 C 
ENDBRANCH  16  23
ENDBRANCH   1  18
BRANCH  13  24
ATOM     24  S   UNL     1       1.704   3.466   0.006  0.00  0.00    -0.088 S 
ATOM     25  C   UNL     1       0.121   4.351   0.029  0.00  0.00    +0.093 C 
ENDBRANCH  13  24
TORSDOF 3
