REMARK  Name = ZINC36207278
REMARK  19 active torsions:
REMARK  status: ('A' for Active; 'I' for Inactive)
REMARK    1  A    between atoms: C_1  and  C_2
REMARK    2  A    between atoms: C_2  and  O_3
REMARK    3  A    between atoms: O_3  and  C_4
REMARK    4  A    between atoms: C_4  and  C_6
REMARK    5  A    between atoms: C_7  and  C_31
REMARK    6  A    between atoms: C_13  and  C_17
REMARK    7  A    between atoms: C_17  and  N_18
REMARK    8  A    between atoms: N_18  and  C_19
REMARK    9  A    between atoms: N_18  and  C_27
REMARK   10  A    between atoms: C_19  and  C_20
REMARK   11  A    between atoms: C_20  and  C_22
REMARK   12  A    between atoms: C_20  and  O_26
REMARK   13  A    between atoms: C_22  and  C_23
REMARK   14  A    between atoms: C_23  and  C_24
REMARK   15  A    between atoms: C_27  and  C_28
REMARK   16  A    between atoms: C_28  and  C_29
REMARK   17  A    between atoms: C_28  and  C_30
REMARK   18  A    between atoms: C_31  and  C_32
REMARK   19  A    between atoms: C_31  and  C_33
REMARK                            x       y       z     vdW  Elec       q    Type
REMARK                         _______ _______ _______ _____ _____    ______ ____
ROOT
ATOM      1  C   UNL     1       1.335  -2.702  -2.636  0.00  0.00    +0.102 A 
ATOM      2  C   UNL     1       1.158  -4.055  -2.679  0.00  0.00    -0.009 A 
ATOM      3  C   UNL     1       1.562  -4.773  -3.806  0.00  0.00    +0.076 A 
ATOM      4  C   UNL     1       1.471  -6.227  -4.071  0.00  0.00    +0.260 A 
ATOM      5  O   UNL     1       0.990  -6.984  -3.247  0.00  0.00    -0.267 OA
ATOM      6  N   UNL     1       1.935  -6.692  -5.248  0.00  0.00    -0.312 N 
ATOM      7  H   UNL     1       1.883  -7.641  -5.437  0.00  0.00    +0.170 HD
ATOM      8  C   UNL     1       2.473  -5.859  -6.173  0.00  0.00    +0.094 A 
ATOM      9  N   UNL     1       2.567  -4.572  -5.971  0.00  0.00    -0.229 NA
ATOM     10  C   UNL     1       2.142  -4.011  -4.846  0.00  0.00    +0.116 A 
ATOM     11  S   UNL     1       2.089  -2.353  -4.216  0.00  0.00    -0.062 S 
ENDROOT
BRANCH   2  12
ATOM     12  C   UNL     1       0.528  -4.772  -1.512  0.00  0.00    +0.015 C 
ATOM     13  C   UNL     1      -0.759  -5.459  -1.970  0.00  0.00    +0.012 C 
ATOM     14  C   UNL     1       1.502  -5.821  -0.972  0.00  0.00    +0.012 C 
ENDBRANCH   2  12
BRANCH   1  15
ATOM     15  C   UNL     1       0.986  -1.768  -1.563  0.00  0.00    +0.346 C 
ATOM     16  O   UNL     1       0.370  -2.161  -0.591  0.00  0.00    -0.244 OA
BRANCH  15  17
ATOM     17  O   UNL     1       1.349  -0.472  -1.653  0.00  0.00    -0.461 OA
BRANCH  17  19
ATOM     18  C   UNL     1       1.470   1.804  -0.849  0.00  0.00    +0.048 C 
ATOM     19  C   UNL     1       0.976   0.383  -0.570  0.00  0.00    +0.229 C 
ENDBRANCH  17  19
ENDBRANCH  15  17
ENDBRANCH   1  15
BRANCH   8  20
ATOM     20  C   UNL     1       2.975  -6.434  -7.471  0.00  0.00    -0.003 C 
BRANCH  20  21
ATOM     21  N   UNL     1       3.510  -5.354  -8.311  0.00  0.00    +0.386 N 
ATOM     22  H   UNL     1       2.812  -4.633  -8.416  0.00  0.00    -0.081 HD
BRANCH  21  23
ATOM     23  C   UNL     1       3.862  -5.891  -9.633  0.00  0.00    -0.047 C 
BRANCH  23  24
ATOM     24  C   UNL     1       2.590  -6.323 -10.364  0.00  0.00    +0.098 C 
BRANCH  24  25
ATOM     25  O   UNL     1       2.006  -7.438  -9.686  0.00  0.00    -0.394 OA
ATOM     26  H   UNL     1       2.583  -8.212  -9.634  0.00  0.00    +0.210 HD
ENDBRANCH  24  25
BRANCH  24  27
ATOM     27  C   UNL     1       2.937  -6.723 -11.799  0.00  0.00    +0.033 C 
BRANCH  27  28
ATOM     28  C   UNL     1       1.650  -7.036 -12.566  0.00  0.00    +0.029 C 
BRANCH  28  29
ATOM     29  C   UNL     1       1.992  -7.431 -13.980  0.00  0.00    -0.034 C 
ATOM     30  C   UNL     1       1.568  -8.572 -14.462  0.00  0.00    +0.004 C 
ENDBRANCH  28  29
ENDBRANCH  27  28
ENDBRANCH  24  27
ENDBRANCH  23  24
ENDBRANCH  21  23
BRANCH  21  31
ATOM     31  C   UNL     1       4.708  -4.788  -7.677  0.00  0.00    -0.075 C 
BRANCH  31  32
ATOM     32  C   UNL     1       5.169  -3.560  -8.464  0.00  0.00    -0.034 C 
ATOM     33  C   UNL     1       4.090  -2.477  -8.397  0.00  0.00    +0.005 C 
ATOM     34  C   UNL     1       6.468  -3.024  -7.857  0.00  0.00    +0.005 C 
ENDBRANCH  31  32
ENDBRANCH  21  31
ENDBRANCH  20  21
ENDBRANCH   8  20
TORSDOF 14
