REMARK  Name = ZINC40151337
REMARK  10 active torsions:
REMARK  status: ('A' for Active; 'I' for Inactive)
REMARK    1  A    between atoms: C_3  and  N_33
REMARK    2  A    between atoms: C_6  and  C_7
REMARK    3  A    between atoms: N_9  and  N_10
REMARK    4  A    between atoms: C_11  and  C_12
REMARK    5  A    between atoms: C_11  and  C_25
REMARK    6  A    between atoms: C_25  and  C_27
REMARK    7  A    between atoms: C_25  and  O_32
REMARK    8  A    between atoms: C_27  and  C_29
REMARK    9  A    between atoms: C_27  and  O_31
REMARK   10  A    between atoms: C_29  and  O_30
REMARK                            x       y       z     vdW  Elec       q    Type
REMARK                         _______ _______ _______ _____ _____    ______ ____
ROOT
ATOM      1  N   UNL     1      -2.955  -2.685  -0.032  0.00  0.00    -0.184 NA
ATOM      2  C   UNL     1      -2.721  -3.941   0.043  0.00  0.00    +0.099 C 
ENDROOT
BRANCH   2   3
ATOM      3  C   UNL     1      -1.376  -4.430   0.517  0.00  0.00    +0.215 C 
ATOM      4  C   UNL     1      -0.538  -4.729  -0.704  0.00  0.00    +0.245 C 
ATOM      5  O   UNL     1      -0.317  -3.862  -1.526  0.00  0.00    -0.273 OA
ATOM      6  N   UNL     1      -0.043  -5.958  -0.867  0.00  0.00    -0.282 N 
ATOM      7  C   UNL     1      -0.268  -6.918   0.013  0.00  0.00    +0.057 A 
ATOM      8  C   UNL     1       0.272  -8.209  -0.191  0.00  0.00    +0.027 A 
ATOM      9  C   UNL     1       0.044  -9.196   0.706  0.00  0.00    +0.022 A 
ATOM     10  C   UNL     1      -0.724  -9.006   1.867  0.00  0.00    +0.043 A 
ATOM     11  C   UNL     1      -1.286  -7.811   2.159  0.00  0.00    +0.047 A 
ATOM     12  C   UNL     1      -1.084  -6.686   1.232  0.00  0.00    +0.059 A 
ATOM     13  N   UNL     1      -1.608  -5.521   1.477  0.00  0.00    -0.368 N 
ATOM     14 CL   UNL     1      -0.958 -10.338   2.955  0.00  0.00    -0.083 Cl
ATOM     15  H   UNL     1       0.495  -6.151  -1.651  0.00  0.00    +0.155 HD
ATOM     16  H   UNL     1      -2.141  -5.375   2.275  0.00  0.00    +0.161 HD
ENDBRANCH   2   3
BRANCH   1  19
ATOM     17  C   UNL     1      -2.189  -0.442   0.192  0.00  0.00    +0.263 C 
ATOM     18  O   UNL     1      -3.325  -0.048   0.011  0.00  0.00    -0.268 OA
ATOM     19  N   UNL     1      -1.934  -1.764   0.239  0.00  0.00    -0.203 N 
ATOM     20  H   UNL     1      -1.044  -2.079   0.462  0.00  0.00    +0.178 HD
BRANCH  17  26
ATOM     21  C   UNL     1      -1.327   1.895   0.196  0.00  0.00    +0.015 A 
ATOM     22  C   UNL     1      -0.295   2.797   0.354  0.00  0.00    +0.033 A 
ATOM     23  C   UNL     1       0.975   2.350   0.672  0.00  0.00    +0.126 A 
ATOM     24  C   UNL     1       1.219   0.998   0.834  0.00  0.00    +0.033 A 
ATOM     25  C   UNL     1       0.196   0.086   0.679  0.00  0.00    +0.015 A 
ATOM     26  C   UNL     1      -1.088   0.530   0.359  0.00  0.00    +0.038 A 
BRANCH  23  27
ATOM     27  N   UNL     1       2.078   3.323   0.840  0.00  0.00    +0.056 N 
ATOM     28  O   UNL     1       1.868   4.505   0.699  0.00  0.00    -0.126 OA
ATOM     29  O   UNL     1       3.189   2.935   1.118  0.00  0.00    -0.126 OA
ENDBRANCH  23  27
ENDBRANCH  17  26
ENDBRANCH   1  19
BRANCH   2  30
ATOM     30  C   UNL     1      -3.789  -4.931  -0.342  0.00  0.00    +0.193 C 
BRANCH  30  31
ATOM     31  O   UNL     1      -4.178  -5.684   0.809  0.00  0.00    -0.383 OA
ATOM     32  H   UNL     1      -3.500  -6.295   1.127  0.00  0.00    +0.210 HD
ENDBRANCH  30  31
BRANCH  30  33
ATOM     33  C   UNL     1      -5.003  -4.182  -0.895  0.00  0.00    +0.174 C 
BRANCH  33  34
ATOM     34  O   UNL     1      -5.441  -3.214   0.060  0.00  0.00    -0.387 OA
ATOM     35  H   UNL     1      -5.703  -3.591   0.911  0.00  0.00    +0.210 HD
ENDBRANCH  33  34
BRANCH  33  36
ATOM     36  C   UNL     1      -6.134  -5.176  -1.170  0.00  0.00    +0.190 C 
BRANCH  36  37
ATOM     37  O   UNL     1      -7.225  -4.495  -1.794  0.00  0.00    -0.392 OA
ATOM     38  H   UNL     1      -7.979  -5.065  -1.998  0.00  0.00    +0.210 HD
ENDBRANCH  36  37
ENDBRANCH  33  36
ENDBRANCH  30  33
ENDBRANCH   2  30
TORSDOF 10
