REMARK  Name = ZINC50636571
REMARK  6 active torsions:
REMARK  status: ('A' for Active; 'I' for Inactive)
REMARK    1  A    between atoms: C_1  and  N_2
REMARK    2  A    between atoms: N_2  and  C_3
REMARK    3  A    between atoms: N_2  and  C_4
REMARK    4  A    between atoms: C_7  and  N_21
REMARK    5  A    between atoms: C_9  and  C_10
REMARK    6  A    between atoms: N_12  and  C_13
REMARK                            x       y       z     vdW  Elec       q    Type
REMARK                         _______ _______ _______ _____ _____    ______ ____
ROOT
ATOM      1  C   UNL     1      -1.191  -0.715   0.010  0.00  0.00    +0.042 A 
ATOM      2  C   UNL     1      -1.800  -1.071  -1.188  0.00  0.00    +0.026 A 
ATOM      3  C   UNL     1      -2.985  -1.777  -1.178  0.00  0.00    +0.034 A 
ATOM      4  C   UNL     1      -3.578  -2.136   0.023  0.00  0.00    +0.127 A 
ATOM      5  C   UNL     1      -2.990  -1.791   1.220  0.00  0.00    +0.047 A 
ATOM      6  C   UNL     1      -1.786  -1.082   1.227  0.00  0.00    +0.060 A 
ENDROOT
BRANCH   6   7
ATOM      7  C   UNL     1      -1.147  -0.717   2.504  0.00  0.00    +0.247 C 
ATOM      8  O   UNL     1      -0.102  -0.095   2.506  0.00  0.00    -0.270 OA
ATOM      9  N   UNL     1      -1.722  -1.072   3.671  0.00  0.00    -0.300 N 
ATOM     10  H   UNL     1      -2.555  -1.568   3.669  0.00  0.00    +0.150 HD
BRANCH   9  11
ATOM     11  C   UNL     1      -1.087  -0.709   4.940  0.00  0.00    +0.159 C 
ATOM     12  C   UNL     1      -1.523  -1.695   6.027  0.00  0.00    +0.033 C 
ATOM     13  C   UNL     1      -1.077  -1.145   7.387  0.00  0.00    +0.021 C 
ATOM     14  C   UNL     1      -1.881   0.120   7.691  0.00  0.00    +0.104 C 
ATOM     15  N   UNL     1      -1.828   1.042   6.563  0.00  0.00    -0.314 N 
ATOM     16  C   UNL     1      -1.498   0.684   5.322  0.00  0.00    +0.233 C 
ATOM     17  O   UNL     1      -1.529   1.532   4.455  0.00  0.00    -0.274 OA
ATOM     18  H   UNL     1      -2.048   1.972   6.725  0.00  0.00    +0.149 HD
ENDBRANCH   9  11
ENDBRANCH   6   7
BRANCH   1  20
ATOM     19  C   UNL     1      -0.018   1.461   0.010  0.00  0.00    +0.129 C 
ATOM     20  N   UNL     1       0.002  -0.004   0.002  0.00  0.00    -0.335 N 
ATOM     21  C   UNL     1       1.281  -0.719  -0.014  0.00  0.00    +0.129 C 
ENDBRANCH   1  20
BRANCH   4  22
ATOM     22  N   UNL     1      -4.850  -2.893   0.018  0.00  0.00    +0.056 N 
ATOM     23  O   UNL     1      -5.369  -3.196  -1.031  0.00  0.00    -0.126 OA
ATOM     24  O   UNL     1      -5.369  -3.207   1.063  0.00  0.00    -0.126 OA
ENDBRANCH   4  22
TORSDOF 4
