REMARK  Name = ZINC11961197
REMARK  11 active torsions:
REMARK  status: ('A' for Active; 'I' for Inactive)
REMARK    1  A    between atoms: C_1  and  C_2
REMARK    2  A    between atoms: C_5  and  C_7
REMARK    3  A    between atoms: C_9  and  C_17
REMARK    4  A    between atoms: C_11  and  C_16
REMARK    5  A    between atoms: C_17  and  O_19
REMARK    6  A    between atoms: O_19  and  C_20
REMARK    7  A    between atoms: C_20  and  C_22
REMARK    8  A    between atoms: C_20  and  C_23
REMARK    9  A    between atoms: N_28  and  C_29
REMARK   10  A    between atoms: C_29  and  C_30
REMARK   11  A    between atoms: C_29  and  C_31
REMARK                            x       y       z     vdW  Elec       q    Type
REMARK                         _______ _______ _______ _____ _____    ______ ____
ROOT
ATOM      1  C   UNL     1       0.932  -4.439   1.021  0.00  0.00    +0.082 A 
ATOM      2  C   UNL     1       2.304  -4.695   1.135  0.00  0.00    +0.044 A 
ATOM      3  C   UNL     1       2.862  -5.732   0.397  0.00  0.00    +0.075 A 
ATOM      4  C   UNL     1       2.008  -6.483  -0.440  0.00  0.00    +0.077 A 
ATOM      5  C   UNL     1       2.212  -7.614  -1.342  0.00  0.00    +0.091 A 
ATOM      6  N   UNL     1       1.060  -7.907  -1.864  0.00  0.00    -0.080 NA
ATOM      7  O   UNL     1       0.072  -7.029  -1.363  0.00  0.00    -0.334 OA
ATOM      8  C   UNL     1       0.640  -6.163  -0.498  0.00  0.00    +0.260 A 
ATOM      9  N   UNL     1       0.158  -5.169   0.229  0.00  0.00    -0.209 NA
ATOM     10  C   UNL     1       3.520  -8.312  -1.617  0.00  0.00    +0.070 C 
ENDROOT
BRANCH   1  15
ATOM     11  C   UNL     1      -0.431  -0.100   4.345  0.00  0.00    +0.051 C 
ATOM     12  C   UNL     1      -0.322  -1.263   3.394  0.00  0.00    -0.013 A 
ATOM     13  C   UNL     1      -1.298  -1.863   2.662  0.00  0.00    +0.011 A 
ATOM     14  C   UNL     1      -0.971  -2.923   1.849  0.00  0.00    +0.018 A 
ATOM     15  C   UNL     1       0.334  -3.341   1.803  0.00  0.00    +0.038 A 
ATOM     16  S   UNL     1       1.123  -2.204   2.931  0.00  0.00    -0.092 S 
ENDBRANCH   1  15
BRANCH   3  17
ATOM     17  C   UNL     1       4.306  -6.039   0.484  0.00  0.00    +0.341 C 
ATOM     18  O   UNL     1       4.688  -7.190   0.418  0.00  0.00    -0.245 OA
BRANCH  17  19
ATOM     19  O   UNL     1       5.199  -5.042   0.636  0.00  0.00    -0.449 OA
BRANCH  19  20
ATOM     20  C   UNL     1       6.577  -5.411   0.713  0.00  0.00    +0.259 C 
ATOM     21  C   UNL     1       6.958  -5.661   2.173  0.00  0.00    +0.062 C 
BRANCH  20  22
ATOM     22  C   UNL     1       7.427  -4.298   0.156  0.00  0.00    +0.261 C 
ATOM     23  O   UNL     1       6.913  -3.253  -0.181  0.00  0.00    -0.271 OA
ATOM     24  N   UNL     1       8.759  -4.464   0.033  0.00  0.00    -0.237 N 
ATOM     25  C   UNL     1       9.519  -3.468  -0.465  0.00  0.00    +0.306 C 
ATOM     26  O   UNL     1       9.003  -2.421  -0.803  0.00  0.00    -0.252 OA
ATOM     27  N   UNL     1      10.851  -3.634  -0.588  0.00  0.00    -0.297 N 
ATOM     28  H   UNL     1       9.171  -5.300   0.302  0.00  0.00    +0.159 HD
ATOM     29  H   UNL     1      11.262  -4.470  -0.319  0.00  0.00    +0.151 HD
BRANCH  27  30
ATOM     30  C   UNL     1      11.677  -2.552  -1.129  0.00  0.00    +0.068 C 
ATOM     31  C   UNL     1      13.110  -2.698  -0.614  0.00  0.00    +0.027 C 
ATOM     32  C   UNL     1      11.674  -2.624  -2.658  0.00  0.00    +0.027 C 
ENDBRANCH  27  30
ENDBRANCH  20  22
ENDBRANCH  19  20
ENDBRANCH  17  19
ENDBRANCH   3  17
TORSDOF 6
