REMARK  Name = ZINC36160367
REMARK  14 active torsions:
REMARK  status: ('A' for Active; 'I' for Inactive)
REMARK    1  A    between atoms: C_1  and  C_2
REMARK    2  A    between atoms: C_2  and  C_3
REMARK    3  A    between atoms: C_2  and  C_4
REMARK    4  A    between atoms: C_4  and  C_6
REMARK    5  A    between atoms: C_4  and  N_20
REMARK    6  A    between atoms: C_8  and  C_11
REMARK    7  A    between atoms: C_14  and  N_17
REMARK    8  A    between atoms: N_20  and  C_21
REMARK    9  A    between atoms: C_21  and  C_22
REMARK   10  A    between atoms: C_22  and  C_24
REMARK   11  A    between atoms: C_22  and  O_33
REMARK   12  A    between atoms: C_24  and  O_25
REMARK   13  A    between atoms: O_25  and  C_26
REMARK   14  A    between atoms: C_26  and  C_27
REMARK                            x       y       z     vdW  Elec       q    Type
REMARK                         _______ _______ _______ _____ _____    ______ ____
ROOT
ATOM      1  C   UNL     1      -1.375  -0.662   0.014  0.00  0.00    +0.022 C 
ENDROOT
BRANCH   1   2
ATOM      2  C   UNL     1      -2.099  -0.541  -1.302  0.00  0.00    +0.214 A 
ATOM      3  N   UNL     1      -2.228  -1.485  -2.190  0.00  0.00    -0.193 NA
ATOM      4  C   UNL     1      -2.931  -1.034  -3.244  0.00  0.00    +0.202 A 
ATOM      5  N   UNL     1      -3.256   0.216  -3.026  0.00  0.00    -0.056 NA
ATOM      6  O   UNL     1      -2.723   0.555  -1.754  0.00  0.00    -0.339 OA
BRANCH   4   7
ATOM      7  C   UNL     1      -3.281  -1.821  -4.453  0.00  0.00    +0.023 A 
ATOM      8  C   UNL     1      -2.878  -3.151  -4.562  0.00  0.00    +0.014 A 
ATOM      9  C   UNL     1      -3.207  -3.878  -5.688  0.00  0.00    +0.033 A 
ATOM     10  C   UNL     1      -3.934  -3.290  -6.707  0.00  0.00    +0.126 A 
ATOM     11  C   UNL     1      -4.336  -1.970  -6.604  0.00  0.00    +0.033 A 
ATOM     12  C   UNL     1      -4.018  -1.235  -5.480  0.00  0.00    +0.014 A 
BRANCH  10  13
ATOM     13  N   UNL     1      -4.283  -4.075  -7.912  0.00  0.00    +0.056 N 
ATOM     14  O   UNL     1      -3.933  -5.229  -8.004  0.00  0.00    -0.126 OA
ATOM     15  O   UNL     1      -4.919  -3.563  -8.804  0.00  0.00    -0.126 OA
ENDBRANCH  10  13
ENDBRANCH   4   7
ENDBRANCH   1   2
BRANCH   1  17
ATOM     16  C   UNL     1       0.713  -0.079   1.255  0.00  0.00    +0.006 C 
ATOM     17  C   UNL     1      -0.035   0.071  -0.071  0.00  0.00    -0.022 C 
ATOM     18  C   UNL     1       0.804  -0.529  -1.201  0.00  0.00    +0.006 C 
ENDBRANCH   1  17
BRANCH   1  19
ATOM     19  N   UNL     1      -2.193  -0.066   1.079  0.00  0.00    +0.389 N 
ATOM     20  H   UNL     1      -1.672  -0.065   1.943  0.00  0.00    -0.085 HD
ATOM     21  H   UNL     1      -2.432   0.882   0.829  0.00  0.00    -0.085 HD
BRANCH  19  22
ATOM     22  C   UNL     1      -3.423  -0.852   1.250  0.00  0.00    -0.048 C 
BRANCH  22  23
ATOM     23  C   UNL     1      -4.215  -0.307   2.440  0.00  0.00    +0.123 C 
BRANCH  23  24
ATOM     24  O   UNL     1      -3.421  -0.401   3.624  0.00  0.00    -0.391 OA
ATOM     25  H   UNL     1      -3.154  -1.303   3.848  0.00  0.00    +0.210 HD
ENDBRANCH  23  24
BRANCH  23  26
ATOM     26  C   UNL     1      -5.495  -1.125   2.618  0.00  0.00    +0.189 C 
BRANCH  26  27
ATOM     27  O   UNL     1      -6.291  -0.545   3.654  0.00  0.00    -0.373 OA
BRANCH  27  28
ATOM     28  C   UNL     1      -7.516  -1.237   3.902  0.00  0.00    +0.195 C 
BRANCH  28  29
ATOM     29  C   UNL     1      -8.270  -0.543   5.007  0.00  0.00    -0.022 A 
ATOM     30  C   UNL     1      -8.060  -0.909   6.323  0.00  0.00    +0.006 A 
ATOM     31  C   UNL     1      -8.752  -0.272   7.337  0.00  0.00    +0.000 A 
ATOM     32  C   UNL     1      -9.654   0.730   7.034  0.00  0.00    +0.000 A 
ATOM     33  C   UNL     1      -9.864   1.097   5.717  0.00  0.00    +0.000 A 
ATOM     34  C   UNL     1      -9.169   0.463   4.704  0.00  0.00    +0.006 A 
ENDBRANCH  28  29
ENDBRANCH  27  28
ENDBRANCH  26  27
ENDBRANCH  23  26
ENDBRANCH  22  23
ENDBRANCH  19  22
ENDBRANCH   1  19
TORSDOF 12
