REMARK  Name = ZINC40282820
REMARK  3 active torsions:
REMARK  status: ('A' for Active; 'I' for Inactive)
REMARK    1  A    between atoms: C_1  and  C_2
REMARK    2  A    between atoms: C_7  and  C_8
REMARK    3  A    between atoms: C_8  and  C_10
REMARK                            x       y       z     vdW  Elec       q    Type
REMARK                         _______ _______ _______ _____ _____    ______ ____
ROOT
ATOM      1  C   UNL     1       1.438   0.421   2.866  0.00  0.00    -0.027 A 
ATOM      2  C   UNL     1       2.367  -0.569   3.138  0.00  0.00    +0.007 A 
ATOM      3  C   UNL     1       3.665  -0.234   3.470  0.00  0.00    +0.028 A 
ATOM      4  C   UNL     1       4.039   1.100   3.532  0.00  0.00    +0.067 A 
ATOM      5  C   UNL     1       3.103   2.099   3.258  0.00  0.00    +0.067 A 
ATOM      6  C   UNL     1       1.803   1.752   2.920  0.00  0.00    +0.033 A 
ATOM      7  N   UNL     1       3.762   3.318   3.397  0.00  0.00    -0.306 N 
ATOM      8  H   UNL     1       3.367   4.194   3.269  0.00  0.00    +0.170 HD
ATOM      9  C   UNL     1       5.040   3.072   3.740  0.00  0.00    +0.325 A 
ATOM     10  O   UNL     1       5.888   3.922   3.940  0.00  0.00    -0.247 OA
ATOM     11  N   UNL     1       5.239   1.743   3.829  0.00  0.00    -0.306 N 
ATOM     12  H   UNL     1       6.074   1.308   4.061  0.00  0.00    +0.170 HD
ENDROOT
BRANCH   1  13
ATOM     13  C   UNL     1       0.025   0.045   2.504  0.00  0.00    +0.117 C 
ATOM     14 BR   UNL     1      -0.730  -1.100   3.913  0.00  0.00    -0.078 Br
BRANCH  13  21
ATOM     15  C   UNL     1      -0.018   1.503   0.010  0.00  0.00    +0.044 C 
ATOM     16  C   UNL     1       0.002  -0.004   0.002  0.00  0.00    -0.045 A 
ATOM     17  C   UNL     1       0.006  -0.689  -1.199  0.00  0.00    +0.019 A 
ATOM     18  C   UNL     1       0.025  -2.071  -1.206  0.00  0.00    +0.018 A 
ATOM     19  C   UNL     1       0.041  -2.769  -0.012  0.00  0.00    +0.015 A 
ATOM     20  C   UNL     1       0.037  -2.084   1.188  0.00  0.00    +0.006 A 
ATOM     21  C   UNL     1       0.023  -0.701   1.195  0.00  0.00    -0.027 A 
ATOM     22 BR   UNL     1       0.029  -3.008  -2.849  0.00  0.00    -0.050 Br
ENDBRANCH  13  21
ENDBRANCH   1  13
TORSDOF 2
