REMARK  Name = ZINC08275785
REMARK  2 active torsions:
REMARK  status: ('A' for Active; 'I' for Inactive)
REMARK    1  A    between atoms: C_1  and  C_2
REMARK    2  A    between atoms: C_8  and  C_10
REMARK                            x       y       z     vdW  Elec       q    Type
REMARK                         _______ _______ _______ _____ _____    ______ ____
ROOT
ATOM      1  C   UNL     1       0.541  -4.381  -0.026  0.00  0.00    +0.305 C 
ATOM      2  O   UNL     1       1.675  -4.816  -0.039  0.00  0.00    -0.265 OA
ATOM      3  N   UNL     1      -0.506  -5.229  -0.021  0.00  0.00    -0.257 N 
ATOM      4  C   UNL     1      -0.289  -6.599  -0.029  0.00  0.00    +0.165 A 
ATOM      5  N   UNL     1       0.852  -7.257  -0.049  0.00  0.00    -0.229 NA
ATOM      6  C   UNL     1       0.905  -8.586  -0.051  0.00  0.00    +0.054 A 
ATOM      7  C   UNL     1      -0.293  -9.229  -0.043  0.00  0.00    +0.014 A 
ATOM      8  S   UNL     1      -1.454  -7.890  -0.025  0.00  0.00    -0.057 S 
ATOM      9  C   UNL     1      -0.541 -10.699  -0.049  0.00  0.00    +0.044 C 
ATOM     10  C   UNL     1       0.768 -11.407  -0.434  0.00  0.00    +0.006 C 
ATOM     11  C   UNL     1       1.911 -10.811   0.394  0.00  0.00    +0.006 C 
ATOM     12  C   UNL     1       2.204  -9.382  -0.066  0.00  0.00    +0.056 C 
ATOM     13  H   UNL     1      -1.412  -4.881  -0.010  0.00  0.00    +0.157 HD
ENDROOT
BRANCH   1  21
ATOM     14  C   UNL     1       1.276   3.470   0.009  0.00  0.00    +0.075 C 
ATOM     15  C   UNL     1       1.092   1.974   0.002  0.00  0.00    +0.101 A 
ATOM     16  N   UNL     1      -0.015   1.257   0.009  0.00  0.00    -0.145 NA
ATOM     17  N   UNL     1       0.002  -0.004   0.002  0.00  0.00    -0.126 NA
ATOM     18  C   UNL     1       1.138  -0.688  -0.013  0.00  0.00    +0.188 A 
ATOM     19  S   UNL     1       2.312   0.664  -0.016  0.00  0.00    -0.036 S 
ATOM     20  N   UNL     1       1.355  -2.059  -0.022  0.00  0.00    -0.255 N 
ATOM     21  C   UNL     1       0.308  -2.907  -0.016  0.00  0.00    +0.305 C 
ATOM     22  O   UNL     1      -0.825  -2.472  -0.003  0.00  0.00    -0.265 OA
ATOM     23  H   UNL     1       2.261  -2.407  -0.032  0.00  0.00    +0.157 HD
ENDBRANCH   1  21
TORSDOF 1
