REMARK  Name = ZINC34791814
REMARK  9 active torsions:
REMARK  status: ('A' for Active; 'I' for Inactive)
REMARK    1  A    between atoms: C_1  and  C_2
REMARK    2  A    between atoms: C_2  and  N_3
REMARK    3  A    between atoms: C_6  and  C_11
REMARK    4  A    between atoms: C_14  and  C_18
REMARK    5  A    between atoms: C_16  and  C_17
REMARK    6  A    between atoms: N_21  and  C_23
REMARK    7  A    between atoms: C_23  and  C_25
REMARK    8  A    between atoms: C_23  and  C_32
REMARK    9  A    between atoms: C_25  and  C_26
REMARK                            x       y       z     vdW  Elec       q    Type
REMARK                         _______ _______ _______ _____ _____    ______ ____
ROOT
ATOM      1  N   UNL     1      -1.274  -0.084  -0.383  0.00  0.00    -0.257 N 
ATOM      2  C   UNL     1      -1.728  -0.582   0.805  0.00  0.00    +0.042 C 
ATOM      3  C   UNL     1      -2.933  -1.179   0.897  0.00  0.00    +0.058 C 
ATOM      4  C   UNL     1      -3.768  -1.278  -0.364  0.00  0.00    +0.142 C 
ATOM      5  N   UNL     1      -3.190  -0.711  -1.593  0.00  0.00    -0.288 N 
ATOM      6  C   UNL     1      -1.971  -0.140  -1.525  0.00  0.00    +0.307 C 
ATOM      7  O   UNL     1      -1.486   0.336  -2.534  0.00  0.00    -0.252 OA
ATOM      8  C   UNL     1      -3.170  -1.606   2.220  0.00  0.00    +0.247 C 
ATOM      9  O   UNL     1      -4.180  -2.176   2.588  0.00  0.00    -0.270 OA
ATOM     10  N   UNL     1      -2.133  -1.301   3.021  0.00  0.00    -0.280 N 
ATOM     11  C   UNL     1      -1.125  -0.624   2.191  0.00  0.00    +0.160 C 
ATOM     12  H   UNL     1      -3.676  -0.744  -2.432  0.00  0.00    +0.151 HD
ENDROOT
BRANCH   4  13
ATOM     13  C   UNL     1      -4.057  -2.736  -0.617  0.00  0.00    -0.020 A 
ATOM     14  C   UNL     1      -3.279  -3.708  -0.016  0.00  0.00    +0.006 A 
ATOM     15  C   UNL     1      -3.544  -5.045  -0.248  0.00  0.00    +0.004 A 
ATOM     16  C   UNL     1      -4.586  -5.409  -1.080  0.00  0.00    -0.050 A 
ATOM     17  C   UNL     1      -5.363  -4.437  -1.680  0.00  0.00    +0.007 A 
ATOM     18  C   UNL     1      -5.101  -3.100  -1.445  0.00  0.00    -0.045 A 
ATOM     19  C   UNL     1      -5.953  -2.040  -2.095  0.00  0.00    +0.044 C 
ATOM     20  C   UNL     1      -4.873  -6.867  -1.334  0.00  0.00    +0.044 C 
ENDBRANCH   4  13
BRANCH   1  22
ATOM     21  C   UNL     1      -0.102   2.045  -0.108  0.00  0.00    +0.025 C 
ATOM     22  C   UNL     1       0.046   0.552  -0.408  0.00  0.00    +0.111 C 
ENDBRANCH   1  22
BRANCH  10  23
ATOM     23  C   UNL     1      -2.027  -1.591   4.453  0.00  0.00    +0.167 C 
BRANCH  23  24
ATOM     24  C   UNL     1      -3.090  -0.826   5.200  0.00  0.00    +0.236 C 
ATOM     25  O   UNL     1      -4.020  -0.334   4.596  0.00  0.00    -0.274 OA
ATOM     26  N   UNL     1      -3.006  -0.688   6.538  0.00  0.00    -0.300 N 
ATOM     27  C   UNL     1      -1.830  -1.179   7.269  0.00  0.00    +0.108 C 
ATOM     28  C   UNL     1      -1.261  -0.034   8.114  0.00  0.00    +0.019 C 
ATOM     29  C   UNL     1      -2.366   0.531   9.009  0.00  0.00    +0.003 C 
ATOM     30  C   UNL     1      -3.495   1.089   8.138  0.00  0.00    +0.019 C 
ATOM     31  C   UNL     1      -4.086  -0.038   7.292  0.00  0.00    +0.108 C 
ENDBRANCH  23  24
BRANCH  23  32
ATOM     32  C   UNL     1      -2.220  -3.090   4.686  0.00  0.00    +0.067 C 
BRANCH  32  33
ATOM     33  C   UNL     1      -1.086  -3.848   4.045  0.00  0.00    -0.045 A 
ATOM     34  C   UNL     1      -1.241  -4.384   2.780  0.00  0.00    +0.004 A 
ATOM     35  C   UNL     1      -0.201  -5.079   2.192  0.00  0.00    +0.000 A 
ATOM     36  C   UNL     1       0.995  -5.238   2.869  0.00  0.00    +0.000 A 
ATOM     37  C   UNL     1       1.150  -4.701   4.133  0.00  0.00    +0.000 A 
ATOM     38  C   UNL     1       0.111  -4.002   4.719  0.00  0.00    +0.004 A 
ENDBRANCH  32  33
ENDBRANCH  23  32
ENDBRANCH  10  23
TORSDOF 6
