REMARK  Name = ZINC05212863
REMARK  6 active torsions:
REMARK  status: ('A' for Active; 'I' for Inactive)
REMARK    1  A    between atoms: C_1  and  C_2
REMARK    2  A    between atoms: C_2  and  C_4
REMARK    3  A    between atoms: C_2  and  S_17
REMARK    4  A    between atoms: N_6  and  C_7
REMARK    5  A    between atoms: C_10  and  N_14
REMARK    6  A    between atoms: S_17  and  C_18
REMARK                            x       y       z     vdW  Elec       q    Type
REMARK                         _______ _______ _______ _____ _____    ______ ____
ROOT
ATOM      1  C   UNL     1      -0.738   1.581  -1.217  0.00  0.00    +0.230 C 
ATOM      2  O   UNL     1      -0.326   2.553  -1.815  0.00  0.00    -0.274 OA
ATOM      3  N   UNL     1      -1.854   0.954  -1.639  0.00  0.00    -0.283 N 
ATOM      4  H   UNL     1      -2.147   0.139  -1.201  0.00  0.00    +0.155 HD
ENDROOT
BRANCH   3   5
ATOM      5  C   UNL     1      -2.589   1.478  -2.708  0.00  0.00    +0.052 A 
ATOM      6  C   UNL     1      -1.937   2.113  -3.757  0.00  0.00    +0.027 A 
ATOM      7  C   UNL     1      -2.666   2.629  -4.811  0.00  0.00    +0.034 A 
ATOM      8  C   UNL     1      -4.044   2.513  -4.823  0.00  0.00    +0.128 A 
ATOM      9  C   UNL     1      -4.697   1.880  -3.782  0.00  0.00    +0.054 A 
ATOM     10  C   UNL     1      -3.974   1.357  -2.726  0.00  0.00    +0.064 A 
ATOM     11 CL   UNL     1      -4.794   0.557  -1.422  0.00  0.00    -0.082 Cl
BRANCH   8  12
ATOM     12  N   UNL     1      -4.821   3.067  -5.955  0.00  0.00    +0.056 N 
ATOM     13  O   UNL     1      -4.247   3.624  -6.873  0.00  0.00    -0.126 OA
ATOM     14  O   UNL     1      -6.035   2.966  -5.967  0.00  0.00    -0.126 OA
ENDBRANCH   8  12
ENDBRANCH   3   5
BRANCH   1  16
ATOM     15  C   UNL     1      -0.710   1.564   1.262  0.00  0.00    +0.029 C 
ATOM     16  C   UNL     1      -0.002   1.076  -0.003  0.00  0.00    +0.137 C 
BRANCH  16  17
ATOM     17  S   UNL     1       1.700   1.701  -0.024  0.00  0.00    -0.073 S 
BRANCH  17  18
ATOM     18  C   UNL     1       2.461   0.914   1.357  0.00  0.00    +0.197 A 
ATOM     19  N   UNL     1       1.885   0.076   2.190  0.00  0.00    -0.122 NA
ATOM     20  N   UNL     1       2.726  -0.314   3.082  0.00  0.00    -0.129 NA
ATOM     21  C   UNL     1       3.895   0.263   2.875  0.00  0.00    +0.162 A 
ATOM     22  N   UNL     1       3.754   1.065   1.762  0.00  0.00    -0.278 N 
ATOM     23  C   UNL     1       4.811   1.798   1.300  0.00  0.00    +0.095 A 
ATOM     24  C   UNL     1       6.004   1.746   1.925  0.00  0.00    +0.018 A 
ATOM     25  C   UNL     1       6.179   0.937   3.062  0.00  0.00    +0.005 A 
ATOM     26  C   UNL     1       5.138   0.201   3.536  0.00  0.00    +0.049 A 
ENDBRANCH  17  18
ENDBRANCH  16  17
ENDBRANCH   1  16
TORSDOF 5
