REMARK  Name = ZINC35361501
REMARK  6 active torsions:
REMARK  status: ('A' for Active; 'I' for Inactive)
REMARK    1  A    between atoms: C_1  and  C_2
REMARK    2  A    between atoms: C_4  and  O_38
REMARK    3  A    between atoms: C_14  and  C_16
REMARK    4  A    between atoms: C_16  and  C_21
REMARK    5  A    between atoms: C_26  and  C_37
REMARK    6  A    between atoms: N_28  and  O_29
REMARK                            x       y       z     vdW  Elec       q    Type
REMARK                         _______ _______ _______ _____ _____    ______ ____
ROOT
ATOM      1  C   UNL     1       0.198   1.712  -0.033  0.00  0.00    +0.012 C 
ATOM      2  C   UNL     1       0.112   0.187   0.057  0.00  0.00    -0.019 C 
ATOM      3  C   UNL     1      -1.314  -0.229   0.357  0.00  0.00    +0.039 C 
ATOM      4  C   UNL     1      -1.749   0.513   1.632  0.00  0.00    +0.119 C 
ATOM      5  C   UNL     1      -0.815   0.211   2.799  0.00  0.00    +0.033 C 
ATOM      6  C   UNL     1       0.646   0.533   2.450  0.00  0.00    -0.001 C 
ATOM      7  C   UNL     1       0.999  -0.320   1.226  0.00  0.00    -0.001 C 
ATOM      8  C   UNL     1       2.408  -0.116   0.658  0.00  0.00    +0.005 C 
ATOM      9  C   UNL     1       2.260  -0.588  -0.814  0.00  0.00    +0.009 C 
ATOM     10  C   UNL     1       0.761  -0.440  -1.173  0.00  0.00    +0.054 C 
ATOM     11  C   UNL     1       1.538   0.159   3.636  0.00  0.00    +0.004 C 
ATOM     12  C   UNL     1       1.122   0.981   4.858  0.00  0.00    +0.005 C 
ATOM     13  C   UNL     1      -0.335   0.685   5.206  0.00  0.00    +0.006 C 
ATOM     14  C   UNL     1      -1.223   1.035   4.021  0.00  0.00    +0.018 C 
ATOM     15  C   UNL     1      -2.647   0.674   4.395  0.00  0.00    +0.069 C 
ATOM     16  N   UNL     1      -3.592   1.530   4.290  0.00  0.00    -0.096 NA
ATOM     17  C   UNL     1      -2.917  -0.727   4.896  0.00  0.00    +0.119 C 
ATOM     18  C   UNL     1      -1.934  -1.044   6.026  0.00  0.00    +0.176 C 
ATOM     19  C   UNL     1      -0.500  -0.793   5.557  0.00  0.00    +0.069 C 
ATOM     20  O   UNL     1      -2.080  -2.421   6.412  0.00  0.00    -0.346 OA
ATOM     21  C   UNL     1      -1.869  -2.428   7.844  0.00  0.00    +0.191 C 
ATOM     22  C   UNL     1      -2.524  -1.089   8.264  0.00  0.00    +0.191 C 
ATOM     23  O   UNL     1      -2.219  -0.214   7.159  0.00  0.00    -0.346 OA
ATOM     24  C   UNL     1      -1.111   2.529   3.708  0.00  0.00    +0.018 C 
ENDROOT
BRANCH  10  25
ATOM     25  C   UNL     1       0.594   0.478  -2.386  0.00  0.00    +0.171 C 
ATOM     26  O   UNL     1       1.212  -0.124  -3.535  0.00  0.00    -0.346 OA
ATOM     27  C   UNL     1       1.771   0.986  -4.279  0.00  0.00    +0.191 C 
ATOM     28  C   UNL     1       2.238   1.925  -3.138  0.00  0.00    +0.191 C 
ATOM     29  O   UNL     1       1.227   1.738  -2.127  0.00  0.00    -0.346 OA
ATOM     30  C   UNL     1      -0.895   0.698  -2.663  0.00  0.00    +0.074 C 
ENDBRANCH  10  25
BRANCH  16  31
ATOM     31  O   UNL     1      -4.915   1.170   4.644  0.00  0.00    -0.409 OA
ATOM     32  H   UNL     1      -5.560   1.882   4.532  0.00  0.00    +0.328 HD
ENDBRANCH  16  31
BRANCH   4  33
ATOM     33  O   UNL     1      -3.075   0.108   1.980  0.00  0.00    -0.391 OA
ATOM     34  H   UNL     1      -3.734   0.295   1.298  0.00  0.00    +0.210 HD
ENDBRANCH   4  33
TORSDOF 3
