REMARK  Name = ZINC13609132
REMARK  4 active torsions:
REMARK  status: ('A' for Active; 'I' for Inactive)
REMARK    1  A    between atoms: C_3  and  C_7
REMARK    2  A    between atoms: C_14  and  C_16
REMARK    3  A    between atoms: C_22  and  C_31
REMARK    4  A    between atoms: C_25  and  C_27
REMARK                            x       y       z     vdW  Elec       q    Type
REMARK                         _______ _______ _______ _____ _____    ______ ____
ROOT
ATOM      1  C   UNL     1       4.758  -0.443  -2.759  0.00  0.00    +0.091 C 
ATOM      2  C   UNL     1       4.217  -1.397  -3.580  0.00  0.00    +0.104 C 
ATOM      3  N   UNL     1       5.208  -1.997  -4.288  0.00  0.00    -0.269 N 
ATOM      4  N   UNL     1       6.437  -1.456  -3.929  0.00  0.00    -0.226 N 
ATOM      5  C   UNL     1       6.207  -0.459  -2.992  0.00  0.00    +0.126 C 
ATOM      6  N   UNL     1       7.150   0.267  -2.465  0.00  0.00    -0.364 N 
ATOM      7  C   UNL     1       8.535   0.066  -2.908  0.00  0.00    +0.119 C 
ATOM      8  C   UNL     1       8.768  -1.395  -3.295  0.00  0.00    +0.063 C 
ATOM      9  C   UNL     1       7.783  -1.809  -4.394  0.00  0.00    +0.201 C 
ATOM     10  H   UNL     1       5.078  -2.698  -4.946  0.00  0.00    +0.170 HD
ATOM     11  H   UNL     1       6.941   0.930  -1.789  0.00  0.00    +0.161 HD
ENDROOT
BRANCH   1  18
ATOM     12  C   UNL     1       2.766   0.769   0.237  0.00  0.00    +0.108 C 
ATOM     13  C   UNL     1       1.497  -0.013   0.591  0.00  0.00    +0.027 C 
ATOM     14  C   UNL     1       1.887  -1.372   1.177  0.00  0.00    +0.004 C 
ATOM     15  C   UNL     1       2.673  -2.172   0.137  0.00  0.00    +0.019 C 
ATOM     16  C   UNL     1       3.956  -1.414  -0.222  0.00  0.00    +0.109 C 
ATOM     17  N   UNL     1       3.600  -0.054  -0.649  0.00  0.00    -0.290 N 
ATOM     18  C   UNL     1       4.029   0.429  -1.832  0.00  0.00    +0.252 C 
ATOM     19  O   UNL     1       3.812   1.589  -2.131  0.00  0.00    -0.270 OA
BRANCH  12  22
ATOM     20  C   UNL     1       2.358   4.427  -0.596  0.00  0.00    +0.020 A 
ATOM     21  C   UNL     1       2.723   3.276   0.086  0.00  0.00    +0.008 A 
ATOM     22  C   UNL     1       2.391   2.048  -0.466  0.00  0.00    -0.009 A 
ATOM     23  C   UNL     1       1.713   2.013  -1.670  0.00  0.00    +0.116 A 
ATOM     24  N   UNL     1       1.383   3.128  -2.291  0.00  0.00    -0.263 NA
ATOM     25  C   UNL     1       1.682   4.313  -1.795  0.00  0.00    +0.111 A 
ENDBRANCH  12  22
ENDBRANCH   1  18
BRANCH   7  26
ATOM     26  C   UNL     1       9.474   0.440  -1.790  0.00  0.00    +0.012 A 
ATOM     27  C   UNL     1      10.668   1.078  -1.855  0.00  0.00    +0.013 A 
ATOM     28  C   UNL     1      11.365   1.319  -0.686  0.00  0.00    +0.008 A 
ATOM     29  C   UNL     1      10.833   0.909   0.492  0.00  0.00    +0.045 A 
ATOM     30  S   UNL     1       9.299   0.163  -0.035  0.00  0.00    -0.100 S 
ENDBRANCH   7  26
BRANCH   9  31
ATOM     31  C   UNL     1       7.869  -3.315  -4.646  0.00  0.00    +0.410 C 
ATOM     32  F   UNL     1       6.934  -3.679  -5.622  0.00  0.00    -0.169 F 
ATOM     33  F   UNL     1       9.155  -3.641  -5.089  0.00  0.00    -0.169 F 
ATOM     34  F   UNL     1       7.596  -4.003  -3.459  0.00  0.00    -0.169 F 
ENDBRANCH   9  31
TORSDOF 4
