REMARK  Name = ZINC24972781
REMARK  8 active torsions:
REMARK  status: ('A' for Active; 'I' for Inactive)
REMARK    1  A    between atoms: C_1  and  N_2
REMARK    2  A    between atoms: N_2  and  C_3
REMARK    3  A    between atoms: N_2  and  S_4
REMARK    4  A    between atoms: S_4  and  C_7
REMARK    5  A    between atoms: N_18  and  C_19
REMARK    6  A    between atoms: N_22  and  C_25
REMARK    7  A    between atoms: C_26  and  N_31
REMARK    8  A    between atoms: N_31  and  C_32
REMARK                            x       y       z     vdW  Elec       q    Type
REMARK                         _______ _______ _______ _____ _____    ______ ____
ROOT
ATOM      1  C   UNL     1       1.169   2.087   0.002  0.00  0.00    +0.106 A 
ATOM      2  C   UNL     1      -0.017   1.374   0.010  0.00  0.00    +0.030 A 
ATOM      3  C   UNL     1       0.002  -0.004   0.002  0.00  0.00    +0.026 A 
ATOM      4  C   UNL     1       1.217  -0.692  -0.013  0.00  0.00    +0.041 A 
ATOM      5  C   UNL     1       2.399   0.031  -0.021  0.00  0.00    -0.023 A 
ATOM      6  C   UNL     1       2.376   1.413  -0.013  0.00  0.00    +0.034 A 
ATOM      7  C   UNL     1       3.558  -0.941  -0.037  0.00  0.00    +0.056 C 
ATOM      8  C   UNL     1       2.898  -2.329  -0.038  0.00  0.00    +0.120 C 
ATOM      9  N   UNL     1       1.456  -2.070  -0.023  0.00  0.00    -0.255 N 
ATOM     10  C   UNL     1       0.500  -3.020  -0.019  0.00  0.00    +0.307 C 
ATOM     11  O   UNL     1      -0.674  -2.701  -0.006  0.00  0.00    -0.252 OA
ATOM     12  N   UNL     1       0.844  -4.322  -0.029  0.00  0.00    -0.296 N 
ATOM     13  H   UNL     1       1.906  -4.611  -0.041  0.00  0.00    +0.151 HD
ENDROOT
BRANCH  12  14
ATOM     14  C   UNL     1      -0.195  -5.355  -0.025  0.00  0.00    +0.077 C 
ATOM     15  C   UNL     1      -0.631  -5.636   1.416  0.00  0.00    +0.039 C 
ATOM     16  C   UNL     1      -1.671  -6.759   1.419  0.00  0.00    +0.087 C 
ATOM     17  N   UNL     1      -1.093  -7.967   0.817  0.00  0.00    -0.389 NA
ATOM     18  C   UNL     1      -0.711  -7.734  -0.581  0.00  0.00    +0.087 C 
ATOM     19  C   UNL     1       0.359  -6.641  -0.644  0.00  0.00    +0.039 C 
ATOM     20  H   UNL     1      -0.211  -8.283   1.394  0.00  0.00    +0.127 HD
BRANCH  17  21
ATOM     21  C   UNL     1      -1.955  -9.030   0.921  0.00  0.00    +0.089 C 
ATOM     22  C   UNL     1      -2.610  -9.675   1.978  0.00  0.00    +0.097 C 
ATOM     23  C   UNL     1      -3.268 -10.644   1.089  0.00  0.00    +0.189 C 
ATOM     24  O   UNL     1      -4.033 -11.581   1.215  0.00  0.00    -0.502 OA
ATOM     25  C   UNL     1      -2.571  -9.966  -0.030  0.00  0.00    +0.243 C 
ATOM     26  O   UNL     1      -2.526 -10.121  -1.236  0.00  0.00    -0.282 OA
ATOM     27  H   UNL     1      -4.392 -11.867   2.215  0.00  0.00    +0.292 HD
BRANCH  22  28
ATOM     28  N   UNL     1      -2.630  -9.478   3.336  0.00  0.00    -0.337 N 
ATOM     29  H   UNL     1      -2.102  -8.720   3.933  0.00  0.00    +0.147 HD
BRANCH  28  30
ATOM     30  C   UNL     1      -3.501 -10.458   3.998  0.00  0.00    +0.071 C 
ATOM     31  C   UNL     1      -4.439  -9.945   5.093  0.00  0.00    +0.024 C 
ATOM     32  C   UNL     1      -3.213 -10.782   5.466  0.00  0.00    +0.024 C 
ENDBRANCH  28  30
ENDBRANCH  22  28
ENDBRANCH  17  21
ENDBRANCH  12  14
BRANCH   1  33
ATOM     33  S   UNL     1       1.141   3.848   0.012  0.00  0.00    +0.060 S 
ATOM     34  O   UNL     1       2.374   4.277  -0.548  0.00  0.00    -0.153 OA
ATOM     35  O   UNL     1      -0.116   4.237  -0.525  0.00  0.00    -0.153 OA
BRANCH  33  37
ATOM     36  C   UNL     1       2.420   4.562   2.285  0.00  0.00    +0.131 C 
ATOM     37  N   UNL     1       1.148   4.329   1.596  0.00  0.00    -0.183 NA
ATOM     38  C   UNL     1      -0.117   4.522   2.309  0.00  0.00    +0.131 C 
ENDBRANCH  33  37
ENDBRANCH   1  33
TORSDOF 6
