REMARK  Name = ZINC28717441
REMARK  7 active torsions:
REMARK  status: ('A' for Active; 'I' for Inactive)
REMARK    1  A    between atoms: C_1  and  O_2
REMARK    2  A    between atoms: O_2  and  C_3
REMARK    3  A    between atoms: C_5  and  C_11
REMARK    4  A    between atoms: C_7  and  O_9
REMARK    5  A    between atoms: O_9  and  C_10
REMARK    6  A    between atoms: N_13  and  N_14
REMARK    7  A    between atoms: C_15  and  C_17
REMARK                            x       y       z     vdW  Elec       q    Type
REMARK                         _______ _______ _______ _____ _____    ______ ____
ROOT
ATOM      1  C   UNL     1       1.329  -4.083  -2.296  0.00  0.00    +0.260 C 
ATOM      2  O   UNL     1       0.834  -4.759  -1.416  0.00  0.00    -0.269 OA
ATOM      3  N   UNL     1       1.928  -4.678  -3.347  0.00  0.00    -0.230 N 
ATOM      4  H   UNL     1       2.323  -4.138  -4.049  0.00  0.00    +0.173 HD
ENDROOT
BRANCH   1   7
ATOM      5  C   UNL     1       0.606  -0.607  -1.056  0.00  0.00    +0.124 A 
ATOM      6  C   UNL     1       0.655  -1.990  -1.128  0.00  0.00    +0.059 A 
ATOM      7  C   UNL     1       1.274  -2.607  -2.215  0.00  0.00    +0.045 A 
ATOM      8  C   UNL     1       1.842  -1.830  -3.224  0.00  0.00    +0.059 A 
ATOM      9  C   UNL     1       1.789  -0.448  -3.144  0.00  0.00    +0.124 A 
ATOM     10  C   UNL     1       1.167   0.163  -2.064  0.00  0.00    +0.091 A 
BRANCH   5  12
ATOM     11  C   UNL     1      -0.017   1.425   0.010  0.00  0.00    +0.277 C 
ATOM     12  O   UNL     1       0.002  -0.004   0.002  0.00  0.00    -0.495 OA
ENDBRANCH   5  12
BRANCH   9  13
ATOM     13  O   UNL     1       2.342   0.311  -4.126  0.00  0.00    -0.495 OA
ATOM     14  C   UNL     1       2.251   1.729  -3.979  0.00  0.00    +0.277 C 
ENDBRANCH   9  13
ENDBRANCH   1   7
BRANCH   3  15
ATOM     15  N   UNL     1       1.980  -6.076  -3.424  0.00  0.00    -0.229 N 
ATOM     16  C   UNL     1       2.579  -6.671  -4.474  0.00  0.00    +0.276 C 
ATOM     17  O   UNL     1       3.075  -5.994  -5.356  0.00  0.00    -0.267 OA
ATOM     18  H   UNL     1       1.585  -6.615  -2.721  0.00  0.00    +0.173 HD
BRANCH  16  19
ATOM     19  C   UNL     1       2.634  -8.135  -4.555  0.00  0.00    +0.104 A 
ATOM     20  C   UNL     1       3.216  -8.874  -5.563  0.00  0.00    +0.047 A 
ATOM     21  C   UNL     1       3.038 -10.223  -5.238  0.00  0.00    +0.036 A 
ATOM     22  C   UNL     1       2.365 -10.282  -4.064  0.00  0.00    +0.098 A 
ATOM     23  N   UNL     1       2.118  -9.020  -3.636  0.00  0.00    -0.356 N 
ATOM     24  H   UNL     1       1.653  -8.780  -2.819  0.00  0.00    +0.166 HD
ATOM     25 BR   UNL     1       3.632 -11.701  -6.258  0.00  0.00    -0.049 Br
ENDBRANCH  16  19
ENDBRANCH   3  15
TORSDOF 5
