REMARK  Name = ZINC13201167
REMARK  10 active torsions:
REMARK  status: ('A' for Active; 'I' for Inactive)
REMARK    1  A    between atoms: C_1  and  C_2
REMARK    2  A    between atoms: C_7  and  N_8
REMARK    3  A    between atoms: C_9  and  C_11
REMARK    4  A    between atoms: C_11  and  S_12
REMARK    5  A    between atoms: S_12  and  C_13
REMARK    6  A    between atoms: C_16  and  C_21
REMARK    7  A    between atoms: N_17  and  C_18
REMARK    8  A    between atoms: C_18  and  C_19
REMARK    9  A    between atoms: C_24  and  O_27
REMARK   10  A    between atoms: O_27  and  C_28
REMARK                            x       y       z     vdW  Elec       q    Type
REMARK                         _______ _______ _______ _____ _____    ______ ____
ROOT
ATOM      1  C   UNL     1      -0.319   2.561   2.124  0.00  0.00    +0.193 A 
ATOM      2  N   UNL     1      -1.308   2.745   2.970  0.00  0.00    -0.122 NA
ATOM      3  N   UNL     1      -2.141   1.769   2.894  0.00  0.00    -0.128 NA
ATOM      4  C   UNL     1      -1.738   0.905   1.992  0.00  0.00    +0.165 A 
ATOM      5  N   UNL     1      -0.560   1.386   1.469  0.00  0.00    -0.291 N 
ENDROOT
BRANCH   4   6
ATOM      6  C   UNL     1      -2.420  -0.350   1.611  0.00  0.00    +0.020 A 
ATOM      7  C   UNL     1      -3.365  -0.920   2.466  0.00  0.00    +0.015 A 
ATOM      8  C   UNL     1      -4.003  -2.087   2.105  0.00  0.00    +0.046 A 
ATOM      9  C   UNL     1      -3.700  -2.702   0.897  0.00  0.00    +0.120 A 
ATOM     10  C   UNL     1      -2.756  -2.141   0.047  0.00  0.00    +0.046 A 
ATOM     11  C   UNL     1      -2.118  -0.971   0.398  0.00  0.00    +0.015 A 
BRANCH   9  12
ATOM     12  O   UNL     1      -4.327  -3.855   0.547  0.00  0.00    -0.495 OA
ATOM     13  C   UNL     1      -5.287  -4.377   1.468  0.00  0.00    +0.277 C 
ENDBRANCH   9  12
ENDBRANCH   4   6
BRANCH   1  14
ATOM     14  S   UNL     1       1.060   3.631   1.879  0.00  0.00    -0.077 S 
BRANCH  14  15
ATOM     15  C   UNL     1       0.669   4.927   3.080  0.00  0.00    +0.173 C 
BRANCH  15  17
ATOM     16  N   UNL     1       1.663   7.053   3.862  0.00  0.00    -0.285 N 
ATOM     17  C   UNL     1       1.743   5.983   3.046  0.00  0.00    +0.227 C 
ATOM     18  O   UNL     1       2.681   5.871   2.285  0.00  0.00    -0.275 OA
ATOM     19  H   UNL     1       0.948   7.112   4.516  0.00  0.00    +0.155 HD
BRANCH  16  26
ATOM     20  C   UNL     1       0.818   9.716   4.403  0.00  0.00    +0.046 C 
ATOM     21  C   UNL     1       2.240   9.393   4.022  0.00  0.00    -0.028 A 
ATOM     22  C   UNL     1       3.177  10.403   3.932  0.00  0.00    +0.020 A 
ATOM     23  C   UNL     1       4.481  10.108   3.576  0.00  0.00    +0.018 A 
ATOM     24  C   UNL     1       4.851   8.801   3.316  0.00  0.00    +0.017 A 
ATOM     25  C   UNL     1       3.919   7.786   3.410  0.00  0.00    +0.024 A 
ATOM     26  C   UNL     1       2.609   8.079   3.767  0.00  0.00    +0.036 A 
ATOM     27 BR   UNL     1       5.760  11.495   3.446  0.00  0.00    -0.050 Br
ENDBRANCH  16  26
ENDBRANCH  15  17
ENDBRANCH  14  15
ENDBRANCH   1  14
BRANCH   5  28
ATOM     28  C   UNL     1       0.266   0.766   0.430  0.00  0.00    +0.250 C 
BRANCH  28  29
ATOM     29  C   UNL     1      -0.157   1.281  -0.922  0.00  0.00    +0.375 C 
ATOM     30  O   UNL     1      -1.056   2.084  -1.008  0.00  0.00    -0.244 OA
ATOM     31  O   UNL     1       0.466   0.848  -2.029  0.00  0.00    -0.244 OA
ENDBRANCH  28  29
ENDBRANCH   5  28
TORSDOF 8
