REMARK  Name = ZINC09103378
REMARK  13 active torsions:
REMARK  status: ('A' for Active; 'I' for Inactive)
REMARK    1  A    between atoms: C_1  and  C_2
REMARK    2  A    between atoms: C_4  and  C_31
REMARK    3  A    between atoms: C_5  and  N_9
REMARK    4  A    between atoms: C_6  and  C_8
REMARK    5  A    between atoms: C_10  and  C_12
REMARK    6  A    between atoms: C_12  and  S_13
REMARK    7  A    between atoms: S_13  and  C_14
REMARK    8  A    between atoms: C_17  and  C_26
REMARK    9  A    between atoms: N_18  and  C_19
REMARK   10  A    between atoms: C_26  and  C_28
REMARK   11  A    between atoms: C_26  and  N_59
REMARK   12  A    between atoms: C_29  and  N_59
REMARK   13  A    between atoms: C_30  and  N_59
REMARK                            x       y       z     vdW  Elec       q    Type
REMARK                         _______ _______ _______ _____ _____    ______ ____
ROOT
ATOM      1  C   UNL     1      -7.471   0.972  -0.790  0.00  0.00    +0.197 A 
ATOM      2  N   UNL     1      -7.306  -0.302  -1.058  0.00  0.00    -0.122 NA
ATOM      3  N   UNL     1      -8.446  -0.857  -1.268  0.00  0.00    -0.135 NA
ATOM      4  C   UNL     1      -9.401   0.021  -1.147  0.00  0.00    +0.125 A 
ATOM      5  N   UNL     1      -8.816   1.219  -0.834  0.00  0.00    -0.275 N 
ENDROOT
BRANCH   5   6
ATOM      6  C   UNL     1      -9.461   2.444  -0.607  0.00  0.00    +0.050 A 
ATOM      7  C   UNL     1     -10.311   2.591   0.480  0.00  0.00    +0.028 A 
ATOM      8  C   UNL     1     -10.941   3.799   0.705  0.00  0.00    +0.022 A 
ATOM      9  C   UNL     1     -10.733   4.860  -0.160  0.00  0.00    +0.041 A 
ATOM     10  C   UNL     1      -9.890   4.714  -1.247  0.00  0.00    +0.022 A 
ATOM     11  C   UNL     1      -9.253   3.509  -1.472  0.00  0.00    +0.028 A 
ATOM     12 CL   UNL     1     -11.531   6.376   0.121  0.00  0.00    -0.084 Cl
ENDBRANCH   5   6
BRANCH   4  13
ATOM     13  C   UNL     1     -10.876  -0.235  -1.317  0.00  0.00    -0.003 C 
ATOM     14  C   UNL     1     -11.409  -0.979  -0.091  0.00  0.00    -0.005 C 
BRANCH  13  17
ATOM     15  C   UNL     1     -12.527  -1.320  -2.717  0.00  0.00    -0.096 C 
ATOM     16  C   UNL     1     -10.513  -0.409  -3.705  0.00  0.00    -0.096 C 
ATOM     17  N   UNL     1     -11.084  -1.075  -2.515  0.00  0.00    +0.382 N 
ATOM     18  H   UNL     1     -10.609  -1.975  -2.378  0.00  0.00    -0.082 HD
ENDBRANCH  13  17
ENDBRANCH   4  13
BRANCH   1  19
ATOM     19  S   UNL     1      -6.202   2.142  -0.435  0.00  0.00    -0.076 S 
BRANCH  19  20
ATOM     20  C   UNL     1      -4.746   1.073  -0.559  0.00  0.00    +0.173 C 
BRANCH  20  22
ATOM     21  N   UNL     1      -2.294   1.291  -0.322  0.00  0.00    -0.284 N 
ATOM     22  C   UNL     1      -3.504   1.882  -0.285  0.00  0.00    +0.228 C 
ATOM     23  O   UNL     1      -3.595   3.064  -0.031  0.00  0.00    -0.275 OA
ATOM     24  H   UNL     1      -2.226   0.331  -0.445  0.00  0.00    +0.155 HD
BRANCH  21  29
ATOM     25  C   UNL     1       2.413   4.408   0.244  0.00  0.00    +0.044 C 
ATOM     26  C   UNL     1       1.161   3.583   0.092  0.00  0.00    -0.050 A 
ATOM     27  C   UNL     1       0.190   3.615   1.076  0.00  0.00    +0.008 A 
ATOM     28  C   UNL     1      -0.958   2.859   0.940  0.00  0.00    -0.029 A 
ATOM     29  C   UNL     1      -1.134   2.062  -0.184  0.00  0.00    +0.039 A 
ATOM     30  C   UNL     1      -0.160   2.038  -1.173  0.00  0.00    -0.029 A 
ATOM     31  C   UNL     1       0.986   2.795  -1.031  0.00  0.00    +0.008 A 
ATOM     32  C   UNL     1      -0.350   1.180  -2.398  0.00  0.00    +0.045 C 
ATOM     33  C   UNL     1      -2.016   2.893   2.013  0.00  0.00    +0.045 C 
ENDBRANCH  21  29
ENDBRANCH  20  22
ENDBRANCH  19  20
ENDBRANCH   1  19
TORSDOF 7
