REMARK  Name = ZINC64946310
REMARK  6 active torsions:
REMARK  status: ('A' for Active; 'I' for Inactive)
REMARK    1  A    between atoms: C_1  and  O_2
REMARK    2  A    between atoms: O_2  and  C_3
REMARK    3  A    between atoms: C_6  and  C_9
REMARK    4  A    between atoms: C_9  and  N_10
REMARK    5  A    between atoms: N_21  and  C_24
REMARK    6  A    between atoms: C_24  and  C_25
REMARK                            x       y       z     vdW  Elec       q    Type
REMARK                         _______ _______ _______ _____ _____    ______ ____
ROOT
ATOM      1  N   UNL     1      -5.423  -2.855  -1.343  0.00  0.00    -0.272 N 
ATOM      2  C   UNL     1      -6.167  -1.923  -1.976  0.00  0.00    +0.270 A 
ATOM      3  O   UNL     1      -6.473  -0.892  -1.404  0.00  0.00    -0.266 OA
ATOM      4  C   UNL     1      -6.585  -2.147  -3.294  0.00  0.00    +0.101 A 
ATOM      5  C   UNL     1      -6.257  -3.313  -3.986  0.00  0.00    +0.074 A 
ATOM      6  C   UNL     1      -6.760  -3.357  -5.283  0.00  0.00    +0.035 A 
ATOM      7  C   UNL     1      -7.491  -2.322  -5.753  0.00  0.00    +0.048 A 
ATOM      8  S   UNL     1      -7.542  -1.232  -4.474  0.00  0.00    -0.090 S 
ATOM      9  N   UNL     1      -5.481  -4.262  -3.293  0.00  0.00    -0.228 N 
ATOM     10  C   UNL     1      -5.073  -4.026  -2.003  0.00  0.00    +0.240 A 
ATOM     11  N   UNL     1      -4.368  -5.049  -1.600  0.00  0.00    -0.129 NA
ATOM     12  N   UNL     1      -4.305  -5.975  -2.649  0.00  0.00    -0.206 N 
ATOM     13  C   UNL     1      -5.011  -5.464  -3.681  0.00  0.00    +0.353 A 
ATOM     14  O   UNL     1      -5.179  -5.988  -4.768  0.00  0.00    -0.244 OA
ENDROOT
BRANCH   1  15
ATOM     15  C   UNL     1      -4.981  -2.629   0.035  0.00  0.00    +0.163 C 
BRANCH  15  19
ATOM     16  C   UNL     1      -1.200  -0.637   0.010  0.00  0.00    +0.120 A 
ATOM     17  C   UNL     1      -2.375   0.101   0.019  0.00  0.00    +0.046 A 
ATOM     18  C   UNL     1      -3.596  -0.545   0.027  0.00  0.00    +0.009 A 
ATOM     19  C   UNL     1      -3.648  -1.927   0.026  0.00  0.00    -0.027 A 
ATOM     20  C   UNL     1      -2.479  -2.665   0.017  0.00  0.00    +0.009 A 
ATOM     21  C   UNL     1      -1.255  -2.024   0.003  0.00  0.00    +0.046 A 
BRANCH  16  23
ATOM     22  C   UNL     1      -0.017   1.425   0.010  0.00  0.00    +0.277 C 
ATOM     23  O   UNL     1       0.002  -0.004   0.002  0.00  0.00    -0.495 OA
ENDBRANCH  16  23
ENDBRANCH  15  19
ENDBRANCH   1  15
BRANCH  12  24
ATOM     24  C   UNL     1      -3.612  -7.266  -2.626  0.00  0.00    +0.184 C 
BRANCH  24  25
ATOM     25  C   UNL     1      -2.193  -7.082  -3.099  0.00  0.00    -0.026 A 
ATOM     26  C   UNL     1      -1.892  -7.200  -4.443  0.00  0.00    +0.006 A 
ATOM     27  C   UNL     1      -0.591  -7.032  -4.878  0.00  0.00    +0.015 A 
ATOM     28  C   UNL     1       0.410  -6.745  -3.967  0.00  0.00    +0.018 A 
ATOM     29  C   UNL     1       0.109  -6.628  -2.623  0.00  0.00    +0.015 A 
ATOM     30  C   UNL     1      -1.194  -6.791  -2.190  0.00  0.00    +0.006 A 
ATOM     31 BR   UNL     1       2.191  -6.516  -4.561  0.00  0.00    -0.050 Br
ENDBRANCH  24  25
ENDBRANCH  12  24
TORSDOF 5
