REMARK  Name = ZINC55126914
REMARK  5 active torsions:
REMARK  status: ('A' for Active; 'I' for Inactive)
REMARK    1  A    between atoms: C_1  and  C_2
REMARK    2  A    between atoms: C_7  and  N_10
REMARK    3  A    between atoms: C_11  and  C_13
REMARK    4  A    between atoms: C_17  and  C_23
REMARK    5  A    between atoms: C_19  and  N_22
REMARK                            x       y       z     vdW  Elec       q    Type
REMARK                         _______ _______ _______ _____ _____    ______ ____
ROOT
ATOM      1  N   UNL     1       1.471  -2.526   2.420  0.00  0.00    -0.312 N 
ATOM      2  C   UNL     1       2.056  -3.740   2.406  0.00  0.00    +0.216 C 
ATOM      3  O   UNL     1       1.996  -4.431   1.411  0.00  0.00    -0.276 OA
ATOM      4  H   UNL     1       1.520  -1.974   3.216  0.00  0.00    +0.149 HD
ENDROOT
BRANCH   1  10
ATOM      5  C   UNL     1      -0.019   1.526   0.010  0.00  0.00    +0.007 C 
ATOM      6  C   UNL     1       0.002  -0.004   0.002  0.00  0.00    -0.012 C 
ATOM      7  C   UNL     1      -1.433  -0.534   0.013  0.00  0.00    +0.003 C 
ATOM      8  C   UNL     1      -1.413  -2.063   0.004  0.00  0.00    +0.002 C 
ATOM      9  C   UNL     1      -0.673  -2.570   1.244  0.00  0.00    +0.022 C 
ATOM     10  C   UNL     1       0.763  -2.041   1.233  0.00  0.00    +0.073 C 
ATOM     11  C   UNL     1       0.742  -0.511   1.242  0.00  0.00    +0.025 C 
ENDBRANCH   1  10
BRANCH   2  12
ATOM     12  C   UNL     1       2.785  -4.239   3.627  0.00  0.00    +0.073 C 
ATOM     13  C   UNL     1       3.929  -3.281   3.965  0.00  0.00    +0.013 C 
ATOM     14  C   UNL     1       4.670  -3.788   5.205  0.00  0.00    +0.002 C 
ATOM     15  C   UNL     1       5.236  -5.182   4.926  0.00  0.00    -0.029 C 
ATOM     16  C   UNL     1       4.092  -6.140   4.588  0.00  0.00    -0.072 C 
ATOM     17  C   UNL     1       3.352  -5.633   3.348  0.00  0.00    -0.003 C 
ATOM     18  C   UNL     1       6.207  -5.111   3.746  0.00  0.00    +0.006 C 
BRANCH  16  19
ATOM     19  N   UNL     1       4.636  -7.478   4.320  0.00  0.00    +0.380 N 
ATOM     20  H   UNL     1       5.124  -7.812   5.138  0.00  0.00    -0.090 HD
ATOM     21  H   UNL     1       3.882  -8.109   4.097  0.00  0.00    -0.090 HD
ATOM     22  H   UNL     1       5.277  -7.431   3.542  0.00  0.00    -0.090 HD
ENDBRANCH  16  19
ENDBRANCH   2  12
TORSDOF 3
