REMARK  Name = ZINC53523131
REMARK  5 active torsions:
REMARK  status: ('A' for Active; 'I' for Inactive)
REMARK    1  A    between atoms: C_1  and  S_2
REMARK    2  A    between atoms: S_2  and  N_5
REMARK    3  A    between atoms: N_13  and  C_14
REMARK    4  A    between atoms: C_14  and  C_15
REMARK    5  A    between atoms: C_15  and  N_21
REMARK                            x       y       z     vdW  Elec       q    Type
REMARK                         _______ _______ _______ _____ _____    ______ ____
ROOT
ATOM      1  N   UNL     1       1.843  -5.396  -8.857  0.00  0.00    -0.178 NA
ATOM      2  C   UNL     1       0.953  -4.228  -8.804  0.00  0.00    +0.128 C 
ATOM      3  C   UNL     1       1.068  -3.587  -7.416  0.00  0.00    +0.126 C 
ATOM      4  N   UNL     1       2.491  -3.407  -7.098  0.00  0.00    -0.283 N 
ATOM      5  C   UNL     1       3.382  -4.575  -7.150  0.00  0.00    +0.126 C 
ATOM      6  C   UNL     1       3.266  -5.217  -8.533  0.00  0.00    +0.128 C 
ATOM      7  C   UNL     1       2.971  -2.193  -6.764  0.00  0.00    +0.302 C 
ATOM      8  O   UNL     1       2.249  -1.216  -6.822  0.00  0.00    -0.253 OA
ATOM      9  N   UNL     1       4.252  -2.061  -6.365  0.00  0.00    -0.301 N 
ATOM     10  H   UNL     1       4.848  -2.826  -6.386  0.00  0.00    +0.150 HD
ENDROOT
BRANCH   1  12
ATOM     11  C   UNL     1       0.745  -7.636  -7.695  0.00  0.00    +0.215 C 
ATOM     12  S   UNL     1       1.254  -6.888  -9.267  0.00  0.00    +0.029 S 
ATOM     13  O   UNL     1       2.370  -7.585  -9.802  0.00  0.00    -0.158 OA
ATOM     14  O   UNL     1       0.114  -6.619 -10.072  0.00  0.00    -0.158 OA
ENDBRANCH   1  12
BRANCH   9  15
ATOM     15  C   UNL     1       4.744  -0.762  -5.898  0.00  0.00    +0.094 C 
BRANCH  15  16
ATOM     16  C   UNL     1       6.247  -0.854  -5.626  0.00  0.00    -0.050 C 
ATOM     17  C   UNL     1       6.978  -1.218  -6.920  0.00  0.00    -0.010 C 
ATOM     18  C   UNL     1       6.715  -0.141  -7.975  0.00  0.00    -0.001 C 
ATOM     19  C   UNL     1       7.224   1.209  -7.464  0.00  0.00    -0.000 C 
ATOM     20  C   UNL     1       6.493   1.573  -6.170  0.00  0.00    -0.001 C 
ATOM     21  C   UNL     1       6.755   0.496  -5.115  0.00  0.00    -0.010 C 
BRANCH  16  22
ATOM     22  N   UNL     1       6.499  -1.887  -4.614  0.00  0.00    +0.384 N 
ATOM     23  C   UNL     1       7.929  -1.909  -4.285  0.00  0.00    -0.078 C 
ATOM     24  C   UNL     1       8.211  -3.038  -3.291  0.00  0.00    -0.019 C 
ATOM     25  C   UNL     1       7.395  -2.803  -2.016  0.00  0.00    -0.004 C 
ATOM     26  C   UNL     1       5.911  -2.708  -2.381  0.00  0.00    -0.019 C 
ATOM     27  C   UNL     1       5.715  -1.592  -3.409  0.00  0.00    -0.078 C 
ATOM     28  H   UNL     1       6.226  -2.788  -4.979  0.00  0.00    -0.081 HD
ENDBRANCH  16  22
ENDBRANCH  15  16
ENDBRANCH   9  15
TORSDOF 4
