REMARK  Name = ZINC47534794
REMARK  4 active torsions:
REMARK  status: ('A' for Active; 'I' for Inactive)
REMARK    1  A    between atoms: C_1  and  C_2
REMARK    2  A    between atoms: C_2  and  C_4
REMARK    3  A    between atoms: C_2  and  N_16
REMARK    4  A    between atoms: C_17  and  C_19
REMARK                            x       y       z     vdW  Elec       q    Type
REMARK                         _______ _______ _______ _____ _____    ______ ____
ROOT
ATOM      1  C   UNL     1      -0.019   1.526   0.010  0.00  0.00    +0.033 C 
ATOM      2  C   UNL     1       0.002  -0.004   0.002  0.00  0.00    +0.100 C 
ENDROOT
BRANCH   2   3
ATOM      3  C   UNL     1       0.731  -0.503   1.223  0.00  0.00    -0.025 A 
ATOM      4  C   UNL     1       2.115  -0.512   1.244  0.00  0.00    +0.007 A 
ATOM      5  C   UNL     1       2.792  -0.968   2.358  0.00  0.00    +0.028 A 
ATOM      6  C   UNL     1       2.082  -1.418   3.461  0.00  0.00    +0.067 A 
ATOM      7  C   UNL     1       0.686  -1.409   3.440  0.00  0.00    +0.067 A 
ATOM      8  C   UNL     1       0.015  -0.944   2.319  0.00  0.00    +0.033 A 
ATOM      9  N   UNL     1       0.262  -1.910   4.668  0.00  0.00    -0.306 N 
ATOM     10  H   UNL     1      -0.660  -2.023   4.947  0.00  0.00    +0.170 HD
ATOM     11  C   UNL     1       1.350  -2.210   5.402  0.00  0.00    +0.325 A 
ATOM     12  O   UNL     1       1.330  -2.670   6.529  0.00  0.00    -0.247 OA
ATOM     13  N   UNL     1       2.463  -1.924   4.701  0.00  0.00    -0.306 N 
ATOM     14  H   UNL     1       3.375  -2.050   5.007  0.00  0.00    +0.170 HD
ENDBRANCH   2   3
BRANCH   2  15
ATOM     15  N   UNL     1       0.688  -0.476  -1.203  0.00  0.00    -0.305 N 
ATOM     16  C   UNL     1       0.006  -0.608  -2.358  0.00  0.00    +0.245 C 
ATOM     17  O   UNL     1      -1.178  -0.335  -2.400  0.00  0.00    -0.270 OA
ATOM     18  H   UNL     1       1.632  -0.695  -1.170  0.00  0.00    +0.150 HD
BRANCH  16  19
ATOM     19  C   UNL     1       0.695  -1.083  -3.570  0.00  0.00    +0.047 A 
ATOM     20  C   UNL     1       2.033  -1.405  -3.550  0.00  0.00    +0.058 A 
ATOM     21  S   UNL     1       2.364  -1.885  -5.125  0.00  0.00    -0.101 S 
ATOM     22  C   UNL     1       0.762  -1.676  -5.844  0.00  0.00    -0.006 A 
ATOM     23  C   UNL     1      -0.012  -1.234  -4.827  0.00  0.00    -0.025 A 
ATOM     24  C   UNL     1      -1.488  -0.930  -5.031  0.00  0.00    +0.037 C 
ATOM     25  C   UNL     1      -1.753  -0.771  -6.530  0.00  0.00    +0.005 C 
ATOM     26  C   UNL     1      -1.204  -1.984  -7.288  0.00  0.00    +0.005 C 
ATOM     27  C   UNL     1       0.333  -1.931  -7.256  0.00  0.00    +0.043 C 
ENDBRANCH  16  19
ENDBRANCH   2  15
TORSDOF 3
