REMARK  Name = ZINC03530418
REMARK  7 active torsions:
REMARK  status: ('A' for Active; 'I' for Inactive)
REMARK    1  A    between atoms: C_4  and  O_7
REMARK    2  A    between atoms: O_7  and  C_8
REMARK    3  A    between atoms: C_8  and  C_9
REMARK    4  A    between atoms: C_17  and  C_18
REMARK    5  A    between atoms: C_18  and  O_20
REMARK    6  A    between atoms: O_20  and  C_21
REMARK    7  A    between atoms: C_21  and  C_22
REMARK                            x       y       z     vdW  Elec       q    Type
REMARK                         _______ _______ _______ _____ _____    ______ ____
ROOT
ATOM      1  C   UNL     1      -2.521   1.340   0.021  0.00  0.00    +0.050 A 
ATOM      2  C   UNL     1      -3.494   2.432   0.032  0.00  0.00    +0.027 A 
ATOM      3  C   UNL     1      -4.890   2.492   0.040  0.00  0.00    +0.012 A 
ATOM      4  C   UNL     1      -5.515   3.707   0.050  0.00  0.00    +0.001 A 
ATOM      5  C   UNL     1      -4.772   4.880   0.053  0.00  0.00    +0.004 A 
ATOM      6  C   UNL     1      -3.395   4.842   0.046  0.00  0.00    +0.047 A 
ATOM      7  C   UNL     1      -2.736   3.618   0.035  0.00  0.00    +0.136 A 
ATOM      8  O   UNL     1      -1.435   3.271   0.033  0.00  0.00    -0.448 OA
ATOM      9  C   UNL     1      -1.296   1.928   0.019  0.00  0.00    +0.219 A 
ENDROOT
BRANCH   9  10
ATOM     10  C   UNL     1      -0.014   1.212   0.009  0.00  0.00    +0.376 C 
ATOM     11  O   UNL     1       0.002  -0.004   0.002  0.00  0.00    -0.241 OA
BRANCH  10  12
ATOM     12  O   UNL     1       1.144   1.902   0.001  0.00  0.00    -0.450 OA
BRANCH  12  13
ATOM     13  C   UNL     1       2.373   1.128  -0.015  0.00  0.00    +0.328 C 
BRANCH  13  14
ATOM     14  C   UNL     1       3.555   2.062  -0.021  0.00  0.00    +0.258 C 
ATOM     15  O   UNL     1       3.380   3.261  -0.013  0.00  0.00    -0.272 OA
ATOM     16  N   UNL     1       4.807   1.564  -0.035  0.00  0.00    -0.238 N 
ATOM     17  C   UNL     1       5.865   2.399  -0.041  0.00  0.00    +0.303 C 
ATOM     18  O   UNL     1       5.689   3.602  -0.033  0.00  0.00    -0.253 OA
ATOM     19  N   UNL     1       7.117   1.901  -0.056  0.00  0.00    -0.313 N 
ATOM     20  H   UNL     1       4.947   0.604  -0.042  0.00  0.00    +0.159 HD
ATOM     21  H   UNL     1       7.257   0.941  -0.062  0.00  0.00    +0.146 HD
ATOM     22  H   UNL     1       7.878   2.502  -0.060  0.00  0.00    +0.146 HD
ENDBRANCH  13  14
ENDBRANCH  12  13
ENDBRANCH  10  12
ENDBRANCH   9  10
BRANCH   1  23
ATOM     23  C   UNL     1      -2.817  -0.137   0.015  0.00  0.00    +0.269 C 
BRANCH  23  24
ATOM     24  O   UNL     1      -2.903  -0.612   1.360  0.00  0.00    -0.487 OA
BRANCH  24  28
ATOM     25  C   UNL     1      -3.704  -4.625   1.882  0.00  0.00    +0.000 A 
ATOM     26  C   UNL     1      -3.533  -3.806   2.983  0.00  0.00    +0.004 A 
ATOM     27  C   UNL     1      -3.265  -2.462   2.811  0.00  0.00    +0.045 A 
ATOM     28  C   UNL     1      -3.167  -1.934   1.532  0.00  0.00    +0.121 A 
ATOM     29  C   UNL     1      -3.345  -2.756   0.429  0.00  0.00    +0.045 A 
ATOM     30  C   UNL     1      -3.606  -4.101   0.606  0.00  0.00    +0.004 A 
ENDBRANCH  24  28
ENDBRANCH  23  24
ENDBRANCH   1  23
TORSDOF 7
