REMARK  Name = ZINC39681250
REMARK  6 active torsions:
REMARK  status: ('A' for Active; 'I' for Inactive)
REMARK    1  A    between atoms: C_5  and  O_7
REMARK    2  A    between atoms: O_7  and  C_8
REMARK    3  A    between atoms: C_8  and  C_9
REMARK    4  A    between atoms: C_9  and  N_10
REMARK    5  A    between atoms: C_11  and  C_13
REMARK    6  A    between atoms: C_24  and  C_26
REMARK                            x       y       z     vdW  Elec       q    Type
REMARK                         _______ _______ _______ _____ _____    ______ ____
ROOT
ATOM      1  C   UNL     1       2.142  -6.266   3.330  0.00  0.00    +0.100 C 
ATOM      2  C   UNL     1       1.026  -5.832   4.307  0.00  0.00    +0.121 C 
ATOM      3  N   UNL     1       0.237  -7.064   4.543  0.00  0.00    -0.296 N 
ATOM      4  C   UNL     1       1.251  -8.142   4.627  0.00  0.00    +0.115 C 
ATOM      5  C   UNL     1       2.289  -7.781   3.546  0.00  0.00    -0.004 C 
ATOM      6  C   UNL     1       1.985  -8.531   2.252  0.00  0.00    -0.010 C 
ATOM      7  C   UNL     1       2.193 -10.031   2.477  0.00  0.00    -0.082 C 
ATOM      8  N   UNL     1       3.578 -10.278   2.894  0.00  0.00    +0.379 N 
ATOM      9  C   UNL     1       3.835  -9.629   4.186  0.00  0.00    -0.082 C 
ATOM     10  C   UNL     1       3.696  -8.112   4.034  0.00  0.00    -0.010 C 
ATOM     11  C   UNL     1      -1.101  -7.178   4.657  0.00  0.00    +0.247 C 
ATOM     12  O   UNL     1      -1.814  -6.218   4.439  0.00  0.00    -0.270 OA
ATOM     13  H   UNL     1       3.730 -11.271   2.982  0.00  0.00    -0.086 HD
ATOM     14  H   UNL     1       4.209  -9.905   2.200  0.00  0.00    -0.086 HD
ENDROOT
BRANCH  11  15
ATOM     15  C   UNL     1      -1.702  -8.472   5.047  0.00  0.00    +0.038 A 
ATOM     16  C   UNL     1      -0.933  -9.432   5.707  0.00  0.00    +0.013 A 
ATOM     17  C   UNL     1      -1.499 -10.636   6.068  0.00  0.00    +0.002 A 
ATOM     18  C   UNL     1      -2.827 -10.896   5.777  0.00  0.00    +0.015 A 
ATOM     19  C   UNL     1      -3.596  -9.949   5.122  0.00  0.00    +0.019 A 
ATOM     20  C   UNL     1      -3.042  -8.736   4.761  0.00  0.00    +0.028 A 
ATOM     21 BR   UNL     1      -5.409 -10.314   4.729  0.00  0.00    -0.050 Br
ENDBRANCH  11  15
BRANCH   1  23
ATOM     22  N   UNL     1       2.680  -5.815   0.958  0.00  0.00    -0.312 N 
ATOM     23  C   UNL     1       1.737  -5.975   1.908  0.00  0.00    +0.218 C 
ATOM     24  O   UNL     1       0.563  -5.884   1.619  0.00  0.00    -0.275 OA
ATOM     25  H   UNL     1       3.619  -5.888   1.190  0.00  0.00    +0.149 HD
BRANCH  22  26
ATOM     26  C   UNL     1       2.286  -5.533  -0.424  0.00  0.00    +0.145 C 
BRANCH  26  27
ATOM     27  C   UNL     1       3.538  -5.398  -1.294  0.00  0.00    +0.248 C 
BRANCH  27  28
ATOM     28  O   UNL     1       4.220  -6.653  -1.344  0.00  0.00    -0.489 OA
BRANCH  28  33
ATOM     29  C   UNL     1       6.974  -5.630  -3.490  0.00  0.00    +0.004 A 
ATOM     30  C   UNL     1       7.684  -6.813  -3.581  0.00  0.00    +0.002 A 
ATOM     31  C   UNL     1       7.235  -7.943  -2.924  0.00  0.00    +0.023 A 
ATOM     32  C   UNL     1       6.075  -7.893  -2.173  0.00  0.00    +0.083 A 
ATOM     33  C   UNL     1       5.361  -6.705  -2.081  0.00  0.00    +0.139 A 
ATOM     34  C   UNL     1       5.814  -5.574  -2.742  0.00  0.00    +0.047 A 
ATOM     35 CL   UNL     1       5.511  -9.312  -1.348  0.00  0.00    -0.080 Cl
ENDBRANCH  28  33
ENDBRANCH  27  28
ENDBRANCH  26  27
ENDBRANCH  22  26
ENDBRANCH   1  23
TORSDOF 6
