REMARK  Name = ZINC05390635
REMARK  4 active torsions:
REMARK  status: ('A' for Active; 'I' for Inactive)
REMARK    1  A    between atoms: C_1  and  C_2
REMARK    2  A    between atoms: C_7  and  N_8
REMARK    3  A    between atoms: C_9  and  C_11
REMARK    4  A    between atoms: C_11  and  N_12
REMARK                            x       y       z     vdW  Elec       q    Type
REMARK                         _______ _______ _______ _____ _____    ______ ____
ROOT
ATOM      1  N   UNL     1      -2.448   3.833   0.047  0.00  0.00    -0.289 N 
ATOM      2  C   UNL     1      -1.225   3.155   0.028  0.00  0.00    +0.048 A 
ATOM      3  C   UNL     1      -0.033   3.863   0.013  0.00  0.00    +0.024 A 
ATOM      4  C   UNL     1       1.174   3.186  -0.009  0.00  0.00    +0.002 A 
ATOM      5  C   UNL     1       1.201   1.804  -0.015  0.00  0.00    +0.001 A 
ATOM      6  C   UNL     1       0.016   1.087   0.001  0.00  0.00    +0.017 A 
ATOM      7  C   UNL     1      -1.191   1.758   0.017  0.00  0.00    +0.034 A 
ATOM      8  S   UNL     1      -2.717   0.871   0.047  0.00  0.00    -0.086 S 
ATOM      9  C   UNL     1      -3.820   1.997  -0.749  0.00  0.00    +0.034 A 
ATOM     10  C   UNL     1      -3.562   3.367  -0.660  0.00  0.00    +0.048 A 
ATOM     11  C   UNL     1      -4.420   4.261  -1.281  0.00  0.00    +0.024 A 
ATOM     12  C   UNL     1      -5.519   3.794  -1.980  0.00  0.00    +0.002 A 
ATOM     13  C   UNL     1      -5.770   2.438  -2.064  0.00  0.00    +0.001 A 
ATOM     14  C   UNL     1      -4.919   1.535  -1.447  0.00  0.00    +0.017 A 
ENDROOT
BRANCH   1  15
ATOM     15  C   UNL     1      -2.567   5.065   0.831  0.00  0.00    +0.207 C 
BRANCH  15  17
ATOM     16  N   UNL     1      -2.243   7.492   0.480  0.00  0.00    -0.284 N 
ATOM     17  C   UNL     1      -2.205   6.246  -0.033  0.00  0.00    +0.235 C 
ATOM     18  O   UNL     1      -1.880   6.075  -1.189  0.00  0.00    -0.274 OA
ATOM     19  H   UNL     1      -2.579   7.637   1.378  0.00  0.00    +0.155 HD
BRANCH  16  26
ATOM     20  C   UNL     1      -3.269  10.076   1.086  0.00  0.00    +0.045 C 
ATOM     21  C   UNL     1      -2.272   9.854  -0.022  0.00  0.00    -0.029 A 
ATOM     22  C   UNL     1      -1.831  10.922  -0.778  0.00  0.00    +0.005 A 
ATOM     23  C   UNL     1      -0.915  10.720  -1.795  0.00  0.00    +0.000 A 
ATOM     24  C   UNL     1      -0.440   9.449  -2.058  0.00  0.00    +0.002 A 
ATOM     25  C   UNL     1      -0.873   8.377  -1.302  0.00  0.00    +0.023 A 
ATOM     26  C   UNL     1      -1.797   8.576  -0.284  0.00  0.00    +0.036 A 
ENDBRANCH  16  26
ENDBRANCH  15  17
ENDBRANCH   1  15
TORSDOF 3
