REMARK  Name = ZINC50651107
REMARK  5 active torsions:
REMARK  status: ('A' for Active; 'I' for Inactive)
REMARK    1  A    between atoms: C_3  and  N_21
REMARK    2  A    between atoms: C_4  and  S_10
REMARK    3  A    between atoms: C_6  and  N_7
REMARK    4  A    between atoms: S_10  and  N_13
REMARK    5  A    between atoms: N_13  and  C_14
REMARK                            x       y       z     vdW  Elec       q    Type
REMARK                         _______ _______ _______ _____ _____    ______ ____
ROOT
ATOM      1  C   UNL     1       0.999   1.912   0.976  0.00  0.00    +0.034 A 
ATOM      2  C   UNL     1       0.867   0.909   0.035  0.00  0.00    +0.027 A 
ATOM      3  C   UNL     1       1.956   0.105  -0.277  0.00  0.00    +0.051 A 
ATOM      4  C   UNL     1       3.174   0.313   0.358  0.00  0.00    +0.128 A 
ATOM      5  C   UNL     1       3.298   1.317   1.297  0.00  0.00    +0.063 A 
ATOM      6  C   UNL     1       2.212   2.116   1.606  0.00  0.00    +0.128 A 
ENDROOT
BRANCH   6   7
ATOM      7  N   UNL     1       2.349   3.192   2.613  0.00  0.00    +0.056 N 
ATOM      8  O   UNL     1       1.401   3.891   2.884  0.00  0.00    -0.126 OA
ATOM      9  O   UNL     1       3.410   3.371   3.165  0.00  0.00    -0.126 OA
ENDBRANCH   6   7
BRANCH   4  10
ATOM     10  S   UNL     1       4.558  -0.705  -0.034  0.00  0.00    +0.060 S 
ATOM     11  O   UNL     1       5.640  -0.243   0.763  0.00  0.00    -0.153 OA
ATOM     12  O   UNL     1       4.099  -2.049   0.009  0.00  0.00    -0.153 OA
BRANCH  10  13
ATOM     13  N   UNL     1       4.963  -0.394  -1.609  0.00  0.00    -0.187 NA
ATOM     14  H   UNL     1       4.904  -1.098  -2.274  0.00  0.00    +0.148 HD
BRANCH  13  15
ATOM     15  C   UNL     1       5.413   0.945  -1.999  0.00  0.00    +0.077 C 
ATOM     16  C   UNL     1       4.328   1.599  -2.879  0.00  0.00    +0.020 C 
ATOM     17  C   UNL     1       4.527   3.091  -2.854  0.00  0.00    +0.002 C 
ATOM     18  C   UNL     1       5.382   3.591  -4.034  0.00  0.00    +0.000 C 
ATOM     19  C   UNL     1       6.586   2.678  -4.330  0.00  0.00    +0.000 C 
ATOM     20  C   UNL     1       7.273   2.206  -3.076  0.00  0.00    +0.002 C 
ATOM     21  C   UNL     1       6.691   0.831  -2.687  0.00  0.00    +0.020 C 
ENDBRANCH  13  15
ENDBRANCH  10  13
ENDBRANCH   4  10
BRANCH   3  22
ATOM     22  N   UNL     1       1.826  -0.910  -1.228  0.00  0.00    -0.356 N 
ATOM     23  H   UNL     1       0.965  -1.080  -1.642  0.00  0.00    +0.142 HD
ATOM     24  H   UNL     1       2.596  -1.446  -1.474  0.00  0.00    +0.142 HD
ENDBRANCH   3  22
TORSDOF 5
