REMARK  Name = ZINC65967118
REMARK  11 active torsions:
REMARK  status: ('A' for Active; 'I' for Inactive)
REMARK    1  A    between atoms: C_1  and  C_2
REMARK    2  A    between atoms: C_2  and  C_3
REMARK    3  A    between atoms: C_2  and  C_4
REMARK    4  A    between atoms: C_2  and  O_5
REMARK    5  A    between atoms: O_5  and  C_6
REMARK    6  A    between atoms: N_8  and  C_9
REMARK    7  A    between atoms: C_9  and  C_10
REMARK    8  A    between atoms: C_9  and  C_11
REMARK    9  A    between atoms: C_9  and  C_12
REMARK   10  A    between atoms: C_14  and  C_17
REMARK   11  A    between atoms: C_17  and  N_18
REMARK                            x       y       z     vdW  Elec       q    Type
REMARK                         _______ _______ _______ _____ _____    ______ ____
ROOT
ATOM      1  C   UNL     1       4.570  -0.648  -3.886  0.00  0.00    +0.194 A 
ATOM      2  N   UNL     1       5.810  -0.477  -4.359  0.00  0.00    -0.195 NA
ATOM      3  C   UNL     1       5.949  -1.108  -5.492  0.00  0.00    +0.211 A 
ATOM      4  O   UNL     1       4.788  -1.709  -5.782  0.00  0.00    -0.340 OA
ATOM      5  N   UNL     1       3.903  -1.399  -4.715  0.00  0.00    -0.059 NA
ENDROOT
BRANCH   1   6
ATOM      6  C   UNL     1       4.035  -0.071  -2.601  0.00  0.00    +0.095 C 
ATOM      7  C   UNL     1       4.111   1.456  -2.657  0.00  0.00    +0.040 C 
ATOM      8  C   UNL     1       4.872  -0.581  -1.426  0.00  0.00    +0.040 C 
BRANCH   6  11
ATOM      9  C   UNL     1       1.952  -0.085  -1.337  0.00  0.00    +0.402 C 
ATOM     10  O   UNL     1       2.488   0.619  -0.503  0.00  0.00    -0.226 OA
ATOM     11  N   UNL     1       2.641  -0.485  -2.424  0.00  0.00    -0.269 N 
ATOM     12  H   UNL     1       2.213  -1.047  -3.089  0.00  0.00    +0.153 HD
BRANCH   9  13
ATOM     13  O   UNL     1       0.671  -0.465  -1.174  0.00  0.00    -0.445 OA
BRANCH  13  15
ATOM     14  C   UNL     1      -0.019   1.526   0.010  0.00  0.00    +0.055 C 
ATOM     15  C   UNL     1       0.002  -0.004   0.002  0.00  0.00    +0.107 C 
ATOM     16  C   UNL     1       0.742  -0.511   1.242  0.00  0.00    +0.055 C 
ATOM     17  C   UNL     1      -1.433  -0.534   0.013  0.00  0.00    +0.055 C 
ENDBRANCH  13  15
ENDBRANCH   9  13
ENDBRANCH   6  11
ENDBRANCH   1   6
BRANCH   3  18
ATOM     18  C   UNL     1       7.200  -1.153  -6.330  0.00  0.00    +0.022 C 
BRANCH  18  19
ATOM     19  N   UNL     1       8.023  -2.300  -5.921  0.00  0.00    +0.388 N 
ATOM     20  C   UNL     1       8.325  -2.155  -4.528  0.00  0.00    -0.074 C 
ATOM     21  C   UNL     1       9.529  -2.903  -4.047  0.00  0.00    -0.027 C 
ATOM     22  C   UNL     1       9.665  -4.305  -4.603  0.00  0.00    +0.005 C 
ATOM     23  C   UNL     1      10.377  -4.370  -5.943  0.00  0.00    -0.012 C 
ATOM     24  C   UNL     1      11.685  -3.577  -5.907  0.00  0.00    +0.007 C 
ATOM     25  C   UNL     1      11.353  -2.131  -5.538  0.00  0.00    -0.012 C 
ATOM     26  C   UNL     1      10.816  -2.112  -4.104  0.00  0.00    +0.005 C 
ATOM     27  C   UNL     1      10.337  -1.531  -6.487  0.00  0.00    -0.012 C 
ATOM     28  C   UNL     1       9.147  -2.384  -6.816  0.00  0.00    -0.067 C 
ATOM     29  C   UNL     1       9.513  -3.840  -7.082  0.00  0.00    -0.012 C 
ATOM     30  H   UNL     1       7.469  -3.135  -6.036  0.00  0.00    -0.081 HD
ENDBRANCH  18  19
ENDBRANCH   3  18
TORSDOF 6
