REMARK  Name = ZINC07344259
REMARK  4 active torsions:
REMARK  status: ('A' for Active; 'I' for Inactive)
REMARK    1  A    between atoms: C_4  and  C_7
REMARK    2  A    between atoms: C_13  and  C_15
REMARK    3  A    between atoms: C_15  and  S_16
REMARK    4  A    between atoms: S_16  and  C_17
REMARK                            x       y       z     vdW  Elec       q    Type
REMARK                         _______ _______ _______ _____ _____    ______ ____
ROOT
ATOM      1  C   UNL     1       7.703  -6.891  -0.111  0.00  0.00    +0.134 A 
ATOM      2  N   UNL     1       6.376  -6.935  -0.098  0.00  0.00    -0.140 NA
ATOM      3  N   UNL     1       5.702  -5.868  -0.080  0.00  0.00    -0.125 NA
ATOM      4  C   UNL     1       6.277  -4.676  -0.085  0.00  0.00    +0.188 A 
ATOM      5  S   UNL     1       7.959  -5.120  -0.103  0.00  0.00    -0.030 S 
ATOM      6  N   UNL     1       5.696  -3.414  -0.072  0.00  0.00    -0.263 N 
ATOM      7  C   UNL     1       4.354  -3.290  -0.058  0.00  0.00    +0.229 C 
ATOM      8  O   UNL     1       3.654  -4.280  -0.058  0.00  0.00    -0.275 OA
ATOM      9  H   UNL     1       6.256  -2.622  -0.072  0.00  0.00    +0.157 HD
ENDROOT
BRANCH   1  13
ATOM     10  C   UNL     1      10.536 -10.055  -0.155  0.00  0.00    +0.000 A 
ATOM     11  C   UNL     1       9.183 -10.342  -0.144  0.00  0.00    +0.001 A 
ATOM     12  C   UNL     1       8.258  -9.319  -0.129  0.00  0.00    +0.010 A 
ATOM     13  C   UNL     1       8.689  -7.992  -0.126  0.00  0.00    +0.009 A 
ATOM     14  C   UNL     1      10.056  -7.709  -0.143  0.00  0.00    +0.010 A 
ATOM     15  C   UNL     1      10.971  -8.741  -0.151  0.00  0.00    +0.001 A 
ENDBRANCH   1  13
BRANCH   7  16
ATOM     16  C   UNL     1       3.724  -1.921  -0.044  0.00  0.00    +0.172 C 
BRANCH  16  17
ATOM     17  S   UNL     1       1.918  -2.087  -0.028  0.00  0.00    -0.093 S 
BRANCH  17  18
ATOM     18  C   UNL     1       1.337  -0.424  -0.013  0.00  0.00    +0.139 A 
ATOM     19  C   UNL     1       0.002  -0.004   0.002  0.00  0.00    +0.170 A 
ATOM     20  N   UNL     1      -0.016   1.305   0.009  0.00  0.00    -0.162 NA
ATOM     21  N   UNL     1       1.190   1.756   0.000  0.00  0.00    -0.196 N 
ATOM     22  H   UNL     1       1.451   2.721   0.003  0.00  0.00    +0.213 HD
ATOM     23  N   UNL     1       2.075   0.669  -0.014  0.00  0.00    -0.149 NA
ENDBRANCH  17  18
ENDBRANCH  16  17
ENDBRANCH   7  16
TORSDOF 4
