REMARK  Name = ZINC03233795
REMARK  5 active torsions:
REMARK  status: ('A' for Active; 'I' for Inactive)
REMARK    1  A    between atoms: C_3  and  O_25
REMARK    2  A    between atoms: C_4  and  O_24
REMARK    3  A    between atoms: C_5  and  O_23
REMARK    4  A    between atoms: C_6  and  C_7
REMARK    5  A    between atoms: N_8  and  N_9
REMARK                            x       y       z     vdW  Elec       q    Type
REMARK                         _______ _______ _______ _____ _____    ______ ____
ROOT
ATOM      1  C   UNL     1       1.789  -6.833  -0.402  0.00  0.00    +0.145 C 
ATOM      2  N   UNL     1       2.175  -5.610  -0.609  0.00  0.00    -0.170 NA
ENDROOT
BRANCH   2   3
ATOM      3  N   UNL     1       1.296  -4.547  -0.362  0.00  0.00    -0.185 N 
ATOM      4  C   UNL     1       0.017  -4.832  -0.016  0.00  0.00    +0.227 A 
ATOM      5  N   UNL     1      -0.881  -3.904   0.235  0.00  0.00    -0.228 NA
ATOM      6  C   UNL     1      -0.493  -2.637   0.138  0.00  0.00    +0.116 A 
ATOM      7  C   UNL     1       0.816  -2.239  -0.215  0.00  0.00    +0.077 A 
ATOM      8  C   UNL     1       1.765  -3.282  -0.481  0.00  0.00    +0.283 A 
ATOM      9  O   UNL     1       2.919  -3.044  -0.794  0.00  0.00    -0.265 OA
ATOM     10  C   UNL     1       1.057  -0.808  -0.272  0.00  0.00    -0.023 A 
ATOM     11  C   UNL     1       0.007  -0.004   0.019  0.00  0.00    -0.004 A 
ATOM     12  S   UNL     1      -1.338  -1.106   0.377  0.00  0.00    -0.073 S 
ATOM     13  C   UNL     1      -0.011   1.493   0.034  0.00  0.00    +0.043 C 
ATOM     14  C   UNL     1       1.439   1.997   0.033  0.00  0.00    +0.005 C 
ATOM     15  C   UNL     1       2.217   1.247  -1.052  0.00  0.00    +0.005 C 
ATOM     16  C   UNL     1       2.413  -0.211  -0.636  0.00  0.00    +0.037 C 
ENDBRANCH   2   3
BRANCH   1  22
ATOM     17  C   UNL     1       2.332  -9.260  -0.333  0.00  0.00    +0.017 A 
ATOM     18  C   UNL     1       3.228 -10.296  -0.476  0.00  0.00    +0.050 A 
ATOM     19  C   UNL     1       4.543 -10.039  -0.842  0.00  0.00    +0.162 A 
ATOM     20  C   UNL     1       4.966  -8.733  -1.065  0.00  0.00    +0.201 A 
ATOM     21  C   UNL     1       4.071  -7.682  -0.928  0.00  0.00    +0.171 A 
ATOM     22  C   UNL     1       2.744  -7.942  -0.554  0.00  0.00    +0.040 A 
BRANCH  21  23
ATOM     23  O   UNL     1       4.479  -6.406  -1.151  0.00  0.00    -0.503 OA
ATOM     24  H   UNL     1       4.822  -5.959  -0.365  0.00  0.00    +0.292 HD
ENDBRANCH  21  23
BRANCH  20  25
ATOM     25  O   UNL     1       6.256  -8.487  -1.422  0.00  0.00    -0.501 OA
ATOM     26  H   UNL     1       6.406  -8.489  -2.377  0.00  0.00    +0.292 HD
ENDBRANCH  20  25
BRANCH  19  27
ATOM     27  O   UNL     1       5.420 -11.068  -0.981  0.00  0.00    -0.503 OA
ATOM     28  H   UNL     1       5.452 -11.440  -1.874  0.00  0.00    +0.292 HD
ENDBRANCH  19  27
ENDBRANCH   1  22
TORSDOF 5
