REMARK  Name = ZINC36057094
REMARK  7 active torsions:
REMARK  status: ('A' for Active; 'I' for Inactive)
REMARK    1  A    between atoms: C_4  and  C_7
REMARK    2  A    between atoms: C_7  and  N_8
REMARK    3  A    between atoms: N_8  and  C_23
REMARK    4  A    between atoms: C_9  and  C_11
REMARK    5  A    between atoms: C_11  and  N_12
REMARK    6  A    between atoms: C_23  and  C_28
REMARK    7  A    between atoms: N_30  and  C_31
REMARK                            x       y       z     vdW  Elec       q    Type
REMARK                         _______ _______ _______ _____ _____    ______ ____
ROOT
ATOM      1  N   UNL     1       4.286  -0.755   1.501  0.00  0.00    -0.282 N 
ATOM      2  C   UNL     1       3.855  -1.572   2.482  0.00  0.00    +0.234 C 
ATOM      3  O   UNL     1       4.180  -1.364   3.632  0.00  0.00    -0.274 OA
ENDROOT
BRANCH   1   4
ATOM      4  C   UNL     1       5.237   0.317   1.806  0.00  0.00    +0.114 C 
ATOM      5  C   UNL     1       5.473   1.187   0.554  0.00  0.00    +0.035 C 
ATOM      6  C   UNL     1       4.494   2.375   0.728  0.00  0.00    +0.003 C 
ATOM      7  C   UNL     1       4.556   2.650   2.250  0.00  0.00    +0.003 C 
ATOM      8  C   UNL     1       4.655   1.247   2.885  0.00  0.00    +0.035 C 
BRANCH   4   9
ATOM      9  C   UNL     1       6.542  -0.270   2.281  0.00  0.00    +0.241 C 
ATOM     10  O   UNL     1       7.210   0.322   3.102  0.00  0.00    -0.273 OA
ATOM     11  N   UNL     1       6.965  -1.453   1.793  0.00  0.00    -0.284 N 
ATOM     12  H   UNL     1       6.460  -1.898   1.095  0.00  0.00    +0.155 HD
BRANCH  11  13
ATOM     13  C   UNL     1       8.135  -2.039   2.294  0.00  0.00    +0.037 A 
ATOM     14  C   UNL     1       8.474  -1.879   3.631  0.00  0.00    +0.027 A 
ATOM     15  C   UNL     1       9.627  -2.457   4.127  0.00  0.00    +0.051 A 
ATOM     16  C   UNL     1      10.449  -3.196   3.292  0.00  0.00    +0.166 A 
ATOM     17  C   UNL     1      10.112  -3.358   1.950  0.00  0.00    +0.168 A 
ATOM     18  C   UNL     1       8.953  -2.783   1.455  0.00  0.00    +0.072 A 
ATOM     19  O   UNL     1      11.072  -4.117   1.347  0.00  0.00    -0.453 OA
ATOM     20  C   UNL     1      12.207  -4.077   2.232  0.00  0.00    +0.466 C 
ATOM     21  O   UNL     1      11.621  -3.856   3.529  0.00  0.00    -0.453 OA
ENDBRANCH  11  13
ENDBRANCH   4   9
ENDBRANCH   1   4
BRANCH   1  22
ATOM     22  C   UNL     1       3.804  -0.938   0.130  0.00  0.00    +0.144 C 
BRANCH  22  26
ATOM     23  C   UNL     1       6.157  -3.922  -1.821  0.00  0.00    +0.000 A 
ATOM     24  C   UNL     1       4.947  -4.263  -1.247  0.00  0.00    +0.000 A 
ATOM     25  C   UNL     1       4.186  -3.297  -0.615  0.00  0.00    +0.005 A 
ATOM     26  C   UNL     1       4.635  -1.991  -0.558  0.00  0.00    -0.030 A 
ATOM     27  C   UNL     1       5.846  -1.651  -1.131  0.00  0.00    +0.005 A 
ATOM     28  C   UNL     1       6.606  -2.616  -1.764  0.00  0.00    +0.000 A 
ENDBRANCH  22  26
ENDBRANCH   1  22
BRANCH   2  29
ATOM     29  C   UNL     1       2.968  -2.745   2.150  0.00  0.00    +0.210 C 
BRANCH  29  30
ATOM     30  N   UNL     1       2.575  -3.425   3.387  0.00  0.00    -0.255 N 
ATOM     31  C   UNL     1       3.295  -4.464   3.973  0.00  0.00    +0.048 A 
ATOM     32  C   UNL     1       4.473  -5.094   3.594  0.00  0.00    +0.024 A 
ATOM     33  C   UNL     1       4.992  -6.120   4.361  0.00  0.00    +0.002 A 
ATOM     34  C   UNL     1       4.348  -6.535   5.515  0.00  0.00    +0.001 A 
ATOM     35  C   UNL     1       3.175  -5.923   5.910  0.00  0.00    +0.014 A 
ATOM     36  C   UNL     1       2.643  -4.887   5.143  0.00  0.00    +0.048 A 
ATOM     37  C   UNL     1       1.440  -4.046   5.283  0.00  0.00    +0.250 C 
ATOM     38  O   UNL     1       0.605  -4.090   6.162  0.00  0.00    -0.282 OA
ATOM     39  C   UNL     1       1.478  -3.122   4.102  0.00  0.00    +0.292 C 
ATOM     40  O   UNL     1       0.666  -2.260   3.839  0.00  0.00    -0.266 OA
ENDBRANCH  29  30
ENDBRANCH   2  29
TORSDOF 7
