REMARK  Name = ZINC32871557
REMARK  5 active torsions:
REMARK  status: ('A' for Active; 'I' for Inactive)
REMARK    1  A    between atoms: C_1  and  C_2
REMARK    2  A    between atoms: C_12  and  S_15
REMARK    3  A    between atoms: S_15  and  C_16
REMARK    4  A    between atoms: C_16  and  C_18
REMARK    5  A    between atoms: C_16  and  C_19
REMARK                            x       y       z     vdW  Elec       q    Type
REMARK                         _______ _______ _______ _____ _____    ______ ____
ROOT
ATOM      1  C   UNL     1      -0.729   1.579   1.267  0.00  0.00    +0.137 C 
ATOM      2  C   UNL     1      -0.013   1.086   0.008  0.00  0.00    +0.029 C 
ENDROOT
BRANCH   1   3
ATOM      3  C   UNL     1      -0.749   3.086   1.275  0.00  0.00    +0.233 C 
ATOM      4  O   UNL     1       0.109   3.701   1.873  0.00  0.00    -0.274 OA
ATOM      5  N   UNL     1      -1.721   3.751   0.618  0.00  0.00    -0.260 N 
ATOM      6  C   UNL     1      -2.769   3.029  -0.119  0.00  0.00    +0.209 C 
ATOM      7  C   UNL     1      -3.020   3.722  -1.429  0.00  0.00    +0.235 C 
ATOM      8  O   UNL     1      -3.409   3.079  -2.381  0.00  0.00    -0.274 OA
ATOM      9  N   UNL     1      -2.815   5.046  -1.559  0.00  0.00    -0.283 N 
ATOM     10  C   UNL     1      -2.320   5.803  -0.491  0.00  0.00    +0.055 A 
ATOM     11  C   UNL     1      -1.761   5.154   0.611  0.00  0.00    +0.058 A 
ATOM     12  C   UNL     1      -1.261   5.888   1.671  0.00  0.00    +0.025 A 
ATOM     13  C   UNL     1      -1.320   7.270   1.636  0.00  0.00    +0.002 A 
ATOM     14  C   UNL     1      -1.876   7.915   0.547  0.00  0.00    +0.002 A 
ATOM     15  C   UNL     1      -2.376   7.187  -0.517  0.00  0.00    +0.025 A 
ATOM     16  H   UNL     1      -3.038   5.546  -2.514  0.00  0.00    +0.155 HD
ENDBRANCH   1   3
BRANCH   1  17
ATOM     17  S   UNL     1       0.147   0.980   2.733  0.00  0.00    -0.073 S 
BRANCH  17  29
ATOM     18  C   UNL     1       2.195  -2.840   6.432  0.00  0.00    +0.090 C 
ATOM     19  C   UNL     1       1.413  -2.579   5.170  0.00  0.00    +0.149 A 
ATOM     20  N   UNL     1       0.845  -3.514   4.413  0.00  0.00    -0.211 NA
ATOM     21  C   UNL     1       0.244  -2.948   3.388  0.00  0.00    +0.168 A 
ATOM     22  C   UNL     1      -0.519  -3.448   2.239  0.00  0.00    +0.045 A 
ATOM     23  C   UNL     1      -0.751  -4.808   2.041  0.00  0.00    +0.014 A 
ATOM     24  C   UNL     1      -1.475  -5.222   0.944  0.00  0.00    +0.001 A 
ATOM     25  C   UNL     1      -1.973  -4.296   0.036  0.00  0.00    +0.002 A 
ATOM     26  C   UNL     1      -1.755  -2.949   0.212  0.00  0.00    +0.028 A 
ATOM     27  C   UNL     1      -1.024  -2.503   1.317  0.00  0.00    +0.077 A 
ATOM     28  N   UNL     1      -0.790  -1.185   1.523  0.00  0.00    -0.222 NA
ATOM     29  C   UNL     1      -0.106  -0.755   2.553  0.00  0.00    +0.193 A 
ATOM     30  N   UNL     1       0.425  -1.596   3.493  0.00  0.00    -0.188 N 
ATOM     31  N   UNL     1       1.180  -1.397   4.656  0.00  0.00    -0.148 NA
ENDBRANCH  17  29
ENDBRANCH   1  17
TORSDOF 3
