REMARK  Name = ZINC05641099
REMARK  10 active torsions:
REMARK  status: ('A' for Active; 'I' for Inactive)
REMARK    1  A    between atoms: C_1  and  C_2
REMARK    2  A    between atoms: C_2  and  C_3
REMARK    3  A    between atoms: C_3  and  C_4
REMARK    4  A    between atoms: C_4  and  C_5
REMARK    5  A    between atoms: C_5  and  N_6
REMARK    6  A    between atoms: C_19  and  S_20
REMARK    7  A    between atoms: S_20  and  C_21
REMARK    8  A    between atoms: C_21  and  C_23
REMARK    9  A    between atoms: C_21  and  C_24
REMARK   10  A    between atoms: N_29  and  C_30
REMARK                            x       y       z     vdW  Elec       q    Type
REMARK                         _______ _______ _______ _____ _____    ______ ____
ROOT
ATOM      1  N   UNL     1       3.690  -7.783   1.466  0.00  0.00    -0.277 N 
ATOM      2  C   UNL     1       4.932  -7.676   1.980  0.00  0.00    +0.263 A 
ATOM      3  O   UNL     1       5.550  -8.668   2.316  0.00  0.00    -0.267 OA
ATOM      4  C   UNL     1       5.528  -6.335   2.126  0.00  0.00    +0.064 A 
ATOM      5  C   UNL     1       6.808  -6.166   2.650  0.00  0.00    +0.015 A 
ATOM      6  C   UNL     1       7.332  -4.896   2.771  0.00  0.00    +0.001 A 
ATOM      7  C   UNL     1       6.593  -3.792   2.374  0.00  0.00    +0.002 A 
ATOM      8  C   UNL     1       5.323  -3.947   1.854  0.00  0.00    +0.027 A 
ATOM      9  C   UNL     1       4.780  -5.217   1.726  0.00  0.00    +0.064 A 
ATOM     10  N   UNL     1       3.503  -5.402   1.202  0.00  0.00    -0.256 N 
ATOM     11  C   UNL     1       2.977  -6.659   1.079  0.00  0.00    +0.240 A 
ATOM     12  N   UNL     1       1.773  -6.542   0.563  0.00  0.00    -0.109 NA
ATOM     13  N   UNL     1       1.519  -5.181   0.355  0.00  0.00    -0.120 NA
ATOM     14  C   UNL     1       2.575  -4.507   0.741  0.00  0.00    +0.198 A 
ENDROOT
BRANCH   1  15
ATOM     15  C   UNL     1       3.084  -9.109   1.315  0.00  0.00    +0.128 C 
BRANCH  15  16
ATOM     16  C   UNL     1       3.431  -9.674  -0.064  0.00  0.00    +0.022 C 
BRANCH  16  17
ATOM     17  C   UNL     1       2.799 -11.058  -0.222  0.00  0.00    +0.001 C 
BRANCH  17  19
ATOM     18  C   UNL     1       2.514 -13.007  -1.759  0.00  0.00    +0.004 C 
ATOM     19  C   UNL     1       3.146 -11.623  -1.601  0.00  0.00    -0.003 C 
ENDBRANCH  17  19
ENDBRANCH  16  17
ENDBRANCH  15  16
ENDBRANCH   1  15
BRANCH  14  20
ATOM     20  S   UNL     1       2.764  -2.756   0.684  0.00  0.00    -0.073 S 
BRANCH  20  21
ATOM     21  C   UNL     1       1.199  -2.169  -0.021  0.00  0.00    +0.137 C 
ATOM     22  C   UNL     1       1.066  -2.673  -1.460  0.00  0.00    +0.029 C 
BRANCH  21  23
ATOM     23  C   UNL     1       1.178  -0.662  -0.013  0.00  0.00    +0.233 C 
ATOM     24  O   UNL     1       2.220  -0.042  -0.019  0.00  0.00    -0.274 OA
ATOM     25  N   UNL     1       0.002  -0.004   0.002  0.00  0.00    -0.239 N 
ATOM     26  C   UNL     1      -0.016   1.344   0.009  0.00  0.00    +0.306 C 
ATOM     27  O   UNL     1       1.028   1.966   0.003  0.00  0.00    -0.252 OA
ATOM     28  N   UNL     1      -1.192   2.002   0.019  0.00  0.00    -0.302 N 
ATOM     29  C   UNL     1      -1.212   3.466   0.027  0.00  0.00    +0.129 C 
ATOM     30  H   UNL     1      -0.831  -0.500   0.007  0.00  0.00    +0.159 HD
ATOM     31  H   UNL     1      -2.026   1.505   0.020  0.00  0.00    +0.150 HD
ENDBRANCH  21  23
ENDBRANCH  20  21
ENDBRANCH  14  20
TORSDOF 7
