REMARK  Name = ZINC07237190
REMARK  9 active torsions:
REMARK  status: ('A' for Active; 'I' for Inactive)
REMARK    1  A    between atoms: C_1  and  C_2
REMARK    2  A    between atoms: C_3  and  C_25
REMARK    3  A    between atoms: N_9  and  C_22
REMARK    4  A    between atoms: C_10  and  S_12
REMARK    5  A    between atoms: S_12  and  C_13
REMARK    6  A    between atoms: C_13  and  C_15
REMARK    7  A    between atoms: C_13  and  C_16
REMARK    8  A    between atoms: C_22  and  C_23
REMARK    9  A    between atoms: C_22  and  C_24
REMARK                            x       y       z     vdW  Elec       q    Type
REMARK                         _______ _______ _______ _____ _____    ______ ____
ROOT
ATOM      1  C   UNL     1      -1.307   5.868   2.212  0.00  0.00    +0.045 C 
ATOM      2  C   UNL     1      -1.764   4.696   3.042  0.00  0.00    -0.026 A 
ATOM      3  C   UNL     1      -2.418   4.895   4.196  0.00  0.00    -0.008 A 
ATOM      4  S   UNL     1      -2.733   3.242   4.784  0.00  0.00    -0.073 S 
ATOM      5  C   UNL     1      -1.977   2.331   3.462  0.00  0.00    +0.117 A 
ATOM      6  C   UNL     1      -1.501   3.337   2.601  0.00  0.00    +0.075 A 
ATOM      7  C   UNL     1      -0.825   2.881   1.425  0.00  0.00    +0.263 A 
ATOM      8  O   UNL     1      -0.374   3.681   0.623  0.00  0.00    -0.267 OA
ATOM      9  N   UNL     1      -0.698   1.558   1.213  0.00  0.00    -0.285 N 
ATOM     10  C   UNL     1      -1.192   0.648   2.103  0.00  0.00    +0.174 A 
ATOM     11  N   UNL     1      -1.813   1.040   3.197  0.00  0.00    -0.216 NA
ATOM     12  C   UNL     1      -2.796   6.204   4.840  0.00  0.00    +0.052 C 
ENDROOT
BRANCH   9  13
ATOM     13  C   UNL     1      -0.013   1.086   0.008  0.00  0.00    +0.087 C 
ATOM     14  C   UNL     1       1.423   1.615  -0.003  0.00  0.00    +0.031 C 
ATOM     15  C   UNL     1      -0.753   1.593  -1.232  0.00  0.00    +0.031 C 
ENDBRANCH   9  13
BRANCH  10  16
ATOM     16  S   UNL     1      -0.994  -1.073   1.786  0.00  0.00    -0.075 S 
BRANCH  16  17
ATOM     17  C   UNL     1      -1.812  -1.759   3.247  0.00  0.00    +0.137 C 
ATOM     18  C   UNL     1      -1.023  -1.375   4.501  0.00  0.00    +0.029 C 
BRANCH  17  19
ATOM     19  C   UNL     1      -1.873  -3.260   3.131  0.00  0.00    +0.233 C 
ATOM     20  O   UNL     1      -1.062  -3.849   2.449  0.00  0.00    -0.274 OA
ATOM     21  N   UNL     1      -2.828  -3.949   3.787  0.00  0.00    -0.239 N 
ATOM     22  C   UNL     1      -2.882  -5.291   3.683  0.00  0.00    +0.303 C 
ATOM     23  O   UNL     1      -2.070  -5.881   2.999  0.00  0.00    -0.253 OA
ATOM     24  N   UNL     1      -3.838  -5.980   4.338  0.00  0.00    -0.313 N 
ATOM     25  H   UNL     1      -3.477  -3.478   4.333  0.00  0.00    +0.159 HD
ATOM     26  H   UNL     1      -4.487  -5.509   4.884  0.00  0.00    +0.146 HD
ATOM     27  H   UNL     1      -3.877  -6.946   4.264  0.00  0.00    +0.146 HD
ENDBRANCH  17  19
ENDBRANCH  16  17
ENDBRANCH  10  16
TORSDOF 4
