REMARK  Name = ZINC41094049
REMARK  7 active torsions:
REMARK  status: ('A' for Active; 'I' for Inactive)
REMARK    1  A    between atoms: C_3  and  C_9
REMARK    2  A    between atoms: C_4  and  N_8
REMARK    3  A    between atoms: C_6  and  N_7
REMARK    4  A    between atoms: C_9  and  O_11
REMARK    5  A    between atoms: O_11  and  C_12
REMARK    6  A    between atoms: C_12  and  C_13
REMARK    7  A    between atoms: N_15  and  C_16
REMARK                            x       y       z     vdW  Elec       q    Type
REMARK                         _______ _______ _______ _____ _____    ______ ____
ROOT
ATOM      1  C   UNL     1       3.473   2.425  -0.065  0.00  0.00    +0.341 C 
ATOM      2  O   UNL     1       4.591   1.953   0.009  0.00  0.00    -0.245 OA
ENDROOT
BRANCH   1   5
ATOM      3  C   UNL     1      -0.080   1.266   0.032  0.00  0.00    +0.023 A 
ATOM      4  C   UNL     1       1.010   2.087   0.004  0.00  0.00    +0.018 A 
ATOM      5  C   UNL     1       2.299   1.542  -0.034  0.00  0.00    +0.080 A 
ATOM      6  C   UNL     1       2.465   0.145  -0.044  0.00  0.00    +0.040 A 
ATOM      7  C   UNL     1       1.350  -0.678  -0.015  0.00  0.00    +0.046 A 
ATOM      8  C   UNL     1       0.079  -0.119   0.023  0.00  0.00    +0.026 A 
BRANCH   8   9
ATOM      9  N   UNL     1      -1.039  -0.945   0.051  0.00  0.00    -0.358 N 
ATOM     10  H   UNL     1      -1.928  -0.556   0.078  0.00  0.00    +0.142 HD
ATOM     11  H   UNL     1      -0.931  -1.908   0.045  0.00  0.00    +0.142 HD
ENDBRANCH   8   9
BRANCH   6  12
ATOM     12  N   UNL     1       3.739  -0.407  -0.083  0.00  0.00    -0.357 N 
ATOM     13  H   UNL     1       4.518   0.168  -0.022  0.00  0.00    +0.142 HD
ATOM     14  H   UNL     1       3.850  -1.366  -0.171  0.00  0.00    +0.142 HD
ENDBRANCH   6  12
ENDBRANCH   1   5
BRANCH   1  15
ATOM     15  O   UNL     1       3.310   3.759  -0.176  0.00  0.00    -0.452 OA
BRANCH  15  16
ATOM     16  C   UNL     1       4.495   4.557  -0.200  0.00  0.00    +0.328 C 
BRANCH  16  17
ATOM     17  C   UNL     1       4.119   6.011  -0.328  0.00  0.00    +0.251 C 
ATOM     18  O   UNL     1       2.952   6.331  -0.392  0.00  0.00    -0.272 OA
ATOM     19  N   UNL     1       5.081   6.954  -0.370  0.00  0.00    -0.310 N 
ATOM     20  H   UNL     1       6.015   6.697  -0.319  0.00  0.00    +0.149 HD
BRANCH  19  21
ATOM     21  C   UNL     1       4.715   8.367  -0.494  0.00  0.00    +0.073 C 
ATOM     22  C   UNL     1       4.514   8.714  -1.971  0.00  0.00    +0.022 C 
ATOM     23  C   UNL     1       4.132  10.190  -2.100  0.00  0.00    +0.002 C 
ATOM     24  C   UNL     1       5.250  11.059  -1.520  0.00  0.00    +0.000 C 
ATOM     25  C   UNL     1       5.451  10.712  -0.043  0.00  0.00    +0.002 C 
ATOM     26  C   UNL     1       5.833   9.236   0.086  0.00  0.00    +0.022 C 
ENDBRANCH  19  21
ENDBRANCH  16  17
ENDBRANCH  15  16
ENDBRANCH   1  15
TORSDOF 7
