REMARK  Name = ZINC22838208
REMARK  8 active torsions:
REMARK  status: ('A' for Active; 'I' for Inactive)
REMARK    1  A    between atoms: C_1  and  C_2
REMARK    2  A    between atoms: C_2  and  N_3
REMARK    3  A    between atoms: C_7  and  C_15
REMARK    4  A    between atoms: C_11  and  C_14
REMARK    5  A    between atoms: N_17  and  C_18
REMARK    6  A    between atoms: C_19  and  C_25
REMARK    7  A    between atoms: N_21  and  C_24
REMARK    8  A    between atoms: C_22  and  C_23
REMARK                            x       y       z     vdW  Elec       q    Type
REMARK                         _______ _______ _______ _____ _____    ______ ____
ROOT
ATOM      1  N   UNL     1       2.819  -0.043  -0.606  0.00  0.00    -0.305 N 
ATOM      2  C   UNL     1       2.807   1.315  -0.368  0.00  0.00    +0.070 A 
ATOM      3  C   UNL     1       3.503   2.179  -1.212  0.00  0.00    +0.029 A 
ATOM      4  C   UNL     1       3.495   3.523  -0.980  0.00  0.00    +0.015 A 
ATOM      5  C   UNL     1       2.787   4.053   0.108  0.00  0.00    +0.039 A 
ATOM      6  C   UNL     1       2.086   3.211   0.962  0.00  0.00    +0.043 A 
ATOM      7  C   UNL     1       2.091   1.830   0.730  0.00  0.00    +0.089 A 
ATOM      8  N   UNL     1       1.413   1.006   1.554  0.00  0.00    -0.245 NA
ATOM      9  C   UNL     1       1.404  -0.281   1.358  0.00  0.00    +0.103 A 
ATOM     10  C   UNL     1       2.137  -0.860   0.226  0.00  0.00    +0.273 A 
ATOM     11  O   UNL     1       2.131  -2.063   0.040  0.00  0.00    -0.266 OA
ATOM     12  C   UNL     1       0.639  -1.178   2.296  0.00  0.00    +0.071 C 
ENDROOT
BRANCH   5  13
ATOM     13  C   UNL     1       2.787   5.511   0.346  0.00  0.00    +0.248 C 
ATOM     14  O   UNL     1       2.174   5.972   1.289  0.00  0.00    -0.270 OA
ATOM     15  N   UNL     1       3.467   6.329  -0.481  0.00  0.00    -0.279 N 
ATOM     16  H   UNL     1       4.086   5.906  -1.286  0.00  0.00    +0.155 HD
BRANCH  15  17
ATOM     17  C   UNL     1       3.384   7.724  -0.316  0.00  0.00    +0.077 A 
ATOM     18  C   UNL     1       2.215   8.496  -0.384  0.00  0.00    +0.081 A 
ATOM     19  N   UNL     1       2.536   9.748  -0.179  0.00  0.00    -0.175 NA
ATOM     20  N   UNL     1       3.919   9.821   0.027  0.00  0.00    -0.270 N 
ATOM     21  C   UNL     1       4.421   8.561  -0.056  0.00  0.00    +0.057 A 
ATOM     22  C   UNL     1       5.865   8.165   0.108  0.00  0.00    +0.067 C 
ATOM     23  C   UNL     1       4.688  11.039   0.290  0.00  0.00    +0.172 C 
ATOM     24  C   UNL     1       0.826   7.973  -0.648  0.00  0.00    +0.069 C 
ENDBRANCH  15  17
ENDBRANCH   5  13
BRANCH   1  26
ATOM     25  C   UNL     1       2.644  -0.647  -2.969  0.00  0.00    +0.027 C 
ATOM     26  C   UNL     1       3.560  -0.592  -1.744  0.00  0.00    +0.122 C 
ENDBRANCH   1  26
TORSDOF 3
