REMARK  Name = ZINC13004845
REMARK  6 active torsions:
REMARK  status: ('A' for Active; 'I' for Inactive)
REMARK    1  A    between atoms: C_1  and  C_2
REMARK    2  A    between atoms: C_9  and  N_14
REMARK    3  A    between atoms: C_15  and  C_17
REMARK    4  A    between atoms: C_18  and  C_26
REMARK    5  A    between atoms: C_26  and  O_27
REMARK    6  A    between atoms: O_27  and  C_28
REMARK                            x       y       z     vdW  Elec       q    Type
REMARK                         _______ _______ _______ _____ _____    ______ ____
ROOT
ATOM      1  N   UNL     1       0.673   4.844   2.299  0.00  0.00    -0.279 N 
ATOM      2  C   UNL     1       0.527   3.730   1.554  0.00  0.00    +0.284 C 
ATOM      3  O   UNL     1       1.235   3.551   0.581  0.00  0.00    -0.266 OA
ATOM      4  H   UNL     1       0.066   5.018   3.034  0.00  0.00    +0.155 HD
ENDROOT
BRANCH   1  12
ATOM      5  C   UNL     1       6.490   6.951   0.374  0.00  0.00    +0.062 C 
ATOM      6  C   UNL     1       5.555   8.111   0.026  0.00  0.00    +0.256 C 
ATOM      7  C   UNL     1       4.681   7.720  -1.137  0.00  0.00    +0.258 C 
ATOM      8  O   UNL     1       5.034   7.960  -2.272  0.00  0.00    -0.271 OA
ATOM      9  N   UNL     1       3.502   7.099  -0.911  0.00  0.00    -0.279 N 
ATOM     10  C   UNL     1       3.102   6.863   0.412  0.00  0.00    +0.077 A 
ATOM     11  C   UNL     1       2.084   5.967   0.693  0.00  0.00    +0.050 A 
ATOM     12  C   UNL     1       1.702   5.749   2.010  0.00  0.00    +0.036 A 
ATOM     13  C   UNL     1       2.334   6.432   3.040  0.00  0.00    +0.027 A 
ATOM     14  C   UNL     1       3.354   7.322   2.760  0.00  0.00    +0.049 A 
ATOM     15  C   UNL     1       3.739   7.543   1.449  0.00  0.00    +0.143 A 
ATOM     16  O   UNL     1       4.738   8.420   1.159  0.00  0.00    -0.478 OA
ATOM     17  H   UNL     1       2.942   6.821  -1.652  0.00  0.00    +0.155 HD
ENDBRANCH   1  12
BRANCH   2  18
ATOM     18  C   UNL     1      -0.486   2.730   1.919  0.00  0.00    +0.196 A 
ATOM     19  C   UNL     1      -0.722   1.574   1.245  0.00  0.00    +0.036 A 
ATOM     20  C   UNL     1      -1.802   0.900   1.964  0.00  0.00    +0.026 A 
ATOM     21  C   UNL     1      -2.487  -0.305   1.786  0.00  0.00    +0.012 A 
ATOM     22  C   UNL     1      -3.476  -0.658   2.660  0.00  0.00    +0.001 A 
ATOM     23  C   UNL     1      -3.804   0.173   3.723  0.00  0.00    +0.004 A 
ATOM     24  C   UNL     1      -3.142   1.366   3.915  0.00  0.00    +0.047 A 
ATOM     25  C   UNL     1      -2.131   1.746   3.039  0.00  0.00    +0.136 A 
ATOM     26  O   UNL     1      -1.326   2.824   2.971  0.00  0.00    -0.450 OA
BRANCH  19  27
ATOM     27  C   UNL     1      -0.010   1.083   0.011  0.00  0.00    +0.199 C 
BRANCH  27  28
ATOM     28  O   UNL     1      -0.692   1.557  -1.152  0.00  0.00    -0.378 OA
ATOM     29  C   UNL     1      -0.095   1.145  -2.384  0.00  0.00    +0.194 C 
ENDBRANCH  27  28
ENDBRANCH  19  27
ENDBRANCH   2  18
TORSDOF 4
