REMARK  Name = ZINC01321031
REMARK  10 active torsions:
REMARK  status: ('A' for Active; 'I' for Inactive)
REMARK    1  A    between atoms: C_1  and  C_2
REMARK    2  A    between atoms: C_2  and  O_3
REMARK    3  A    between atoms: O_3  and  C_4
REMARK    4  A    between atoms: C_9  and  N_10
REMARK    5  A    between atoms: C_11  and  C_13
REMARK    6  A    between atoms: C_13  and  N_14
REMARK    7  A    between atoms: C_25  and  C_29
REMARK    8  A    between atoms: C_29  and  C_30
REMARK    9  A    between atoms: C_29  and  C_31
REMARK   10  A    between atoms: C_29  and  C_32
REMARK                            x       y       z     vdW  Elec       q    Type
REMARK                         _______ _______ _______ _____ _____    ______ ____
ROOT
ATOM      1  N   UNL     1       4.028  -1.818  -6.456  0.00  0.00    -0.201 N 
ATOM      2  C   UNL     1       3.381  -2.165  -7.585  0.00  0.00    +0.279 A 
ATOM      3  O   UNL     1       2.221  -1.834  -7.762  0.00  0.00    -0.265 OA
ATOM      4  C   UNL     1       4.082  -2.932  -8.575  0.00  0.00    +0.079 A 
ATOM      5  C   UNL     1       3.584  -3.413  -9.862  0.00  0.00    -0.023 A 
ATOM      6  C   UNL     1       4.444  -4.122 -10.625  0.00  0.00    -0.004 A 
ATOM      7  S   UNL     1       5.946  -4.187  -9.685  0.00  0.00    -0.071 S 
ATOM      8  C   UNL     1       5.412  -3.259  -8.268  0.00  0.00    +0.138 A 
ATOM      9  N   UNL     1       5.995  -2.886  -7.133  0.00  0.00    -0.123 NA
ATOM     10  N   UNL     1       5.360  -2.192  -6.251  0.00  0.00    -0.061 NA
ATOM     11  C   UNL     1       4.181  -4.719 -11.974  0.00  0.00    +0.046 C 
ATOM     12  C   UNL     1       2.896  -4.093 -12.537  0.00  0.00    -0.000 C 
ATOM     13  C   UNL     1       1.816  -4.130 -11.453  0.00  0.00    +0.009 C 
ATOM     14  C   UNL     1       2.161  -3.140 -10.340  0.00  0.00    +0.037 C 
ENDROOT
BRANCH  12  15
ATOM     15  C   UNL     1       2.430  -4.889 -13.758  0.00  0.00    -0.035 C 
ATOM     16  C   UNL     1       2.153  -6.337 -13.347  0.00  0.00    +0.011 C 
ATOM     17  C   UNL     1       1.151  -4.263 -14.316  0.00  0.00    +0.011 C 
ATOM     18  C   UNL     1       3.521  -4.863 -14.830  0.00  0.00    +0.011 C 
ENDBRANCH  12  15
BRANCH   1  19
ATOM     19  C   UNL     1       3.331  -1.035  -5.433  0.00  0.00    +0.245 C 
BRANCH  19  21
ATOM     20  N   UNL     1       1.953  -1.467  -3.424  0.00  0.00    -0.281 N 
ATOM     21  C   UNL     1       2.659  -1.967  -4.458  0.00  0.00    +0.239 C 
ATOM     22  O   UNL     1       2.753  -3.168  -4.603  0.00  0.00    -0.273 OA
ATOM     23  H   UNL     1       1.810  -0.511  -3.352  0.00  0.00    +0.155 HD
BRANCH  20  29
ATOM     24  C   UNL     1       0.317  -1.943  -1.704  0.00  0.00    +0.142 A 
ATOM     25  C   UNL     1      -0.203  -2.801  -0.749  0.00  0.00    +0.047 A 
ATOM     26  C   UNL     1       0.382  -4.036  -0.537  0.00  0.00    +0.004 A 
ATOM     27  C   UNL     1       1.486  -4.418  -1.277  0.00  0.00    +0.002 A 
ATOM     28  C   UNL     1       2.010  -3.568  -2.232  0.00  0.00    +0.027 A 
ATOM     29  C   UNL     1       1.426  -2.329  -2.453  0.00  0.00    +0.076 A 
BRANCH  24  30
ATOM     30  O   UNL     1      -0.257  -0.728  -1.914  0.00  0.00    -0.490 OA
BRANCH  30  32
ATOM     31  C   UNL     1      -1.896   0.995  -1.485  0.00  0.00    +0.048 C 
ATOM     32  C   UNL     1      -1.391  -0.399  -1.109  0.00  0.00    +0.226 C 
ENDBRANCH  30  32
ENDBRANCH  24  30
ENDBRANCH  20  29
ENDBRANCH  19  21
ENDBRANCH   1  19
TORSDOF 6
