REMARK  Name = ZINC40471975
REMARK  2 active torsions:
REMARK  status: ('A' for Active; 'I' for Inactive)
REMARK    1  A    between atoms: C_10  and  C_13
REMARK    2  A    between atoms: C_19  and  C_22
REMARK                            x       y       z     vdW  Elec       q    Type
REMARK                         _______ _______ _______ _____ _____    ______ ____
ROOT
ATOM      1  C   UNL     1      -0.019   1.522   0.010  0.00  0.00    +0.000 C 
ATOM      2  C   UNL     1       1.426   2.033  -0.001  0.00  0.00    -0.002 C 
ATOM      3  C   UNL     1       2.112   1.570   1.285  0.00  0.00    -0.015 C 
ATOM      4  C   UNL     1       2.103   0.063   1.398  0.00  0.00    -0.068 C 
ATOM      5  C   UNL     1       0.694  -0.542   1.256  0.00  0.00    -0.026 C 
ATOM      6  C   UNL     1       0.002  -0.004   0.002  0.00  0.00    +0.002 C 
ATOM      7  C   UNL     1       1.051  -2.032   0.963  0.00  0.00    -0.005 C 
ATOM      8  C   UNL     1       2.316  -1.913   0.084  0.00  0.00    +0.017 C 
ATOM      9  N   UNL     1       2.909  -0.596   0.361  0.00  0.00    +0.389 N 
ATOM     10  H   UNL     1       2.910  -0.035  -0.478  0.00  0.00    -0.084 HD
ATOM     11  H   UNL     1       3.854  -0.720   0.691  0.00  0.00    -0.084 HD
ENDROOT
BRANCH   8  12
ATOM     12  C   UNL     1       3.286  -3.013   0.428  0.00  0.00    +0.202 C 
ATOM     13  O   UNL     1       4.230  -2.784   1.155  0.00  0.00    -0.277 OA
ATOM     14  N   UNL     1       3.104  -4.252  -0.070  0.00  0.00    -0.302 N 
ATOM     15  C   UNL     1       1.968  -4.543  -0.956  0.00  0.00    +0.108 C 
ATOM     16  C   UNL     1       2.498  -5.182  -2.244  0.00  0.00    +0.020 C 
ATOM     17  C   UNL     1       3.349  -6.404  -1.890  0.00  0.00    +0.018 C 
ATOM     18  C   UNL     1       4.544  -5.967  -1.040  0.00  0.00    +0.119 C 
ATOM     19  C   UNL     1       4.041  -5.336   0.257  0.00  0.00    +0.122 C 
BRANCH  18  20
ATOM     20  C   UNL     1       5.399  -7.166  -0.720  0.00  0.00    +0.361 C 
ATOM     21  O   UNL     1       5.901  -7.815  -1.622  0.00  0.00    -0.246 OA
ATOM     22  O   UNL     1       5.589  -7.487   0.441  0.00  0.00    -0.246 OA
ENDBRANCH  18  20
ENDBRANCH   8  12
TORSDOF 2
