REMARK  Name = ZINC38696655
REMARK  7 active torsions:
REMARK  status: ('A' for Active; 'I' for Inactive)
REMARK    1  A    between atoms: C_1  and  C_2
REMARK    2  A    between atoms: C_4  and  N_17
REMARK    3  A    between atoms: N_8  and  C_11
REMARK    4  A    between atoms: N_9  and  C_10
REMARK    5  A    between atoms: C_18  and  C_28
REMARK    6  A    between atoms: C_29  and  C_30
REMARK    7  A    between atoms: C_38  and  C_40
REMARK                            x       y       z     vdW  Elec       q    Type
REMARK                         _______ _______ _______ _____ _____    ______ ____
ROOT
ATOM      1  N   UNL     1      -2.174   0.564  -0.208  0.00  0.00    -0.279 N 
ATOM      2  C   UNL     1      -3.135   0.375  -1.170  0.00  0.00    +0.138 A 
ATOM      3  N   UNL     1      -3.905   1.342  -1.611  0.00  0.00    -0.229 NA
ATOM      4  C   UNL     1      -3.799   2.598  -1.143  0.00  0.00    +0.078 A 
ATOM      5  C   UNL     1      -4.622   3.627  -1.616  0.00  0.00    +0.028 A 
ATOM      6  C   UNL     1      -4.485   4.891  -1.115  0.00  0.00    +0.002 A 
ATOM      7  C   UNL     1      -3.538   5.174  -0.140  0.00  0.00    +0.001 A 
ATOM      8  C   UNL     1      -2.712   4.182   0.347  0.00  0.00    +0.015 A 
ATOM      9  C   UNL     1      -2.834   2.887  -0.148  0.00  0.00    +0.065 A 
ATOM     10  C   UNL     1      -1.984   1.788   0.337  0.00  0.00    +0.263 A 
ATOM     11  O   UNL     1      -1.140   1.974   1.194  0.00  0.00    -0.267 OA
ENDROOT
BRANCH   1  14
ATOM     12  C   UNL     1       0.417   0.926  -0.801  0.00  0.00    +0.028 C 
ATOM     13  C   UNL     1       0.056  -0.507  -0.404  0.00  0.00    +0.105 C 
ATOM     14  C   UNL     1      -1.353  -0.566   0.234  0.00  0.00    +0.198 C 
ATOM     15  C   UNL     1      -1.039  -0.464   1.716  0.00  0.00    +0.258 C 
ATOM     16  O   UNL     1      -1.834  -0.218   2.598  0.00  0.00    -0.272 OA
ATOM     17  N   UNL     1       0.277  -0.697   1.878  0.00  0.00    -0.200 N 
ATOM     18  N   UNL     1       0.915  -0.981   0.706  0.00  0.00    -0.217 NA
ATOM     19  C   UNL     1       1.181  -2.421   0.587  0.00  0.00    +0.128 C 
BRANCH  17  20
ATOM     20  C   UNL     1       0.923  -0.651   3.118  0.00  0.00    +0.053 A 
ATOM     21  C   UNL     1       2.178  -0.067   3.228  0.00  0.00    +0.025 A 
ATOM     22  C   UNL     1       2.813  -0.024   4.454  0.00  0.00    +0.002 A 
ATOM     23  C   UNL     1       2.200  -0.562   5.571  0.00  0.00    +0.000 A 
ATOM     24  C   UNL     1       0.951  -1.145   5.464  0.00  0.00    +0.002 A 
ATOM     25  C   UNL     1       0.308  -1.185   4.243  0.00  0.00    +0.025 A 
ENDBRANCH  17  20
ENDBRANCH   1  14
BRANCH   2  26
ATOM     26  C   UNL     1      -3.310  -0.967  -1.728  0.00  0.00    +0.047 C 
ATOM     27  C   UNL     1      -4.324  -1.213  -2.602  0.00  0.00    +0.010 C 
BRANCH  27  28
ATOM     28  C   UNL     1      -4.567  -2.522  -3.044  0.00  0.00    -0.016 C 
ATOM     29  C   UNL     1      -5.513  -2.933  -3.978  0.00  0.00    +0.003 A 
ATOM     30  C   UNL     1      -6.474  -2.229  -4.737  0.00  0.00    +0.010 A 
ATOM     31  C   UNL     1      -7.284  -2.905  -5.590  0.00  0.00    +0.001 A 
ATOM     32  C   UNL     1      -7.194  -4.293  -5.742  0.00  0.00    +0.002 A 
ATOM     33  C   UNL     1      -6.299  -5.033  -5.048  0.00  0.00    +0.026 A 
ATOM     34  C   UNL     1      -5.414  -4.397  -4.134  0.00  0.00    +0.043 A 
ATOM     35  N   UNL     1      -4.473  -4.879  -3.355  0.00  0.00    -0.378 N 
ATOM     36  C   UNL     1      -3.850  -3.781  -2.610  0.00  0.00    +0.107 C 
ATOM     37  C   UNL     1      -4.032  -4.000  -1.107  0.00  0.00    +0.035 C 
ATOM     38  H   UNL     1      -4.226  -5.815  -3.287  0.00  0.00    +0.160 HD
ENDBRANCH  27  28
ENDBRANCH   2  26
TORSDOF 4
