REMARK  Name = ZINC15011786
REMARK  2 active torsions:
REMARK  status: ('A' for Active; 'I' for Inactive)
REMARK    1  A    between atoms: C_10  and  C_11
REMARK    2  A    between atoms: N_17  and  C_18
REMARK                            x       y       z     vdW  Elec       q    Type
REMARK                         _______ _______ _______ _____ _____    ______ ____
ROOT
ATOM      1  C   UNL     1       5.215   0.097  -1.207  0.00  0.00    +0.028 C 
ATOM      2  C   UNL     1       6.326  -0.578  -0.809  0.00  0.00    +0.078 C 
ATOM      3  C   UNL     1       6.501  -2.019  -0.547  0.00  0.00    +0.256 C 
ATOM      4  O   UNL     1       5.582  -2.806  -0.676  0.00  0.00    -0.269 OA
ATOM      5  N   UNL     1       7.703  -2.417  -0.165  0.00  0.00    -0.260 N 
ATOM      6  C   UNL     1       8.731  -1.511  -0.025  0.00  0.00    +0.166 C 
ATOM      7  N   UNL     1       9.973  -1.734   0.342  0.00  0.00    -0.224 NA
ATOM      8  S   UNL     1       7.967   0.041  -0.469  0.00  0.00    -0.049 S 
ATOM      9  H   UNL     1       7.863  -3.356   0.018  0.00  0.00    +0.157 HD
ENDROOT
BRANCH   1  19
ATOM     10  C   UNL     1       1.128   0.161  -4.350  0.00  0.00    +0.001 A 
ATOM     11  C   UNL     1       2.348   0.831  -4.338  0.00  0.00    +0.001 A 
ATOM     12  C   UNL     1       3.262   0.605  -3.351  0.00  0.00    +0.009 A 
ATOM     13  C   UNL     1       2.971  -0.313  -2.336  0.00  0.00    -0.011 A 
ATOM     14  C   UNL     1       1.731  -0.996  -2.345  0.00  0.00    -0.017 A 
ATOM     15  C   UNL     1       0.812  -0.739  -3.377  0.00  0.00    +0.008 A 
ATOM     16  C   UNL     1       1.441  -1.916  -1.323  0.00  0.00    +0.008 A 
ATOM     17  C   UNL     1       2.339  -2.156  -0.327  0.00  0.00    +0.001 A 
ATOM     18  C   UNL     1       3.566  -1.511  -0.276  0.00  0.00    +0.008 A 
ATOM     19  C   UNL     1       3.921  -0.587  -1.257  0.00  0.00    -0.016 A 
ENDBRANCH   1  19
BRANCH   7  20
ATOM     20  C   UNL     1      10.832  -0.684   0.525  0.00  0.00    +0.085 A 
ATOM     21  C   UNL     1      10.442   0.415   1.293  0.00  0.00    +0.029 A 
ATOM     22  C   UNL     1      11.313   1.470   1.474  0.00  0.00    +0.002 A 
ATOM     23  C   UNL     1      12.570   1.440   0.896  0.00  0.00    +0.002 A 
ATOM     24  C   UNL     1      12.964   0.355   0.134  0.00  0.00    +0.022 A 
ATOM     25  C   UNL     1      12.105  -0.710  -0.050  0.00  0.00    +0.066 A 
ATOM     26 CL   UNL     1      12.604  -2.075  -1.000  0.00  0.00    -0.081 Cl
ENDBRANCH   7  20
TORSDOF 2
