REMARK  Name = ZINC39990708
REMARK  9 active torsions:
REMARK  status: ('A' for Active; 'I' for Inactive)
REMARK    1  A    between atoms: C_1  and  C_2
REMARK    2  A    between atoms: C_2  and  C_4
REMARK    3  A    between atoms: C_2  and  S_16
REMARK    4  A    between atoms: N_6  and  C_7
REMARK    5  A    between atoms: C_11  and  C_13
REMARK    6  A    between atoms: C_13  and  C_15
REMARK    7  A    between atoms: S_16  and  C_17
REMARK    8  A    between atoms: C_21  and  C_26
REMARK    9  A    between atoms: N_22  and  C_23
REMARK                            x       y       z     vdW  Elec       q    Type
REMARK                         _______ _______ _______ _____ _____    ______ ____
ROOT
ATOM      1  C   UNL     1       0.532  -0.018   2.540  0.00  0.00    +0.238 C 
ATOM      2  N   UNL     1      -0.682  -0.742   2.953  0.00  0.00    -0.237 N 
ATOM      3  N   UNL     1      -1.667   0.228   3.175  0.00  0.00    -0.169 NA
ATOM      4  C   UNL     1      -1.208   1.431   2.952  0.00  0.00    +0.147 C 
ATOM      5  N   UNL     1       0.136   1.400   2.557  0.00  0.00    -0.282 N 
ATOM      6  H   UNL     1      -0.780  -1.702   3.050  0.00  0.00    +0.171 HD
ENDROOT
BRANCH   4   7
ATOM      7  C   UNL     1      -1.964   2.604   3.091  0.00  0.00    +0.022 C 
ATOM      8  C   UNL     1      -3.267   2.716   3.578  0.00  0.00    +0.006 A 
ATOM      9  C   UNL     1      -4.190   1.762   4.058  0.00  0.00    +0.010 A 
ATOM     10  C   UNL     1      -5.417   2.164   4.479  0.00  0.00    +0.001 A 
ATOM     11  C   UNL     1      -5.795   3.508   4.450  0.00  0.00    +0.002 A 
ATOM     12  C   UNL     1      -4.960   4.477   4.002  0.00  0.00    +0.026 A 
ATOM     13  C   UNL     1      -3.661   4.134   3.545  0.00  0.00    +0.043 A 
ATOM     14  N   UNL     1      -2.678   4.874   3.071  0.00  0.00    -0.380 N 
ATOM     15  C   UNL     1      -1.535   4.014   2.750  0.00  0.00    +0.152 C 
ATOM     16  H   UNL     1      -2.706   5.837   2.957  0.00  0.00    +0.160 HD
ENDBRANCH   4   7
BRANCH   5  17
ATOM     17  C   UNL     1       0.981   2.550   2.226  0.00  0.00    +0.078 C 
ATOM     18  C   UNL     1       2.409   2.265   1.757  0.00  0.00    +0.024 C 
ATOM     19  C   UNL     1       2.163   2.847   3.150  0.00  0.00    +0.024 C 
ENDBRANCH   5  17
BRANCH   1  20
ATOM     20  S   UNL     1       1.032  -0.517   0.870  0.00  0.00    -0.106 S 
BRANCH  20  22
ATOM     21  C   UNL     1      -0.699   1.239  -0.315  0.00  0.00    +0.029 C 
ATOM     22  C   UNL     1      -0.460  -0.261  -0.130  0.00  0.00    +0.133 C 
BRANCH  22  23
ATOM     23  C   UNL     1      -0.280  -0.911  -1.477  0.00  0.00    +0.230 C 
ATOM     24  O   UNL     1       0.834  -1.165  -1.884  0.00  0.00    -0.274 OA
ATOM     25  N   UNL     1      -1.356  -1.210  -2.231  0.00  0.00    -0.285 N 
ATOM     26  H   UNL     1      -2.243  -0.955  -1.932  0.00  0.00    +0.155 HD
BRANCH  25  27
ATOM     27  C   UNL     1      -1.195  -1.888  -3.445  0.00  0.00    +0.034 A 
ATOM     28  C   UNL     1      -2.009  -1.578  -4.528  0.00  0.00    +0.023 A 
ATOM     29  C   UNL     1      -1.855  -2.244  -5.729  0.00  0.00    +0.002 A 
ATOM     30  C   UNL     1      -0.891  -3.221  -5.863  0.00  0.00    +0.011 A 
ATOM     31  C   UNL     1      -0.066  -3.542  -4.781  0.00  0.00    +0.019 A 
ATOM     32  C   UNL     1      -0.219  -2.864  -3.568  0.00  0.00    +0.034 A 
BRANCH  31  33
ATOM     33  C   UNL     1       0.964  -4.584  -4.919  0.00  0.00    +0.160 C 
ATOM     34  O   UNL     1       1.678  -4.860  -3.979  0.00  0.00    -0.292 OA
ATOM     35  C   UNL     1       1.130  -5.309  -6.230  0.00  0.00    +0.091 C 
ENDBRANCH  31  33
ENDBRANCH  25  27
ENDBRANCH  22  23
ENDBRANCH  20  22
ENDBRANCH   1  20
TORSDOF 7
