REMARK  Name = ZINC63985792
REMARK  14 active torsions:
REMARK  status: ('A' for Active; 'I' for Inactive)
REMARK    1  A    between atoms: C_1  and  C_2
REMARK    2  A    between atoms: C_2  and  C_3
REMARK    3  A    between atoms: C_2  and  C_4
REMARK    4  A    between atoms: C_2  and  C_5
REMARK    5  A    between atoms: C_5  and  N_6
REMARK    6  A    between atoms: N_6  and  C_7
REMARK    7  A    between atoms: N_13  and  C_31
REMARK    8  A    between atoms: C_14  and  C_27
REMARK    9  A    between atoms: C_16  and  N_18
REMARK   10  A    between atoms: C_19  and  C_21
REMARK   11  A    between atoms: C_27  and  O_29
REMARK   12  A    between atoms: O_29  and  C_30
REMARK   13  A    between atoms: C_31  and  C_32
REMARK   14  A    between atoms: C_32  and  C_33
REMARK                            x       y       z     vdW  Elec       q    Type
REMARK                         _______ _______ _______ _____ _____    ______ ____
ROOT
ATOM      1  C   UNL     1       2.786  -0.919  -2.371  0.00  0.00    +0.044 A 
ATOM      2  C   UNL     1       4.010  -0.253  -2.347  0.00  0.00    +0.033 A 
ATOM      3  C   UNL     1       4.870  -0.418  -3.416  0.00  0.00    +0.015 A 
ATOM      4  C   UNL     1       4.508  -1.231  -4.480  0.00  0.00    +0.105 A 
ATOM      5  N   UNL     1       3.328  -1.850  -4.463  0.00  0.00    -0.348 N 
ATOM      6  C   UNL     1       2.484  -1.722  -3.460  0.00  0.00    +0.107 A 
ATOM      7  N   UNL     1       5.503  -1.270  -5.455  0.00  0.00    -0.301 N 
ATOM      8  C   UNL     1       6.636  -0.432  -5.054  0.00  0.00    +0.208 C 
ATOM      9  C   UNL     1       6.242   0.154  -3.689  0.00  0.00    +0.138 C 
ATOM     10  H   UNL     1       3.084  -2.417  -5.211  0.00  0.00    +0.167 HD
ENDROOT
BRANCH   9  11
ATOM     11  N   UNL     1       7.189  -0.273  -2.656  0.00  0.00    -0.306 N 
ATOM     12  C   UNL     1       7.306   0.435  -1.515  0.00  0.00    +0.219 C 
ATOM     13  O   UNL     1       6.627   1.425  -1.343  0.00  0.00    -0.275 OA
ATOM     14  H   UNL     1       7.732  -1.065  -2.793  0.00  0.00    +0.149 HD
BRANCH  12  15
ATOM     15  C   UNL     1       8.280  -0.004  -0.452  0.00  0.00    +0.103 C 
ATOM     16  C   UNL     1       8.267   0.987   0.737  0.00  0.00    +0.043 C 
ATOM     17  C   UNL     1       9.773   1.088   1.092  0.00  0.00    +0.160 C 
ATOM     18  O   UNL     1      10.426   1.038  -0.195  0.00  0.00    -0.379 OA
ATOM     19  C   UNL     1       9.724   0.059  -0.985  0.00  0.00    +0.172 C 
ENDBRANCH  12  15
ENDBRANCH   9  11
BRANCH   1  20
ATOM     20  N   UNL     1       1.879  -0.784  -1.311  0.00  0.00    -0.342 N 
ATOM     21  H   UNL     1       2.100  -0.219  -0.554  0.00  0.00    +0.146 HD
BRANCH  20  22
ATOM     22  C   UNL     1       0.599  -1.495  -1.347  0.00  0.00    +0.107 C 
BRANCH  22  24
ATOM     23  C   UNL     1      -0.452   0.329  -0.002  0.00  0.00    +0.012 C 
ATOM     24  C   UNL     1      -0.196  -1.177  -0.080  0.00  0.00    -0.022 C 
ATOM     25  C   UNL     1       0.601  -1.624   1.148  0.00  0.00    +0.012 C 
ATOM     26  C   UNL     1      -1.533  -1.920  -0.117  0.00  0.00    +0.012 C 
ENDBRANCH  22  24
ENDBRANCH  20  22
ENDBRANCH   1  20
BRANCH   8  27
ATOM     27  C   UNL     1       6.851   0.672  -6.058  0.00  0.00    +0.330 C 
ATOM     28  O   UNL     1       5.926   1.069  -6.726  0.00  0.00    -0.249 OA
BRANCH  27  29
ATOM     29  O   UNL     1       8.069   1.214  -6.209  0.00  0.00    -0.467 OA
ATOM     30  C   UNL     1       8.200   2.257  -7.178  0.00  0.00    +0.280 C 
ENDBRANCH  27  29
ENDBRANCH   8  27
BRANCH   7  31
ATOM     31  C   UNL     1       5.427  -2.038  -6.700  0.00  0.00    +0.112 C 
BRANCH  31  32
ATOM     32  C   UNL     1       5.947  -3.456  -6.457  0.00  0.00    +0.052 C 
BRANCH  32  33
ATOM     33  C   UNL     1       5.919  -4.229  -7.750  0.00  0.00    -0.040 C 
ATOM     34  C   UNL     1       6.941  -4.397  -8.620  0.00  0.00    -0.001 A 
ATOM     35  C   UNL     1       8.331  -3.927  -8.623  0.00  0.00    +0.010 A 
ATOM     36  C   UNL     1       9.136  -4.265  -9.656  0.00  0.00    +0.001 A 
ATOM     37  C   UNL     1       8.676  -5.051 -10.722  0.00  0.00    +0.002 A 
ATOM     38  C   UNL     1       7.412  -5.520 -10.790  0.00  0.00    +0.026 A 
ATOM     39  C   UNL     1       6.480  -5.226  -9.757  0.00  0.00    +0.043 A 
ATOM     40  N   UNL     1       5.222  -5.557  -9.597  0.00  0.00    -0.380 N 
ATOM     41  C   UNL     1       4.743  -4.981  -8.335  0.00  0.00    +0.144 C 
ATOM     42  H   UNL     1       4.696  -6.097 -10.208  0.00  0.00    +0.160 HD
ENDBRANCH  32  33
ENDBRANCH  31  32
ENDBRANCH   7  31
TORSDOF 10
