REMARK  Name = ZINC20584192
REMARK  8 active torsions:
REMARK  status: ('A' for Active; 'I' for Inactive)
REMARK    1  A    between atoms: C_1  and  C_2
REMARK    2  A    between atoms: C_2  and  C_3
REMARK    3  A    between atoms: C_6  and  N_9
REMARK    4  A    between atoms: C_11  and  C_16
REMARK    5  A    between atoms: C_22  and  C_24
REMARK    6  A    between atoms: N_29  and  C_31
REMARK    7  A    between atoms: C_34  and  O_37
REMARK    8  A    between atoms: O_37  and  C_38
REMARK                            x       y       z     vdW  Elec       q    Type
REMARK                         _______ _______ _______ _____ _____    ______ ____
ROOT
ATOM      1  C   UNL     1       4.111   2.743   4.938  0.00  0.00    +0.109 A 
ATOM      2  N   UNL     1       2.827   2.518   4.745  0.00  0.00    -0.144 NA
ATOM      3  N   UNL     1       2.361   2.409   3.577  0.00  0.00    -0.126 NA
ATOM      4  C   UNL     1       3.129   2.516   2.506  0.00  0.00    +0.188 A 
ATOM      5  S   UNL     1       4.680   2.793   3.242  0.00  0.00    -0.035 S 
ATOM      6  N   UNL     1       2.790   2.426   1.160  0.00  0.00    -0.263 N 
ATOM      7  C   UNL     1       1.512   2.197   0.801  0.00  0.00    +0.224 C 
ATOM      8  O   UNL     1       0.656   2.071   1.651  0.00  0.00    -0.275 OA
ATOM      9  H   UNL     1       3.566   2.541   0.389  0.00  0.00    +0.157 HD
ENDROOT
BRANCH   1  12
ATOM     10  N   UNL     1       4.665   2.199   8.503  0.00  0.00    -0.271 N 
ATOM     11  C   UNL     1       4.707   1.672   7.133  0.00  0.00    +0.124 C 
ATOM     12  C   UNL     1       4.883   2.907   6.222  0.00  0.00    +0.073 C 
ATOM     13  C   UNL     1       4.276   4.031   7.093  0.00  0.00    +0.108 C 
ATOM     14  C   UNL     1       4.418   3.520   8.510  0.00  0.00    +0.220 C 
ATOM     15  O   UNL     1       4.324   4.204   9.508  0.00  0.00    -0.275 OA
BRANCH  10  19
ATOM     16  C   UNL     1       5.234  -0.105  11.927  0.00  0.00    -0.048 A 
ATOM     17  C   UNL     1       5.409  -0.671  10.677  0.00  0.00    +0.005 A 
ATOM     18  C   UNL     1       5.221   0.090   9.540  0.00  0.00    +0.024 A 
ATOM     19  C   UNL     1       4.856   1.425   9.653  0.00  0.00    +0.036 A 
ATOM     20  C   UNL     1       4.686   1.992  10.909  0.00  0.00    +0.024 A 
ATOM     21  C   UNL     1       4.870   1.224  12.042  0.00  0.00    +0.005 A 
BRANCH  16  23
ATOM     22  C   UNL     1       6.901  -0.843  13.607  0.00  0.00    +0.009 C 
ATOM     23  C   UNL     1       5.440  -0.939  13.165  0.00  0.00    +0.032 C 
ENDBRANCH  16  23
ENDBRANCH  10  19
ENDBRANCH   1  12
BRANCH   7  24
ATOM     24  C   UNL     1       1.145   2.099  -0.658  0.00  0.00    +0.102 C 
ATOM     25  C   UNL     1       1.761   0.835  -1.300  0.00  0.00    +0.110 C 
ATOM     26  C   UNL     1       0.675  -0.211  -1.175  0.00  0.00    +0.221 C 
ATOM     27  O   UNL     1       0.844  -1.406  -1.299  0.00  0.00    -0.275 OA
ATOM     28  N   UNL     1      -0.504   0.376  -0.908  0.00  0.00    -0.271 N 
ATOM     29  C   UNL     1      -0.367   1.836  -0.831  0.00  0.00    +0.127 C 
BRANCH  28  30
ATOM     30  C   UNL     1      -1.708  -0.316  -0.725  0.00  0.00    +0.036 A 
ATOM     31  C   UNL     1      -1.762  -1.686  -0.940  0.00  0.00    +0.027 A 
ATOM     32  C   UNL     1      -2.948  -2.369  -0.755  0.00  0.00    +0.047 A 
ATOM     33  C   UNL     1      -4.089  -1.683  -0.365  0.00  0.00    +0.120 A 
ATOM     34  C   UNL     1      -4.038  -0.313  -0.154  0.00  0.00    +0.047 A 
ATOM     35  C   UNL     1      -2.851   0.370  -0.334  0.00  0.00    +0.027 A 
BRANCH  33  36
ATOM     36  O   UNL     1      -5.258  -2.354  -0.189  0.00  0.00    -0.495 OA
ATOM     37  C   UNL     1      -5.239  -3.764  -0.423  0.00  0.00    +0.277 C 
ENDBRANCH  33  36
ENDBRANCH  28  30
ENDBRANCH   7  24
TORSDOF 6
