REMARK  Name = ZINC13562101
REMARK  6 active torsions:
REMARK  status: ('A' for Active; 'I' for Inactive)
REMARK    1  A    between atoms: C_1  and  C_2
REMARK    2  A    between atoms: C_2  and  C_21
REMARK    3  A    between atoms: N_3  and  N_4
REMARK    4  A    between atoms: C_5  and  C_7
REMARK    5  A    between atoms: C_9  and  C_15
REMARK    6  A    between atoms: C_23  and  N_26
REMARK                            x       y       z     vdW  Elec       q    Type
REMARK                         _______ _______ _______ _____ _____    ______ ____
ROOT
ATOM      1  N   UNL     1       0.565   7.240   0.037  0.00  0.00    -0.206 N 
ATOM      2  C   UNL     1      -0.283   8.288   0.051  0.00  0.00    +0.245 C 
ATOM      3  O   UNL     1      -1.476   8.099   0.061  0.00  0.00    -0.273 OA
ATOM      4  H   UNL     1       1.523   7.392   0.029  0.00  0.00    +0.177 HD
ENDROOT
BRANCH   2   5
ATOM      5  C   UNL     1       0.257   9.695   0.054  0.00  0.00    +0.171 C 
ATOM      6  C   UNL     1      -0.897  10.717   0.167  0.00  0.00    +0.057 C 
ATOM      7  C   UNL     1      -0.265  11.810   1.057  0.00  0.00    +0.113 C 
ATOM      8  N   UNL     1       0.774  11.127   1.836  0.00  0.00    -0.314 N 
ATOM      9  C   UNL     1       1.091   9.939   1.293  0.00  0.00    +0.226 C 
ATOM     10  O   UNL     1       1.923   9.174   1.732  0.00  0.00    -0.275 OA
ATOM     11  H   UNL     1       1.181  11.487   2.640  0.00  0.00    +0.149 HD
BRANCH   6  12
ATOM     12  C   UNL     1      -1.262  11.269  -1.187  0.00  0.00    -0.042 A 
ATOM     13  C   UNL     1      -0.319  11.951  -1.933  0.00  0.00    +0.004 A 
ATOM     14  C   UNL     1      -0.653  12.454  -3.177  0.00  0.00    +0.000 A 
ATOM     15  C   UNL     1      -1.932  12.281  -3.671  0.00  0.00    +0.000 A 
ATOM     16  C   UNL     1      -2.877  11.604  -2.923  0.00  0.00    +0.000 A 
ATOM     17  C   UNL     1      -2.542  11.098  -1.681  0.00  0.00    +0.004 A 
ENDBRANCH   6  12
ENDBRANCH   2   5
BRANCH   1  20
ATOM     18  C   UNL     1       2.434   5.232   0.008  0.00  0.00    +0.068 C 
ATOM     19  C   UNL     1       0.946   4.996   0.021  0.00  0.00    +0.070 C 
ATOM     20  N   UNL     1       0.103   6.036   0.035  0.00  0.00    -0.184 NA
BRANCH  19  21
ATOM     21  C   UNL     1       0.451   3.707   0.018  0.00  0.00    +0.037 A 
ATOM     22  C   UNL     1      -0.958   3.245   0.029  0.00  0.00    +0.050 A 
ATOM     23  C   UNL     1      -1.134   1.925   0.017  0.00  0.00    +0.134 A 
ATOM     24  C   UNL     1      -0.013   1.076   0.008  0.00  0.00    +0.078 A 
ATOM     25  S   UNL     1       1.340   2.160   0.001  0.00  0.00    -0.093 S 
BRANCH  23  26
ATOM     26  N   UNL     1      -2.500   1.355   0.019  0.00  0.00    +0.057 N 
ATOM     27  O   UNL     1      -2.668   0.049   0.013  0.00  0.00    -0.126 OA
ATOM     28  O   UNL     1      -3.547   2.155   0.027  0.00  0.00    -0.126 OA
ENDBRANCH  23  26
ENDBRANCH  19  21
ENDBRANCH   1  20
TORSDOF 5
