REMARK  Name = ZINC35877797
REMARK  1 active torsions:
REMARK  status: ('A' for Active; 'I' for Inactive)
REMARK    1  A    between atoms: C_1  and  C_2
REMARK                            x       y       z     vdW  Elec       q    Type
REMARK                         _______ _______ _______ _____ _____    ______ ____
ROOT
ATOM      1  C   UNL     1      -0.019   1.525   0.010  0.00  0.00    +0.024 C 
ATOM      2  C   UNL     1       0.002  -0.004   0.002  0.00  0.00    +0.052 C 
ATOM      3  C   UNL     1      -1.412  -0.549  -0.105  0.00  0.00    +0.023 C 
ATOM      4  C   UNL     1      -1.380  -2.077  -0.016  0.00  0.00    +0.039 C 
ATOM      5  C   UNL     1      -1.411  -2.496   1.431  0.00  0.00    -0.016 A 
ATOM      6  C   UNL     1      -2.126  -3.647   1.966  0.00  0.00    +0.003 A 
ATOM      7  C   UNL     1      -2.954  -4.603   1.372  0.00  0.00    +0.010 A 
ATOM      8  C   UNL     1      -3.440  -5.594   2.190  0.00  0.00    +0.001 A 
ATOM      9  C   UNL     1      -3.134  -5.649   3.540  0.00  0.00    +0.002 A 
ATOM     10  C   UNL     1      -2.336  -4.701   4.157  0.00  0.00    +0.026 A 
ATOM     11  C   UNL     1      -1.839  -3.677   3.352  0.00  0.00    +0.047 A 
ATOM     12  N   UNL     1      -1.070  -2.587   3.624  0.00  0.00    -0.356 N 
ATOM     13  H   UNL     1      -0.756  -2.331   4.503  0.00  0.00    +0.166 HD
ATOM     14  C   UNL     1      -0.788  -1.900   2.458  0.00  0.00    +0.054 A 
ATOM     15  C   UNL     1       0.120  -0.697   2.409  0.00  0.00    +0.164 C 
ATOM     16  N   UNL     1       0.755  -0.524   1.118  0.00  0.00    -0.292 NA
ATOM     17  C   UNL     1      -0.547   0.526   2.946  0.00  0.00    +0.009 A 
ATOM     18  C   UNL     1      -1.754   1.132   2.669  0.00  0.00    +0.008 A 
ATOM     19  C   UNL     1      -2.042   2.327   3.321  0.00  0.00    +0.000 A 
ATOM     20  C   UNL     1      -1.177   2.868   4.249  0.00  0.00    +0.002 A 
ATOM     21  C   UNL     1       0.004   2.231   4.592  0.00  0.00    +0.023 A 
ATOM     22  C   UNL     1       0.300   1.034   3.942  0.00  0.00    +0.039 A 
ATOM     23  N   UNL     1       1.343   0.156   4.176  0.00  0.00    -0.283 N 
ATOM     24  C   UNL     1       1.245  -0.948   3.417  0.00  0.00    +0.248 C 
ATOM     25  O   UNL     1       1.906  -1.959   3.494  0.00  0.00    -0.273 OA
ATOM     26  H   UNL     1       1.345  -1.303   0.868  0.00  0.00    +0.124 HD
ATOM     27  H   UNL     1       2.057   0.325   4.815  0.00  0.00    +0.155 HD
ENDROOT
TORSDOF 0
