REMARK  Name = ZINC34988264
REMARK  3 active torsions:
REMARK  status: ('A' for Active; 'I' for Inactive)
REMARK    1  A    between atoms: C_15  and  C_17
REMARK    2  A    between atoms: N_30  and  C_31
REMARK    3  A    between atoms: C_31  and  C_32
REMARK                            x       y       z     vdW  Elec       q    Type
REMARK                         _______ _______ _______ _____ _____    ______ ____
ROOT
ATOM      1  C   UNL     1       0.061   1.316   0.789  0.00  0.00    +0.001 A 
ATOM      2  C   UNL     1       1.239   2.035   0.668  0.00  0.00    +0.002 A 
ATOM      3  C   UNL     1       2.422   1.401   0.343  0.00  0.00    +0.024 A 
ATOM      4  C   UNL     1       2.442   0.027   0.132  0.00  0.00    +0.045 A 
ATOM      5  C   UNL     1       1.248  -0.698   0.254  0.00  0.00    +0.010 A 
ATOM      6  C   UNL     1       0.060  -0.049   0.583  0.00  0.00    +0.010 A 
ATOM      7  C   UNL     1       1.585  -2.109  -0.024  0.00  0.00    +0.065 C 
ATOM      8  C   UNL     1       0.731  -3.195  -0.022  0.00  0.00    +0.095 A 
ATOM      9  C   UNL     1      -0.748  -3.232   0.084  0.00  0.00    +0.288 A 
ATOM     10  O   UNL     1      -1.400  -2.212   0.189  0.00  0.00    -0.265 OA
ATOM     11  N   UNL     1      -1.337  -4.435   0.060  0.00  0.00    -0.169 N 
ATOM     12  C   UNL     1      -0.561  -5.551  -0.059  0.00  0.00    +0.200 A 
ATOM     13  S   UNL     1       1.104  -4.937  -0.154  0.00  0.00    -0.044 S 
ATOM     14  N   UNL     1      -1.320  -6.611  -0.061  0.00  0.00    -0.201 NA
ATOM     15  C   UNL     1      -2.597  -6.239   0.053  0.00  0.00    +0.196 A 
ATOM     16  N   UNL     1      -2.664  -4.942   0.130  0.00  0.00    -0.142 NA
ATOM     17  C   UNL     1       3.037  -2.107  -0.306  0.00  0.00    +0.253 C 
ATOM     18  O   UNL     1       3.714  -3.079  -0.583  0.00  0.00    -0.270 OA
ATOM     19  N   UNL     1       3.475  -0.841  -0.200  0.00  0.00    -0.262 N 
ENDROOT
BRANCH  15  20
ATOM     20  C   UNL     1      -3.777  -7.177   0.088  0.00  0.00    +0.280 C 
ATOM     21  C   UNL     1      -3.840  -7.878   1.452  0.00  0.00    +0.281 C 
ATOM     22  O   UNL     1      -4.961  -8.769   1.446  0.00  0.00    -0.484 OA
ATOM     23  C   UNL     1      -5.107  -9.561   0.349  0.00  0.00    +0.162 A 
ATOM     24  C   UNL     1      -5.927 -10.677   0.419  0.00  0.00    +0.049 A 
ATOM     25  C   UNL     1      -6.087 -11.489  -0.688  0.00  0.00    +0.004 A 
ATOM     26  C   UNL     1      -5.431 -11.191  -1.868  0.00  0.00    +0.004 A 
ATOM     27  C   UNL     1      -4.612 -10.081  -1.944  0.00  0.00    +0.049 A 
ATOM     28  C   UNL     1      -4.445  -9.263  -0.837  0.00  0.00    +0.163 A 
ATOM     29  O   UNL     1      -3.629  -8.177  -0.925  0.00  0.00    -0.474 OA
ENDBRANCH  15  20
BRANCH  19  30
ATOM     30  C   UNL     1       4.866  -0.429  -0.408  0.00  0.00    +0.149 C 
BRANCH  30  31
ATOM     31  C   UNL     1       5.611  -0.496   0.900  0.00  0.00    -0.030 A 
ATOM     32  C   UNL     1       5.645   0.608   1.732  0.00  0.00    +0.008 A 
ATOM     33  C   UNL     1       6.327   0.548   2.933  0.00  0.00    +0.038 A 
ATOM     34  C   UNL     1       6.976  -0.618   3.302  0.00  0.00    +0.123 A 
ATOM     35  C   UNL     1       6.941  -1.723   2.468  0.00  0.00    +0.038 A 
ATOM     36  C   UNL     1       6.254  -1.662   1.270  0.00  0.00    +0.008 A 
ATOM     37  F   UNL     1       7.644  -0.678   4.475  0.00  0.00    -0.205 F 
ENDBRANCH  30  31
ENDBRANCH  19  30
TORSDOF 3
