REMARK  Name = ZINC01396990
REMARK  8 active torsions:
REMARK  status: ('A' for Active; 'I' for Inactive)
REMARK    1  A    between atoms: C_1  and  N_2
REMARK    2  A    between atoms: C_3  and  C_18
REMARK    3  A    between atoms: C_6  and  S_7
REMARK    4  A    between atoms: S_7  and  C_8
REMARK    5  A    between atoms: C_8  and  C_9
REMARK    6  A    between atoms: C_12  and  N_15
REMARK    7  A    between atoms: N_23  and  S_24
REMARK    8  A    between atoms: S_24  and  C_27
REMARK                            x       y       z     vdW  Elec       q    Type
REMARK                         _______ _______ _______ _____ _____    ______ ____
ROOT
ATOM      1  C   UNL     1      -7.763   5.537   3.889  0.00  0.00    +0.152 C 
ATOM      2  N   UNL     1      -7.923   5.631   2.436  0.00  0.00    -0.308 N 
ATOM      3  C   UNL     1      -8.957   6.212   1.756  0.00  0.00    +0.153 A 
ATOM      4  N   UNL     1      -8.708   6.077   0.484  0.00  0.00    -0.132 NA
ATOM      5  N   UNL     1      -7.594   5.460   0.315  0.00  0.00    -0.122 NA
ATOM      6  C   UNL     1      -7.071   5.157   1.480  0.00  0.00    +0.192 A 
ENDROOT
BRANCH   3   7
ATOM      7  C   UNL     1     -10.161   6.884   2.364  0.00  0.00    +0.148 C 
ATOM      8  C   UNL     1     -11.408   5.994   2.179  0.00  0.00    +0.030 C 
ATOM      9  C   UNL     1     -12.528   7.024   1.878  0.00  0.00    +0.019 C 
ATOM     10  C   UNL     1     -11.760   8.087   1.052  0.00  0.00    +0.110 C 
ATOM     11  N   UNL     1     -10.425   8.155   1.674  0.00  0.00    -0.166 NA
BRANCH  11  12
ATOM     12  S   UNL     1      -9.395   9.450   1.607  0.00  0.00    +0.061 S 
ATOM     13  O   UNL     1     -10.200  10.597   1.368  0.00  0.00    -0.153 OA
ATOM     14  O   UNL     1      -8.536   9.344   2.734  0.00  0.00    -0.153 OA
BRANCH  12  15
ATOM     15  C   UNL     1      -8.383   9.238   0.181  0.00  0.00    +0.106 A 
ATOM     16  C   UNL     1      -7.184   8.558   0.280  0.00  0.00    +0.029 A 
ATOM     17  C   UNL     1      -6.392   8.387  -0.840  0.00  0.00    +0.017 A 
ATOM     18  C   UNL     1      -6.794   8.906  -2.058  0.00  0.00    +0.018 A 
ATOM     19  C   UNL     1      -7.992   9.592  -2.155  0.00  0.00    +0.017 A 
ATOM     20  C   UNL     1      -8.786   9.757  -1.035  0.00  0.00    +0.029 A 
ATOM     21 BR   UNL     1      -5.708   8.678  -3.588  0.00  0.00    -0.050 Br
ENDBRANCH  12  15
ENDBRANCH  11  12
ENDBRANCH   3   7
BRANCH   6  22
ATOM     22  S   UNL     1      -5.553   4.307   1.759  0.00  0.00    -0.081 S 
BRANCH  22  23
ATOM     23  C   UNL     1      -5.034   4.022   0.048  0.00  0.00    +0.112 C 
BRANCH  23  24
ATOM     24  C   UNL     1      -3.719   3.286   0.038  0.00  0.00    -0.037 A 
ATOM     25  C   UNL     1      -3.700   1.904   0.030  0.00  0.00    +0.007 A 
ATOM     26  C   UNL     1      -2.494   1.229   0.021  0.00  0.00    +0.033 A 
ATOM     27  C   UNL     1      -1.306   1.936   0.019  0.00  0.00    +0.126 A 
ATOM     28  C   UNL     1      -1.325   3.319   0.032  0.00  0.00    +0.033 A 
ATOM     29  C   UNL     1      -2.531   3.993   0.037  0.00  0.00    +0.007 A 
BRANCH  27  30
ATOM     30  N   UNL     1      -0.014   1.214   0.009  0.00  0.00    +0.056 N 
ATOM     31  O   UNL     1       0.002  -0.004   0.002  0.00  0.00    -0.126 OA
ATOM     32  O   UNL     1       1.032   1.837   0.002  0.00  0.00    -0.126 OA
ENDBRANCH  27  30
ENDBRANCH  23  24
ENDBRANCH  22  23
ENDBRANCH   6  22
TORSDOF 7
