REMARK  Name = ZINC33008216
REMARK  6 active torsions:
REMARK  status: ('A' for Active; 'I' for Inactive)
REMARK    1  A    between atoms: C_3  and  N_20
REMARK    2  A    between atoms: C_6  and  N_7
REMARK    3  A    between atoms: C_8  and  C_10
REMARK    4  A    between atoms: C_10  and  C_11
REMARK    5  A    between atoms: C_11  and  N_12
REMARK    6  A    between atoms: C_13  and  C_15
REMARK                            x       y       z     vdW  Elec       q    Type
REMARK                         _______ _______ _______ _____ _____    ______ ____
ROOT
ATOM      1  N   UNL     1       2.276   3.950   0.002  0.00  0.00    -0.284 N 
ATOM      2  C   UNL     1       2.202   5.293  -0.093  0.00  0.00    +0.219 C 
ATOM      3  O   UNL     1       1.122   5.844  -0.081  0.00  0.00    -0.275 OA
ATOM      4  H   UNL     1       3.256   3.457   0.078  0.00  0.00    +0.155 HD
ENDROOT
BRANCH   1  10
ATOM      5  C   UNL     1      -0.010   3.596  -0.725  0.00  0.00    +0.028 A 
ATOM      6  C   UNL     1      -1.146   2.807  -0.695  0.00  0.00    +0.050 A 
ATOM      7  C   UNL     1      -1.139   1.640   0.058  0.00  0.00    +0.156 A 
ATOM      8  N   UNL     1      -0.061   1.275   0.733  0.00  0.00    -0.234 NA
ATOM      9  C   UNL     1       1.038   2.002   0.728  0.00  0.00    +0.136 A 
ATOM     10  C   UNL     1       1.104   3.184   0.003  0.00  0.00    +0.052 A 
BRANCH   7  11
ATOM     11  N   UNL     1      -2.285   0.837   0.099  0.00  0.00    -0.202 N 
ATOM     12  C   UNL     1      -2.440  -0.317   0.778  0.00  0.00    +0.226 A 
ATOM     13  N   UNL     1      -3.652  -0.757   0.558  0.00  0.00    -0.222 NA
ATOM     14  C   UNL     1      -4.298   0.083  -0.250  0.00  0.00    +0.245 A 
ATOM     15  N   UNL     1      -3.506   1.077  -0.553  0.00  0.00    -0.152 NA
ENDBRANCH   7  11
ENDBRANCH   1  10
BRANCH   2  16
ATOM     16  C   UNL     1       3.463   6.110  -0.213  0.00  0.00    +0.115 C 
BRANCH  16  17
ATOM     17  C   UNL     1       3.102   7.594  -0.304  0.00  0.00    +0.113 C 
BRANCH  17  18
ATOM     18  N   UNL     1       4.328   8.388  -0.421  0.00  0.00    -0.315 N 
ATOM     19  C   UNL     1       4.254   9.731  -0.516  0.00  0.00    +0.216 C 
ATOM     20  O   UNL     1       3.174  10.281  -0.504  0.00  0.00    -0.276 OA
ATOM     21  H   UNL     1       5.308   7.889  -0.433  0.00  0.00    +0.149 HD
BRANCH  19  22
ATOM     22  C   UNL     1       5.515  10.547  -0.637  0.00  0.00    +0.075 C 
ATOM     23  C   UNL     1       6.380  10.374   0.628  0.00  0.00    +0.013 C 
ATOM     24  C   UNL     1       6.995  11.776   0.864  0.00  0.00    +0.001 C 
ATOM     25  C   UNL     1       5.833  12.726   0.484  0.00  0.00    +0.001 C 
ATOM     26  C   UNL     1       5.167  12.043  -0.729  0.00  0.00    +0.013 C 
ENDBRANCH  19  22
ENDBRANCH  17  18
ENDBRANCH  16  17
ENDBRANCH   2  16
TORSDOF 6
