REMARK  Name = ZINC45371721
REMARK  9 active torsions:
REMARK  status: ('A' for Active; 'I' for Inactive)
REMARK    1  A    between atoms: C_1  and  C_2
REMARK    2  A    between atoms: C_2  and  C_4
REMARK    3  A    between atoms: C_2  and  O_23
REMARK    4  A    between atoms: N_6  and  C_7
REMARK    5  A    between atoms: O_23  and  C_24
REMARK    6  A    between atoms: C_24  and  C_26
REMARK    7  A    between atoms: C_26  and  C_28
REMARK    8  A    between atoms: C_26  and  O_29
REMARK    9  A    between atoms: O_29  and  C_30
REMARK                            x       y       z     vdW  Elec       q    Type
REMARK                         _______ _______ _______ _____ _____    ______ ____
ROOT
ATOM      1  C   UNL     1      -1.186  -0.403  -0.126  0.00  0.00    +0.258 C 
ATOM      2  O   UNL     1      -1.749  -1.012   0.759  0.00  0.00    -0.271 OA
ATOM      3  N   UNL     1      -1.825  -0.155  -1.286  0.00  0.00    -0.282 N 
ATOM      4  H   UNL     1      -1.398   0.384  -1.970  0.00  0.00    +0.155 HD
ENDROOT
BRANCH   3   5
ATOM      5  C   UNL     1      -3.099  -0.672  -1.503  0.00  0.00    +0.045 A 
ATOM      6  C   UNL     1      -4.000  -0.783  -0.445  0.00  0.00    +0.024 A 
ATOM      7  C   UNL     1      -5.262  -1.296  -0.655  0.00  0.00    +0.003 A 
ATOM      8  C   UNL     1      -5.656  -1.707  -1.920  0.00  0.00    +0.012 A 
ATOM      9  C   UNL     1      -4.775  -1.605  -2.989  0.00  0.00    +0.035 A 
ATOM     10  C   UNL     1      -3.484  -1.077  -2.784  0.00  0.00    +0.054 A 
ATOM     11  C   UNL     1      -2.552  -0.963  -3.921  0.00  0.00    +0.196 C 
ATOM     12  O   UNL     1      -1.370  -0.755  -3.728  0.00  0.00    -0.287 OA
ATOM     13  C   UNL     1      -3.072  -1.104  -5.299  0.00  0.00    +0.033 A 
ATOM     14  C   UNL     1      -2.297  -0.725  -6.390  0.00  0.00    +0.012 A 
ATOM     15  C   UNL     1      -2.799  -0.864  -7.672  0.00  0.00    +0.001 A 
ATOM     16  C   UNL     1      -4.067  -1.378  -7.877  0.00  0.00    +0.001 A 
ATOM     17  C   UNL     1      -4.851  -1.760  -6.802  0.00  0.00    +0.012 A 
ATOM     18  C   UNL     1      -4.361  -1.627  -5.507  0.00  0.00    +0.033 A 
ATOM     19  C   UNL     1      -5.181  -2.039  -4.343  0.00  0.00    +0.195 C 
ATOM     20  O   UNL     1      -6.179  -2.713  -4.500  0.00  0.00    -0.287 OA
ENDBRANCH   3   5
BRANCH   1  22
ATOM     21  C   UNL     1       0.255   1.606   0.067  0.00  0.00    +0.062 C 
ATOM     22  C   UNL     1       0.229   0.076   0.071  0.00  0.00    +0.259 C 
BRANCH  22  23
ATOM     23  O   UNL     1       0.725  -0.405   1.322  0.00  0.00    -0.450 OA
BRANCH  23  24
ATOM     24  C   UNL     1       2.045  -0.630   1.409  0.00  0.00    +0.349 C 
ATOM     25  O   UNL     1       2.757  -0.425   0.454  0.00  0.00    -0.247 OA
BRANCH  24  26
ATOM     26  C   UNL     1       2.640  -1.138   2.697  0.00  0.00    +0.278 C 
ATOM     27  C   UNL     1       2.104  -2.541   2.988  0.00  0.00    +0.064 C 
BRANCH  26  28
ATOM     28  O   UNL     1       4.063  -1.187   2.578  0.00  0.00    -0.478 OA
BRANCH  28  29
ATOM     29  C   UNL     1       4.781  -1.125   3.730  0.00  0.00    +0.122 A 
ATOM     30  C   UNL     1       6.162  -1.255   3.696  0.00  0.00    +0.045 A 
ATOM     31  C   UNL     1       6.890  -1.192   4.868  0.00  0.00    +0.004 A 
ATOM     32  C   UNL     1       6.243  -1.000   6.075  0.00  0.00    +0.000 A 
ATOM     33  C   UNL     1       4.867  -0.872   6.112  0.00  0.00    +0.004 A 
ATOM     34  C   UNL     1       4.135  -0.928   4.941  0.00  0.00    +0.045 A 
ENDBRANCH  28  29
ENDBRANCH  26  28
ENDBRANCH  24  26
ENDBRANCH  23  24
ENDBRANCH  22  23
ENDBRANCH   1  22
TORSDOF 7
