REMARK  Name = ZINC65924380
REMARK  6 active torsions:
REMARK  status: ('A' for Active; 'I' for Inactive)
REMARK    1  A    between atoms: C_1  and  C_2
REMARK    2  A    between atoms: C_2  and  C_3
REMARK    3  A    between atoms: C_2  and  C_4
REMARK    4  A    between atoms: C_2  and  N_5
REMARK    5  A    between atoms: C_7  and  N_10
REMARK    6  A    between atoms: C_11  and  C_13
REMARK                            x       y       z     vdW  Elec       q    Type
REMARK                         _______ _______ _______ _____ _____    ______ ____
ROOT
ATOM      1  N   UNL     1       3.507  -1.151  -3.265  0.00  0.00    -0.279 N 
ATOM      2  C   UNL     1       3.587  -1.687  -4.499  0.00  0.00    +0.255 C 
ATOM      3  O   UNL     1       2.575  -2.026  -5.082  0.00  0.00    -0.270 OA
ATOM      4  H   UNL     1       4.315  -0.880  -2.801  0.00  0.00    +0.155 HD
ENDROOT
BRANCH   2   5
ATOM      5  C   UNL     1       4.901  -1.861  -5.142  0.00  0.00    +0.122 A 
ATOM      6  C   UNL     1       5.015  -2.405  -6.415  0.00  0.00    +0.031 A 
ATOM      7  C   UNL     1       6.316  -2.571  -6.955  0.00  0.00    +0.018 A 
ATOM      8  C   UNL     1       6.487  -2.925  -8.302  0.00  0.00    +0.011 A 
ATOM      9  C   UNL     1       7.746  -3.040  -8.817  0.00  0.00    +0.001 A 
ATOM     10  C   UNL     1       8.860  -2.819  -8.019  0.00  0.00    +0.004 A 
ATOM     11  C   UNL     1       8.715  -2.489  -6.687  0.00  0.00    +0.047 A 
ATOM     12  C   UNL     1       7.444  -2.373  -6.138  0.00  0.00    +0.139 A 
ATOM     13  O   UNL     1       7.290  -2.093  -4.822  0.00  0.00    -0.422 OA
ATOM     14  C   UNL     1       6.146  -1.460  -4.463  0.00  0.00    +0.350 A 
ATOM     15  O   UNL     1       6.145  -0.595  -3.607  0.00  0.00    -0.244 OA
ENDBRANCH   2   5
BRANCH   1  18
ATOM     16  N   UNL     1       0.688  -0.476  -1.203  0.00  0.00    -0.264 N 
ATOM     17  C   UNL     1       2.029  -0.461  -1.418  0.00  0.00    +0.132 A 
ATOM     18  C   UNL     1       2.252  -0.984  -2.651  0.00  0.00    +0.072 A 
ATOM     19  C   UNL     1       1.010  -1.329  -3.203  0.00  0.00    +0.157 A 
ATOM     20  N   UNL     1       0.077  -1.030  -2.336  0.00  0.00    -0.177 NA
BRANCH  16  22
ATOM     21  C   UNL     1      -0.019   1.526   0.010  0.00  0.00    +0.036 C 
ATOM     22  C   UNL     1       0.002  -0.004   0.002  0.00  0.00    +0.055 C 
ATOM     23  C   UNL     1       0.742  -0.511   1.242  0.00  0.00    +0.036 C 
ATOM     24  C   UNL     1      -1.433  -0.534   0.013  0.00  0.00    +0.036 C 
ENDBRANCH  16  22
ENDBRANCH   1  18
TORSDOF 3
