REMARK  Name = ZINC20080470
REMARK  8 active torsions:
REMARK  status: ('A' for Active; 'I' for Inactive)
REMARK    1  A    between atoms: C_1  and  C_2
REMARK    2  A    between atoms: C_2  and  O_3
REMARK    3  A    between atoms: O_3  and  C_4
REMARK    4  A    between atoms: C_11  and  C_16
REMARK    5  A    between atoms: C_16  and  C_18
REMARK    6  A    between atoms: C_16  and  N_28
REMARK    7  A    between atoms: N_22  and  C_23
REMARK    8  A    between atoms: N_31  and  C_34
REMARK                            x       y       z     vdW  Elec       q    Type
REMARK                         _______ _______ _______ _____ _____    ______ ____
ROOT
ATOM      1  C   UNL     1       0.002  -0.004   0.002  0.00  0.00    +0.162 C 
ENDROOT
BRANCH   1   9
ATOM      2  C   UNL     1      -0.656  -2.809  -5.487  0.00  0.00    +0.121 A 
ATOM      3  C   UNL     1       0.620  -2.511  -5.961  0.00  0.00    +0.047 A 
ATOM      4  C   UNL     1       1.506  -1.794  -5.188  0.00  0.00    +0.030 A 
ATOM      5  C   UNL     1       1.130  -1.360  -3.921  0.00  0.00    +0.049 A 
ATOM      6  C   UNL     1      -0.158  -1.658  -3.438  0.00  0.00    +0.002 A 
ATOM      7  C   UNL     1      -1.049  -2.387  -4.233  0.00  0.00    +0.055 A 
ATOM      8  C   UNL     1      -0.538  -1.201  -2.101  0.00  0.00    +0.021 A 
ATOM      9  C   UNL     1       0.364  -0.494  -1.376  0.00  0.00    +0.042 A 
ATOM     10  C   UNL     1       1.643  -0.221  -1.906  0.00  0.00    +0.254 A 
ATOM     11  O   UNL     1       2.441   0.412  -1.236  0.00  0.00    -0.268 OA
ATOM     12  N   UNL     1       2.004  -0.641  -3.131  0.00  0.00    -0.322 N 
ATOM     13  H   UNL     1       3.012  -0.403  -3.502  0.00  0.00    +0.169 HD
BRANCH   2  14
ATOM     14  O   UNL     1      -1.518  -3.517  -6.264  0.00  0.00    -0.492 OA
BRANCH  14  16
ATOM     15  C   UNL     1      -2.149  -4.702  -8.273  0.00  0.00    +0.048 C 
ATOM     16  C   UNL     1      -1.048  -3.922  -7.551  0.00  0.00    +0.225 C 
ENDBRANCH  14  16
ENDBRANCH   2  14
ENDBRANCH   1   9
BRANCH   1  17
ATOM     17  N   UNL     1       0.997  -0.486   0.970  0.00  0.00    -0.292 NA
ATOM     18  C   UNL     1       1.109  -1.950   0.925  0.00  0.00    +0.067 C 
ATOM     19  C   UNL     1       2.209  -2.405   1.888  0.00  0.00    -0.063 C 
ATOM     20  N   UNL     1       1.887  -1.945   3.246  0.00  0.00    +0.383 N 
ATOM     21  C   UNL     1       1.775  -0.480   3.291  0.00  0.00    -0.063 C 
ATOM     22  C   UNL     1       0.675  -0.026   2.328  0.00  0.00    +0.067 C 
ATOM     23  H   UNL     1       0.912  -2.369   3.526  0.00  0.00    -0.081 HD
BRANCH  20  24
ATOM     24  C   UNL     1       2.882  -2.427   4.214  0.00  0.00    -0.068 C 
ATOM     25  C   UNL     1       4.269  -1.920   3.814  0.00  0.00    -0.015 C 
ATOM     26  C   UNL     1       5.306  -2.422   4.822  0.00  0.00    -0.002 C 
ATOM     27  C   UNL     1       5.305  -3.952   4.835  0.00  0.00    -0.000 C 
ATOM     28  C   UNL     1       3.918  -4.458   5.235  0.00  0.00    -0.002 C 
ATOM     29  C   UNL     1       2.882  -3.957   4.227  0.00  0.00    -0.015 C 
ENDBRANCH  20  24
ENDBRANCH   1  17
BRANCH   1  30
ATOM     30  C   UNL     1      -0.018   1.503   0.010  0.00  0.00    +0.173 A 
ATOM     31  N   UNL     1       1.022   2.300   0.005  0.00  0.00    -0.111 NA
ATOM     32  N   UNL     1       0.593   3.514   0.015  0.00  0.00    -0.023 NA
ATOM     33  N   UNL     1      -0.694   3.513   0.027  0.00  0.00    -0.044 NA
ATOM     34  N   UNL     1      -1.109   2.292   0.019  0.00  0.00    -0.224 N 
BRANCH  34  35
ATOM     35  C   UNL     1      -2.505   1.847   0.023  0.00  0.00    +0.111 C 
ATOM     36  C   UNL     1      -3.247   2.426  -1.199  0.00  0.00    +0.027 C 
ATOM     37  C   UNL     1      -4.666   2.747  -0.663  0.00  0.00    +0.002 C 
ATOM     38  C   UNL     1      -4.381   3.271   0.766  0.00  0.00    +0.002 C 
ATOM     39  C   UNL     1      -3.226   2.383   1.272  0.00  0.00    +0.027 C 
ENDBRANCH  34  35
ENDBRANCH   1  30
TORSDOF 7
