REMARK  Name = ZINC38664529
REMARK  10 active torsions:
REMARK  status: ('A' for Active; 'I' for Inactive)
REMARK    1  A    between atoms: C_1  and  C_2
REMARK    2  A    between atoms: N_5  and  C_17
REMARK    3  A    between atoms: N_8  and  C_9
REMARK    4  A    between atoms: C_13  and  O_15
REMARK    5  A    between atoms: O_15  and  C_16
REMARK    6  A    between atoms: C_17  and  C_18
REMARK    7  A    between atoms: N_20  and  C_21
REMARK    8  A    between atoms: C_29  and  C_31
REMARK    9  A    between atoms: C_31  and  O_33
REMARK   10  A    between atoms: O_33  and  C_34
REMARK                            x       y       z     vdW  Elec       q    Type
REMARK                         _______ _______ _______ _____ _____    ______ ____
ROOT
ATOM      1  C   UNL     1      -2.370  -5.289   0.502  0.00  0.00    +0.200 C 
ATOM      2  O   UNL     1      -1.501  -4.923  -0.260  0.00  0.00    -0.278 OA
ATOM      3  N   UNL     1      -2.869  -6.537   0.405  0.00  0.00    -0.288 N 
ATOM      4  H   UNL     1      -3.613  -6.807   0.967  0.00  0.00    +0.155 HD
ENDROOT
BRANCH   3   5
ATOM      5  C   UNL     1      -2.328  -7.420  -0.480  0.00  0.00    +0.053 C 
ATOM      6  C   UNL     1      -2.780  -8.697  -0.769  0.00  0.00    +0.019 A 
ATOM      7  C   UNL     1      -3.870  -9.457  -0.280  0.00  0.00    +0.026 A 
ATOM      8  C   UNL     1      -4.079 -10.712  -0.752  0.00  0.00    +0.019 A 
ATOM      9  C   UNL     1      -3.241 -11.281  -1.716  0.00  0.00    +0.017 A 
ATOM     10  C   UNL     1      -2.180 -10.612  -2.228  0.00  0.00    +0.027 A 
ATOM     11  C   UNL     1      -1.896  -9.294  -1.785  0.00  0.00    +0.045 A 
ATOM     12  N   UNL     1      -0.943  -8.448  -2.119  0.00  0.00    -0.367 N 
ATOM     13  C   UNL     1      -1.114  -7.207  -1.357  0.00  0.00    +0.234 C 
ATOM     14 BR   UNL     1      -5.538 -11.715  -0.089  0.00  0.00    -0.050 Br
ATOM     15  H   UNL     1      -0.242  -8.617  -2.768  0.00  0.00    +0.161 HD
BRANCH  13  16
ATOM     16  C   UNL     1       0.103  -6.953  -0.505  0.00  0.00    +0.335 C 
ATOM     17  O   UNL     1       0.682  -7.878   0.013  0.00  0.00    -0.248 OA
BRANCH  16  18
ATOM     18  O   UNL     1       0.543  -5.698  -0.320  0.00  0.00    -0.466 OA
ATOM     19  C   UNL     1       1.701  -5.531   0.499  0.00  0.00    +0.280 C 
ENDBRANCH  16  18
ENDBRANCH  13  16
ENDBRANCH   3   5
BRANCH   1  20
ATOM     20  C   UNL     1      -2.893  -4.348   1.556  0.00  0.00    +0.019 C 
BRANCH  20  24
ATOM     21  C   UNL     1      -2.645   0.228   3.291  0.00  0.00    +0.026 C 
ATOM     22  C   UNL     1      -2.135  -0.732   2.214  0.00  0.00    +0.054 C 
ATOM     23  C   UNL     1      -2.786  -2.107   2.400  0.00  0.00    -0.056 C 
ATOM     24  N   UNL     1      -2.194  -3.060   1.453  0.00  0.00    +0.388 N 
ATOM     25  C   UNL     1      -0.771  -3.252   1.761  0.00  0.00    -0.059 C 
ATOM     26  C   UNL     1      -0.020  -1.934   1.543  0.00  0.00    +0.087 C 
ATOM     27  N   UNL     1      -0.677  -0.882   2.336  0.00  0.00    -0.331 N 
ATOM     28  H   UNL     1      -2.289  -2.703   0.515  0.00  0.00    -0.081 HD
BRANCH  27  29
ATOM     29  C   UNL     1       0.062  -0.053   3.182  0.00  0.00    +0.033 A 
ATOM     30  C   UNL     1       0.288  -0.429   4.501  0.00  0.00    +0.023 A 
ATOM     31  C   UNL     1       1.019   0.391   5.338  0.00  0.00    +0.005 A 
ATOM     32  C   UNL     1       1.528   1.587   4.867  0.00  0.00    +0.046 A 
ATOM     33  C   UNL     1       1.306   1.967   3.551  0.00  0.00    +0.122 A 
ATOM     34  C   UNL     1       0.577   1.145   2.707  0.00  0.00    +0.068 A 
BRANCH  33  35
ATOM     35  O   UNL     1       1.807   3.143   3.090  0.00  0.00    -0.495 OA
ATOM     36  C   UNL     1       2.553   3.938   4.014  0.00  0.00    +0.277 C 
ENDBRANCH  33  35
ENDBRANCH  27  29
ENDBRANCH  20  24
ENDBRANCH   1  20
TORSDOF 7
