REMARK  Name = ZINC48965964
REMARK  6 active torsions:
REMARK  status: ('A' for Active; 'I' for Inactive)
REMARK    1  A    between atoms: C_1  and  C_2
REMARK    2  A    between atoms: C_2  and  N_3
REMARK    3  A    between atoms: N_6  and  C_7
REMARK    4  A    between atoms: C_7  and  C_12
REMARK    5  A    between atoms: N_14  and  C_15
REMARK    6  A    between atoms: N_18  and  C_20
REMARK                            x       y       z     vdW  Elec       q    Type
REMARK                         _______ _______ _______ _____ _____    ______ ____
ROOT
ATOM      1  C   UNL     1      -3.115  -3.744  -0.099  0.00  0.00    +0.112 C 
ATOM      2  C   UNL     1      -2.700  -4.548   1.151  0.00  0.00    +0.035 C 
ATOM      3  C   UNL     1      -3.992  -4.623   2.001  0.00  0.00    +0.003 C 
ATOM      4  C   UNL     1      -5.096  -4.803   0.930  0.00  0.00    +0.003 C 
ATOM      5  C   UNL     1      -4.639  -3.907  -0.239  0.00  0.00    +0.035 C 
ENDROOT
BRANCH   1   9
ATOM      6  N   UNL     1      -1.169  -0.641   0.198  0.00  0.00    -0.300 N 
ATOM      7  C   UNL     1      -1.484  -1.950   0.139  0.00  0.00    +0.300 C 
ATOM      8  O   UNL     1      -0.603  -2.788   0.142  0.00  0.00    -0.253 OA
ATOM      9  N   UNL     1      -2.775  -2.330   0.078  0.00  0.00    -0.285 N 
ATOM     10  H   UNL     1      -1.872   0.028   0.196  0.00  0.00    +0.150 HD
ATOM     11  H   UNL     1      -3.480  -1.668   0.151  0.00  0.00    +0.151 HD
BRANCH   6  13
ATOM     12  C   UNL     1       0.315   1.300   0.322  0.00  0.00    +0.024 C 
ATOM     13  C   UNL     1       0.235  -0.227   0.264  0.00  0.00    +0.102 C 
ENDBRANCH   6  13
ENDBRANCH   1   9
BRANCH   1  14
ATOM     14  C   UNL     1      -2.422  -4.293  -1.320  0.00  0.00    +0.241 C 
ATOM     15  O   UNL     1      -2.034  -5.441  -1.332  0.00  0.00    -0.273 OA
ATOM     16  N   UNL     1      -2.235  -3.506  -2.398  0.00  0.00    -0.281 N 
ATOM     17  H   UNL     1      -2.609  -2.611  -2.417  0.00  0.00    +0.155 HD
BRANCH  16  18
ATOM     18  C   UNL     1      -1.496  -3.983  -3.497  0.00  0.00    +0.071 A 
ATOM     19  C   UNL     1      -0.905  -5.250  -3.608  0.00  0.00    +0.157 A 
ATOM     20  N   UNL     1      -0.307  -5.325  -4.769  0.00  0.00    -0.178 NA
ATOM     21  N   UNL     1      -0.492  -4.110  -5.440  0.00  0.00    -0.273 N 
ATOM     22  C   UNL     1      -1.232  -3.300  -4.640  0.00  0.00    +0.131 A 
ATOM     23  C   UNL     1       0.017  -3.775  -6.772  0.00  0.00    +0.172 C 
ENDBRANCH  16  18
ENDBRANCH   1  14
TORSDOF 4
