REMARK  Name = ZINC37471373
REMARK  7 active torsions:
REMARK  status: ('A' for Active; 'I' for Inactive)
REMARK    1  A    between atoms: C_1  and  C_2
REMARK    2  A    between atoms: C_2  and  N_3
REMARK    3  A    between atoms: N_3  and  C_4
REMARK    4  A    between atoms: N_3  and  S_5
REMARK    5  A    between atoms: S_5  and  C_8
REMARK    6  A    between atoms: C_9  and  N_16
REMARK    7  A    between atoms: N_16  and  N_17
REMARK                            x       y       z     vdW  Elec       q    Type
REMARK                         _______ _______ _______ _____ _____    ______ ____
ROOT
ATOM      1  C   UNL     1      -2.898   0.520   2.058  0.00  0.00    +0.222 A 
ATOM      2  C   UNL     1      -2.354   1.455   2.864  0.00  0.00    +0.179 A 
ATOM      3  N   UNL     1      -3.283   2.395   3.106  0.00  0.00    -0.203 NA
ATOM      4  C   UNL     1      -4.381   2.078   2.480  0.00  0.00    +0.181 A 
ATOM      5  N   UNL     1      -4.214   0.907   1.790  0.00  0.00    -0.276 N 
ATOM      6  C   UNL     1      -5.294   0.447   1.070  0.00  0.00    +0.102 A 
ATOM      7  C   UNL     1      -6.442   1.123   1.054  0.00  0.00    +0.067 A 
ATOM      8  S   UNL     1      -6.064   2.514   2.109  0.00  0.00    -0.058 S 
ENDROOT
BRANCH   1   9
ATOM      9  S   UNL     1      -2.092  -0.923   1.446  0.00  0.00    +0.080 S 
ATOM     10  O   UNL     1      -3.116  -1.857   1.133  0.00  0.00    -0.151 OA
ATOM     11  O   UNL     1      -1.043  -1.219   2.357  0.00  0.00    -0.151 OA
BRANCH   9  12
ATOM     12  N   UNL     1      -1.372  -0.511   0.012  0.00  0.00    -0.178 NA
ATOM     13  C   UNL     1      -2.110  -0.654  -1.245  0.00  0.00    +0.131 C 
BRANCH  12  15
ATOM     14  C   UNL     1      -0.019   1.526   0.010  0.00  0.00    +0.022 C 
ATOM     15  C   UNL     1       0.002  -0.004   0.002  0.00  0.00    +0.106 C 
ENDBRANCH  12  15
ENDBRANCH   9  12
ENDBRANCH   1   9
BRANCH   2  16
ATOM     16  N   UNL     1      -1.043   1.446   3.365  0.00  0.00    -0.265 N 
ATOM     17  H   UNL     1      -0.441   0.722   3.135  0.00  0.00    +0.168 HD
BRANCH  16  18
ATOM     18  N   UNL     1      -0.616   2.458   4.177  0.00  0.00    -0.255 NA
ATOM     19  H   UNL     1      -1.217   2.555   4.982  0.00  0.00    +0.140 HD
ATOM     20  H   UNL     1       0.343   2.317   4.457  0.00  0.00    +0.140 HD
ENDBRANCH  16  18
ENDBRANCH   2  16
TORSDOF 5
