REMARK  Name = ZINC04763115
REMARK  7 active torsions:
REMARK  status: ('A' for Active; 'I' for Inactive)
REMARK    1  A    between atoms: C_1  and  C_2
REMARK    2  A    between atoms: C_4  and  O_25
REMARK    3  A    between atoms: C_6  and  O_24
REMARK    4  A    between atoms: C_8  and  O_23
REMARK    5  A    between atoms: C_10  and  S_13
REMARK    6  A    between atoms: S_13  and  C_14
REMARK    7  A    between atoms: C_19  and  N_20
REMARK                            x       y       z     vdW  Elec       q    Type
REMARK                         _______ _______ _______ _____ _____    ______ ____
ROOT
ATOM      1  C   UNL     1       0.744  -0.497  -1.242  0.00  0.00    +0.040 C 
ATOM      2  C   UNL     1       0.002  -0.004   0.002  0.00  0.00    +0.148 C 
ATOM      3  C   UNL     1       0.718  -0.510   1.257  0.00  0.00    +0.174 C 
ATOM      4  C   UNL     1       2.133   0.073   1.299  0.00  0.00    +0.177 C 
ATOM      5  C   UNL     1       2.046   1.601   1.256  0.00  0.00    +0.185 C 
ATOM      6  C   UNL     1       1.279   2.026   0.001  0.00  0.00    +0.212 C 
ATOM      7  O   UNL     1      -0.017   1.425   0.010  0.00  0.00    -0.358 OA
ENDROOT
BRANCH   5   8
ATOM      8  O   UNL     1       1.359   2.073   2.417  0.00  0.00    -0.386 OA
ATOM      9  H   UNL     1       1.267   3.035   2.456  0.00  0.00    +0.210 HD
ENDBRANCH   5   8
BRANCH   4  10
ATOM     10  O   UNL     1       2.783  -0.335   2.504  0.00  0.00    -0.386 OA
ATOM     11  H   UNL     1       3.686  -0.001   2.597  0.00  0.00    +0.210 HD
ENDBRANCH   4  10
BRANCH   3  12
ATOM     12  O   UNL     1      -0.005  -0.096   2.418  0.00  0.00    -0.387 OA
ATOM     13  H   UNL     1      -0.913  -0.426   2.455  0.00  0.00    +0.210 HD
ENDBRANCH   3  12
BRANCH   6  14
ATOM     14  S   UNL     1       1.108   3.832  -0.022  0.00  0.00    -0.089 S 
BRANCH  14  15
ATOM     15  C   UNL     1       0.347   4.168  -1.575  0.00  0.00    +0.041 A 
ATOM     16  C   UNL     1       0.033   3.125  -2.438  0.00  0.00    +0.017 A 
ATOM     17  C   UNL     1      -0.563   3.393  -3.654  0.00  0.00    +0.001 A 
ATOM     18  C   UNL     1      -0.848   4.697  -4.014  0.00  0.00    +0.002 A 
ATOM     19  C   UNL     1      -0.537   5.738  -3.158  0.00  0.00    +0.034 A 
ATOM     20  C   UNL     1       0.054   5.477  -1.938  0.00  0.00    +0.140 A 
BRANCH  20  21
ATOM     21  N   UNL     1       0.381   6.591  -1.020  0.00  0.00    +0.058 N 
ATOM     22  O   UNL     1       0.123   7.739  -1.338  0.00  0.00    -0.126 OA
ATOM     23  O   UNL     1       0.907   6.361   0.054  0.00  0.00    -0.126 OA
ENDBRANCH  20  21
ENDBRANCH  14  15
ENDBRANCH   6  14
TORSDOF 6
