REMARK  Name = ZINC40824387
REMARK  4 active torsions:
REMARK  status: ('A' for Active; 'I' for Inactive)
REMARK    1  A    between atoms: C_1  and  C_2
REMARK    2  A    between atoms: C_6  and  C_7
REMARK    3  A    between atoms: N_9  and  C_10
REMARK    4  A    between atoms: N_21  and  N_22
REMARK                            x       y       z     vdW  Elec       q    Type
REMARK                         _______ _______ _______ _____ _____    ______ ____
ROOT
ATOM      1  C   UNL     1      -0.014   1.502   0.010  0.00  0.00    +0.048 C 
ATOM      2  C   UNL     1      -0.003  -0.005   0.002  0.00  0.00    +0.009 A 
ATOM      3  C   UNL     1      -0.007  -0.839  -1.122  0.00  0.00    +0.042 A 
ATOM      4  C   UNL     1       0.005  -2.138  -0.672  0.00  0.00    +0.115 A 
ATOM      5  O   UNL     1       0.019  -2.112   0.658  0.00  0.00    -0.454 OA
ATOM      6  C   UNL     1       0.018  -0.831   1.091  0.00  0.00    +0.193 A 
ATOM      7  C   UNL     1       0.000  -3.327  -1.599  0.00  0.00    +0.075 C 
ATOM      8  C   UNL     1      -0.528  -2.900  -2.971  0.00  0.00    +0.014 C 
ATOM      9  C   UNL     1       0.248  -1.688  -3.496  0.00  0.00    +0.058 C 
ATOM     10  C   UNL     1      -0.019  -0.513  -2.566  0.00  0.00    +0.070 C 
ATOM     11  N   UNL     1      -0.241   0.686  -3.007  0.00  0.00    -0.183 NA
ENDROOT
BRANCH  11  12
ATOM     12  N   UNL     1      -0.241   0.938  -4.385  0.00  0.00    -0.191 N 
ATOM     13  C   UNL     1      -0.472   2.184  -4.843  0.00  0.00    +0.317 C 
ATOM     14  O   UNL     1      -0.472   2.402  -6.039  0.00  0.00    -0.251 OA
ATOM     15  N   UNL     1      -0.704   3.189  -3.975  0.00  0.00    -0.312 N 
ATOM     16  H   UNL     1      -0.074   0.215  -5.010  0.00  0.00    +0.179 HD
ATOM     17  H   UNL     1      -0.704   3.015  -3.021  0.00  0.00    +0.147 HD
ATOM     18  H   UNL     1      -0.870   4.086  -4.305  0.00  0.00    +0.147 HD
ENDBRANCH  11  12
BRANCH   6  19
ATOM     19  C   UNL     1       0.033  -0.400   2.493  0.00  0.00    +0.284 C 
ATOM     20  O   UNL     1       0.027   0.786   2.765  0.00  0.00    -0.266 OA
ATOM     21  N   UNL     1       0.053  -1.318   3.480  0.00  0.00    -0.279 N 
ATOM     22  H   UNL     1      -0.010  -2.262   3.266  0.00  0.00    +0.155 HD
BRANCH  21  23
ATOM     23  C   UNL     1       0.165  -0.909   4.813  0.00  0.00    +0.034 A 
ATOM     24  C   UNL     1       0.886  -1.677   5.718  0.00  0.00    +0.024 A 
ATOM     25  C   UNL     1       0.995  -1.271   7.034  0.00  0.00    +0.017 A 
ATOM     26  C   UNL     1       0.387  -0.100   7.450  0.00  0.00    +0.018 A 
ATOM     27  C   UNL     1      -0.332   0.667   6.551  0.00  0.00    +0.017 A 
ATOM     28  C   UNL     1      -0.439   0.269   5.233  0.00  0.00    +0.024 A 
ATOM     29 BR   UNL     1       0.538   0.452   9.252  0.00  0.00    -0.050 Br
ENDBRANCH  21  23
ENDBRANCH   6  19
TORSDOF 3
