REMARK  Name = ZINC04902570
REMARK  5 active torsions:
REMARK  status: ('A' for Active; 'I' for Inactive)
REMARK    1  A    between atoms: C_1  and  C_2
REMARK    2  A    between atoms: C_5  and  C_8
REMARK    3  A    between atoms: C_11  and  O_25
REMARK    4  A    between atoms: C_12  and  O_24
REMARK    5  A    between atoms: C_20  and  O_23
REMARK                            x       y       z     vdW  Elec       q    Type
REMARK                         _______ _______ _______ _____ _____    ______ ____
ROOT
ATOM      1  C   UNL     1      -1.208  -0.732   0.010  0.00  0.00    +0.004 A 
ATOM      2  C   UNL     1      -1.121  -2.195   0.001  0.00  0.00    +0.029 A 
ATOM      3  C   UNL     1      -2.280  -2.983   0.008  0.00  0.00    +0.061 A 
ATOM      4  C   UNL     1      -2.174  -4.345  -0.000  0.00  0.00    +0.159 A 
ATOM      5  C   UNL     1      -0.913  -4.955  -0.015  0.00  0.00    +0.162 A 
ATOM      6  C   UNL     1       0.239  -4.189  -0.023  0.00  0.00    +0.096 A 
ATOM      7  C   UNL     1       0.151  -2.803  -0.015  0.00  0.00    +0.140 A 
ATOM      8  O   UNL     1       1.269  -2.050  -0.021  0.00  0.00    -0.455 OA
ATOM      9  C   UNL     1       1.234  -0.702  -0.014  0.00  0.00    +0.140 A 
ATOM     10  C   UNL     1       2.416   0.014  -0.021  0.00  0.00    +0.101 A 
ATOM     11  C   UNL     1       2.387   1.412  -0.013  0.00  0.00    +0.224 A 
ATOM     12  O   UNL     1       3.437   2.044  -0.020  0.00  0.00    -0.284 OA
ATOM     13  C   UNL     1       1.151   2.100   0.002  0.00  0.00    +0.164 A 
ATOM     14  C   UNL     1      -0.017   1.405   0.010  0.00  0.00    +0.061 A 
ATOM     15  C   UNL     1       0.002  -0.004   0.002  0.00  0.00    +0.029 A 
ENDROOT
BRANCH   1  20
ATOM     16  C   UNL     1      -6.296   1.948   0.077  0.00  0.00    +0.044 C 
ATOM     17  C   UNL     1      -4.963   1.246   0.059  0.00  0.00    -0.050 A 
ATOM     18  C   UNL     1      -4.128   1.380  -1.037  0.00  0.00    +0.004 A 
ATOM     19  C   UNL     1      -2.907   0.741  -1.060  0.00  0.00    +0.009 A 
ATOM     20  C   UNL     1      -2.512  -0.045   0.027  0.00  0.00    -0.017 A 
ATOM     21  C   UNL     1      -3.364  -0.181   1.128  0.00  0.00    +0.009 A 
ATOM     22  C   UNL     1      -4.579   0.469   1.139  0.00  0.00    +0.004 A 
ENDBRANCH   1  20
BRANCH  13  23
ATOM     23  O   UNL     1       1.131   3.460   0.009  0.00  0.00    -0.503 OA
ATOM     24  H   UNL     1       1.134   3.849   0.895  0.00  0.00    +0.292 HD
ENDBRANCH  13  23
BRANCH   5  25
ATOM     25  O   UNL     1      -0.821  -6.309  -0.024  0.00  0.00    -0.503 OA
ATOM     26  H   UNL     1      -0.803  -6.697  -0.909  0.00  0.00    +0.292 HD
ENDBRANCH   5  25
BRANCH   4  27
ATOM     27  O   UNL     1      -3.297  -5.112   0.007  0.00  0.00    -0.503 OA
ATOM     28  H   UNL     1      -3.630  -5.329  -0.874  0.00  0.00    +0.292 HD
ENDBRANCH   4  27
TORSDOF 4
