REMARK  Name = ZINC11855140
REMARK  9 active torsions:
REMARK  status: ('A' for Active; 'I' for Inactive)
REMARK    1  A    between atoms: C_1  and  C_2
REMARK    2  A    between atoms: C_2  and  C_3
REMARK    3  A    between atoms: C_4  and  C_33
REMARK    4  A    between atoms: C_12  and  N_21
REMARK    5  A    between atoms: C_14  and  C_16
REMARK    6  A    between atoms: C_22  and  C_24
REMARK    7  A    between atoms: C_24  and  C_25
REMARK    8  A    between atoms: C_28  and  O_31
REMARK    9  A    between atoms: O_31  and  C_32
REMARK                            x       y       z     vdW  Elec       q    Type
REMARK                         _______ _______ _______ _____ _____    ______ ____
ROOT
ATOM      1  C   UNL     1       1.073  10.413   0.917  0.00  0.00    +0.038 A 
ATOM      2  C   UNL     1       1.083   9.139   0.430  0.00  0.00    +0.050 A 
ATOM      3  N   UNL     1       1.107   8.104   1.268  0.00  0.00    -0.217 NA
ATOM      4  C   UNL     1       1.110   8.278   2.572  0.00  0.00    +0.234 A 
ATOM      5  N   UNL     1       1.101   9.523   3.117  0.00  0.00    -0.291 N 
ATOM      6  H   UNL     1       1.108   9.633   4.080  0.00  0.00    +0.172 HD
ATOM      7  C   UNL     1       1.083  10.607   2.312  0.00  0.00    +0.256 A 
ATOM      8  O   UNL     1       1.075  11.732   2.783  0.00  0.00    -0.267 OA
ATOM      9  N   UNL     1       1.129   7.175   3.403  0.00  0.00    -0.185 N 
ATOM     10  C   UNL     1       1.140   5.868   3.003  0.00  0.00    +0.132 A 
ATOM     11  C   UNL     1       1.163   5.096   4.119  0.00  0.00    +0.074 A 
ATOM     12  C   UNL     1       1.161   5.955   5.239  0.00  0.00    +0.102 A 
ATOM     13  N   UNL     1       1.137   7.198   4.803  0.00  0.00    -0.162 NA
ATOM     14  C   UNL     1       1.074   8.902  -1.058  0.00  0.00    +0.066 C 
ENDROOT
BRANCH  12  15
ATOM     15  C   UNL     1       1.182   5.533   6.655  0.00  0.00    +0.039 A 
ATOM     16  C   UNL     1       1.181   6.305   7.786  0.00  0.00    +0.018 A 
ATOM     17  C   UNL     1       1.203   5.681   9.014  0.00  0.00    +0.008 A 
ATOM     18  C   UNL     1       1.225   4.325   9.067  0.00  0.00    +0.046 A 
ATOM     19  S   UNL     1       1.208   3.883   7.337  0.00  0.00    -0.095 S 
ENDBRANCH  12  15
BRANCH  10  20
ATOM     20  N   UNL     1       1.135   5.411   1.688  0.00  0.00    -0.270 N 
ATOM     21  C   UNL     1       1.153   4.087   1.434  0.00  0.00    +0.223 C 
ATOM     22  O   UNL     1       1.174   3.294   2.351  0.00  0.00    -0.275 OA
ATOM     23  H   UNL     1       1.118   6.045   0.954  0.00  0.00    +0.156 HD
BRANCH  21  24
ATOM     24  C   UNL     1       1.147   3.593   0.011  0.00  0.00    +0.131 C 
BRANCH  24  25
ATOM     25  C   UNL     1       1.171   2.086   0.002  0.00  0.00    -0.038 A 
ATOM     26  C   UNL     1      -0.017   1.377   0.010  0.00  0.00    +0.007 A 
ATOM     27  C   UNL     1       0.002  -0.004   0.002  0.00  0.00    +0.046 A 
ATOM     28  C   UNL     1       1.213  -0.680  -0.013  0.00  0.00    +0.120 A 
ATOM     29  C   UNL     1       2.403   0.033  -0.021  0.00  0.00    +0.046 A 
ATOM     30  C   UNL     1       2.379   1.415  -0.013  0.00  0.00    +0.007 A 
BRANCH  28  31
ATOM     31  O   UNL     1       1.234  -2.039  -0.020  0.00  0.00    -0.495 OA
ATOM     32  C   UNL     1       2.518  -2.668  -0.036  0.00  0.00    +0.277 C 
ENDBRANCH  28  31
ENDBRANCH  24  25
ENDBRANCH  21  24
ENDBRANCH  10  20
BRANCH   1  34
ATOM     33  C   UNL     1      -0.392  12.053  -0.228  0.00  0.00    +0.009 C 
ATOM     34  C   UNL     1       1.052  11.592  -0.021  0.00  0.00    +0.039 C 
ENDBRANCH   1  34
TORSDOF 6
