REMARK  Name = ZINC09384324
REMARK  9 active torsions:
REMARK  status: ('A' for Active; 'I' for Inactive)
REMARK    1  A    between atoms: C_1  and  C_2
REMARK    2  A    between atoms: C_5  and  C_34
REMARK    3  A    between atoms: N_8  and  S_10
REMARK    4  A    between atoms: S_10  and  C_13
REMARK    5  A    between atoms: C_16  and  C_19
REMARK    6  A    between atoms: N_21  and  C_22
REMARK    7  A    between atoms: C_23  and  C_27
REMARK    8  A    between atoms: C_30  and  O_32
REMARK    9  A    between atoms: O_32  and  C_33
REMARK                            x       y       z     vdW  Elec       q    Type
REMARK                         _______ _______ _______ _____ _____    ______ ____
ROOT
ATOM      1  C   UNL     1      -1.253   1.526   4.835  0.00  0.00    +0.106 A 
ATOM      2  C   UNL     1      -0.452   1.981   5.867  0.00  0.00    +0.029 A 
ATOM      3  C   UNL     1      -0.939   2.909   6.765  0.00  0.00    +0.015 A 
ATOM      4  C   UNL     1      -2.247   3.380   6.637  0.00  0.00    +0.037 A 
ATOM      5  C   UNL     1      -3.052   2.912   5.596  0.00  0.00    +0.015 A 
ATOM      6  C   UNL     1      -2.551   1.989   4.702  0.00  0.00    +0.029 A 
ENDROOT
BRANCH   4   7
ATOM      7  C   UNL     1      -2.778   4.368   7.599  0.00  0.00    +0.249 C 
ATOM      8  O   UNL     1      -3.917   4.776   7.485  0.00  0.00    -0.270 OA
ATOM      9  N   UNL     1      -1.998   4.818   8.602  0.00  0.00    -0.275 N 
ATOM     10  H   UNL     1      -0.967   4.448   8.705  0.00  0.00    +0.156 HD
BRANCH   9  11
ATOM     11  C   UNL     1      -2.495   5.744   9.504  0.00  0.00    +0.084 A 
ATOM     12  C   UNL     1      -1.854   6.317  10.597  0.00  0.00    +0.066 A 
ATOM     13  C   UNL     1      -2.616   7.266  11.373  0.00  0.00    +0.022 A 
ATOM     14  C   UNL     1      -3.879   7.507  10.979  0.00  0.00    +0.048 A 
ATOM     15  S   UNL     1      -4.069   6.465   9.547  0.00  0.00    -0.081 S 
BRANCH  12  16
ATOM     16  C   UNL     1      -0.471   5.976  10.943  0.00  0.00    +0.255 C 
ATOM     17  O   UNL     1       0.144   5.173  10.266  0.00  0.00    -0.270 OA
ATOM     18  N   UNL     1       0.118   6.551  12.009  0.00  0.00    -0.217 N 
ATOM     19  C   UNL     1       1.390   6.237  12.327  0.00  0.00    +0.407 C 
ATOM     20  O   UNL     1       2.004   5.436  11.652  0.00  0.00    -0.226 OA
ATOM     21  H   UNL     1      -0.439   7.276  12.621  0.00  0.00    +0.161 HD
BRANCH  19  22
ATOM     22  O   UNL     1       1.978   6.811  13.393  0.00  0.00    -0.453 OA
ATOM     23  C   UNL     1       3.349   6.426  13.676  0.00  0.00    +0.282 C 
ENDBRANCH  19  22
ENDBRANCH  12  16
ENDBRANCH   9  11
ENDBRANCH   4   7
BRANCH   1  24
ATOM     24  S   UNL     1      -0.621   0.347   3.688  0.00  0.00    +0.061 S 
ATOM     25  O   UNL     1      -1.744  -0.332   3.144  0.00  0.00    -0.153 OA
ATOM     26  O   UNL     1       0.435  -0.336   4.349  0.00  0.00    -0.153 OA
BRANCH  24  32
ATOM     27  C   UNL     1      -0.754   1.593  -1.230  0.00  0.00    +0.009 C 
ATOM     28  C   UNL     1      -0.013   1.086   0.008  0.00  0.00    +0.002 C 
ATOM     29  C   UNL     1       1.423   1.616  -0.003  0.00  0.00    +0.009 C 
ATOM     30  C   UNL     1       2.175   1.082   1.218  0.00  0.00    +0.002 C 
ATOM     31  C   UNL     1       1.486   1.577   2.494  0.00  0.00    +0.112 C 
ATOM     32  N   UNL     1       0.069   1.195   2.444  0.00  0.00    -0.176 NA
ATOM     33  C   UNL     1      -0.726   1.581   1.270  0.00  0.00    +0.112 C 
ATOM     34  C   UNL     1       3.619   1.586   1.189  0.00  0.00    +0.009 C 
ENDBRANCH  24  32
ENDBRANCH   1  24
TORSDOF 6
