REMARK  Name = ZINC38768736
REMARK  2 active torsions:
REMARK  status: ('A' for Active; 'I' for Inactive)
REMARK    1  A    between atoms: C_4  and  C_7
REMARK    2  A    between atoms: C_13  and  C_21
REMARK                            x       y       z     vdW  Elec       q    Type
REMARK                         _______ _______ _______ _____ _____    ______ ____
ROOT
ATOM      1  C   UNL     1       3.696  -0.684  -0.038  0.00  0.00    +0.154 C 
ATOM      2  N   UNL     1       4.795   0.045  -0.041  0.00  0.00    -0.160 NA
ATOM      3  C   UNL     1       6.012  -0.503  -0.121  0.00  0.00    +0.249 C 
ATOM      4  O   UNL     1       7.021   0.174  -0.095  0.00  0.00    -0.273 OA
ATOM      5  C   UNL     1       6.071  -2.012  -0.246  0.00  0.00    +0.148 C 
ATOM      6  C   UNL     1       6.956  -2.552   0.879  0.00  0.00    +0.047 C 
ATOM      7  C   UNL     1       7.161  -4.053   0.662  0.00  0.00    +0.105 C 
ATOM      8  C   UNL     1       5.852  -4.744   0.408  0.00  0.00    +0.219 C 
ATOM      9  O   UNL     1       5.792  -5.945   0.562  0.00  0.00    -0.275 OA
ATOM     10  N   UNL     1       4.745  -4.090   0.017  0.00  0.00    -0.273 N 
ATOM     11  C   UNL     1       4.743  -2.737  -0.126  0.00  0.00    +0.116 C 
ATOM     12  N   UNL     1       3.656  -2.021  -0.045  0.00  0.00    -0.218 NA
ATOM     13  H   UNL     1       3.938  -4.590  -0.181  0.00  0.00    +0.156 HD
ENDROOT
BRANCH   6  14
ATOM     14  C   UNL     1       8.288  -1.848   0.856  0.00  0.00    -0.039 A 
ATOM     15  C   UNL     1       9.089  -1.922  -0.269  0.00  0.00    +0.008 A 
ATOM     16  C   UNL     1      10.311  -1.277  -0.294  0.00  0.00    +0.050 A 
ATOM     17  C   UNL     1      10.738  -0.555   0.809  0.00  0.00    +0.166 A 
ATOM     18  C   UNL     1       9.931  -0.480   1.942  0.00  0.00    +0.166 A 
ATOM     19  C   UNL     1       8.704  -1.124   1.958  0.00  0.00    +0.053 A 
ATOM     20  O   UNL     1      10.567   0.280   2.880  0.00  0.00    -0.453 OA
ATOM     21  C   UNL     1      11.944   0.331   2.466  0.00  0.00    +0.466 C 
ATOM     22  O   UNL     1      11.878   0.159   1.037  0.00  0.00    -0.453 OA
ENDBRANCH   6  14
BRANCH   1  26
ATOM     23  C   UNL     1      -0.017   1.380   0.010  0.00  0.00    +0.000 A 
ATOM     24  C   UNL     1       1.168   2.094   0.002  0.00  0.00    +0.001 A 
ATOM     25  C   UNL     1       2.377   1.431  -0.013  0.00  0.00    +0.011 A 
ATOM     26  C   UNL     1       2.404   0.034  -0.021  0.00  0.00    +0.017 A 
ATOM     27  C   UNL     1       1.204  -0.681  -0.013  0.00  0.00    +0.011 A 
ATOM     28  C   UNL     1       0.002  -0.004   0.002  0.00  0.00    +0.001 A 
ENDBRANCH   1  26
TORSDOF 2
