REMARK  Name = ZINC12424766
REMARK  7 active torsions:
REMARK  status: ('A' for Active; 'I' for Inactive)
REMARK    1  A    between atoms: C_10  and  C_13
REMARK    2  A    between atoms: C_13  and  C_14
REMARK    3  A    between atoms: C_14  and  O_16
REMARK    4  A    between atoms: O_16  and  C_17
REMARK    5  A    between atoms: C_17  and  C_18
REMARK    6  A    between atoms: N_20  and  C_21
REMARK    7  A    between atoms: C_24  and  N_28
REMARK                            x       y       z     vdW  Elec       q    Type
REMARK                         _______ _______ _______ _____ _____    ______ ____
ROOT
ATOM      1  O   UNL     1       1.139   1.892   0.025  0.00  0.00    -0.455 OA
ENDROOT
BRANCH   1   2
ATOM      2  C   UNL     1      -0.014   1.206   0.043  0.00  0.00    +0.309 C 
ATOM      3  O   UNL     1       0.002  -0.002   0.041  0.00  0.00    -0.251 OA
BRANCH   2   4
ATOM      4  C   UNL     1      -1.329   1.942   0.059  0.00  0.00    +0.144 C 
BRANCH   4  14
ATOM      5  C   UNL     1      -4.076   2.955   4.622  0.00  0.00    +0.002 A 
ATOM      6  C   UNL     1      -3.177   1.988   5.034  0.00  0.00    +0.001 A 
ATOM      7  C   UNL     1      -2.676   1.079   4.120  0.00  0.00    +0.016 A 
ATOM      8  C   UNL     1      -3.074   1.143   2.795  0.00  0.00    +0.030 A 
ATOM      9  C   UNL     1      -3.977   2.118   2.370  0.00  0.00    +0.047 A 
ATOM     10  C   UNL     1      -4.476   3.022   3.302  0.00  0.00    +0.024 A 
ATOM     11  N   UNL     1      -4.386   2.213   1.044  0.00  0.00    -0.284 N 
ATOM     12  C   UNL     1      -3.794   1.662  -0.011  0.00  0.00    +0.231 C 
ATOM     13  O   UNL     1      -4.339   1.751  -1.091  0.00  0.00    -0.274 OA
ATOM     14  C   UNL     1      -2.478   0.932   0.071  0.00  0.00    +0.148 C 
ATOM     15  S   UNL     1      -2.442  -0.017   1.622  0.00  0.00    -0.110 S 
ATOM     16  H   UNL     1      -5.186   2.735   0.871  0.00  0.00    +0.155 HD
ENDBRANCH   4  14
ENDBRANCH   2   4
ENDBRANCH   1   2
BRANCH   1  17
ATOM     17  C   UNL     1       2.367   1.118   0.004  0.00  0.00    +0.328 C 
BRANCH  17  18
ATOM     18  C   UNL     1       3.550   2.051  -0.014  0.00  0.00    +0.255 C 
ATOM     19  O   UNL     1       3.375   3.252  -0.010  0.00  0.00    -0.272 OA
ATOM     20  N   UNL     1       4.802   1.553  -0.035  0.00  0.00    -0.281 N 
ATOM     21  H   UNL     1       4.944   0.595   0.027  0.00  0.00    +0.155 HD
BRANCH  20  22
ATOM     22  C   UNL     1       5.898   2.417  -0.147  0.00  0.00    +0.052 A 
ATOM     23  C   UNL     1       5.860   3.669   0.451  0.00  0.00    +0.027 A 
ATOM     24  C   UNL     1       6.942   4.520   0.340  0.00  0.00    +0.034 A 
ATOM     25  C   UNL     1       8.064   4.125  -0.367  0.00  0.00    +0.128 A 
ATOM     26  C   UNL     1       8.105   2.879  -0.965  0.00  0.00    +0.054 A 
ATOM     27  C   UNL     1       7.028   2.021  -0.852  0.00  0.00    +0.064 A 
ATOM     28 CL   UNL     1       7.083   0.453  -1.596  0.00  0.00    -0.082 Cl
BRANCH  25  29
ATOM     29  N   UNL     1       9.222   5.039  -0.484  0.00  0.00    +0.056 N 
ATOM     30  O   UNL     1       9.187   6.137   0.042  0.00  0.00    -0.126 OA
ATOM     31  O   UNL     1      10.210   4.694  -1.107  0.00  0.00    -0.126 OA
ENDBRANCH  25  29
ENDBRANCH  20  22
ENDBRANCH  17  18
ENDBRANCH   1  17
TORSDOF 7
