REMARK  Name = ZINC21254659
REMARK  8 active torsions:
REMARK  status: ('A' for Active; 'I' for Inactive)
REMARK    1  A    between atoms: C_1  and  C_2
REMARK    2  A    between atoms: C_5  and  C_11
REMARK    3  A    between atoms: C_7  and  N_8
REMARK    4  A    between atoms: C_22  and  C_25
REMARK    5  A    between atoms: C_28  and  O_31
REMARK    6  A    between atoms: O_31  and  C_32
REMARK    7  A    between atoms: C_32  and  C_33
REMARK    8  A    between atoms: C_32  and  C_34
REMARK                            x       y       z     vdW  Elec       q    Type
REMARK                         _______ _______ _______ _____ _____    ______ ____
ROOT
ATOM      1  C   UNL     1       6.700   7.790  -1.312  0.00  0.00    +0.063 C 
ATOM      2  C   UNL     1       6.575   9.029  -2.201  0.00  0.00    +0.109 C 
ATOM      3  C   UNL     1       6.391   8.592  -3.632  0.00  0.00    +0.218 C 
ATOM      4  O   UNL     1       6.857   9.258  -4.532  0.00  0.00    -0.275 OA
ATOM      5  N   UNL     1       5.712   7.467  -3.912  0.00  0.00    -0.289 N 
ATOM      6  C   UNL     1       5.151   6.710  -2.915  0.00  0.00    +0.018 C 
ATOM      7  C   UNL     1       5.590   6.821  -1.644  0.00  0.00    +0.020 C 
ATOM      8  C   UNL     1       5.035   6.050  -0.608  0.00  0.00    +0.162 C 
ATOM      9  O   UNL     1       5.449   6.186   0.526  0.00  0.00    -0.292 OA
ATOM     10  C   UNL     1       3.936   5.059  -0.882  0.00  0.00    +0.088 C 
ATOM     11  C   UNL     1       4.069   4.554  -2.323  0.00  0.00    +0.032 C 
ATOM     12  C   UNL     1       4.035   5.758  -3.268  0.00  0.00    +0.059 C 
ATOM     13  H   UNL     1       5.598   7.138  -4.956  0.00  0.00    +0.155 HD
ENDROOT
BRANCH   1  18
ATOM     14  C   UNL     1      11.812   5.260  -2.240  0.00  0.00    +0.046 C 
ATOM     15  C   UNL     1      10.479   5.920  -1.998  0.00  0.00    -0.020 A 
ATOM     16  C   UNL     1       9.580   6.065  -3.039  0.00  0.00    +0.006 A 
ATOM     17  C   UNL     1       8.355   6.666  -2.816  0.00  0.00    +0.004 A 
ATOM     18  C   UNL     1       8.033   7.130  -1.554  0.00  0.00    -0.037 A 
ATOM     19  C   UNL     1       8.931   6.985  -0.514  0.00  0.00    +0.037 A 
ATOM     20  C   UNL     1      10.154   6.379  -0.736  0.00  0.00    +0.129 A 
BRANCH  20  21
ATOM     21  N   UNL     1      11.116   6.223   0.378  0.00  0.00    +0.057 N 
ATOM     22  O   UNL     1      10.881   6.730   1.461  0.00  0.00    -0.126 OA
ATOM     23  O   UNL     1      12.142   5.588   0.213  0.00  0.00    -0.126 OA
ENDBRANCH  20  21
ENDBRANCH   1  18
BRANCH  11  24
ATOM     24  C   UNL     1       2.924   3.628  -2.642  0.00  0.00    -0.043 A 
ATOM     25  C   UNL     1       3.176   2.318  -3.006  0.00  0.00    +0.007 A 
ATOM     26  C   UNL     1       2.127   1.468  -3.300  0.00  0.00    +0.046 A 
ATOM     27  C   UNL     1       0.821   1.931  -3.235  0.00  0.00    +0.121 A 
ATOM     28  C   UNL     1       0.571   3.244  -2.865  0.00  0.00    +0.046 A 
ATOM     29  C   UNL     1       1.622   4.090  -2.571  0.00  0.00    +0.007 A 
BRANCH  27  30
ATOM     30  O   UNL     1      -0.211   1.097  -3.528  0.00  0.00    -0.489 OA
BRANCH  30  31
ATOM     31  C   UNL     1       0.111  -0.272  -3.779  0.00  0.00    +0.167 C 
ATOM     32  C   UNL     1      -1.104  -1.148  -3.467  0.00  0.00    +0.051 C 
ATOM     33  C   UNL     1       0.499  -0.444  -5.248  0.00  0.00    +0.051 C 
ENDBRANCH  30  31
ENDBRANCH  27  30
ENDBRANCH  11  24
TORSDOF 5
