REMARK  Name = ZINC27809009
REMARK  9 active torsions:
REMARK  status: ('A' for Active; 'I' for Inactive)
REMARK    1  A    between atoms: C_1  and  C_2
REMARK    2  A    between atoms: C_2  and  C_4
REMARK    3  A    between atoms: C_2  and  S_16
REMARK    4  A    between atoms: N_9  and  C_10
REMARK    5  A    between atoms: S_16  and  C_17
REMARK    6  A    between atoms: N_21  and  C_22
REMARK    7  A    between atoms: C_22  and  C_23
REMARK    8  A    between atoms: C_22  and  C_24
REMARK    9  A    between atoms: C_22  and  C_25
REMARK                            x       y       z     vdW  Elec       q    Type
REMARK                         _______ _______ _______ _____ _____    ______ ____
ROOT
ATOM      1  C   UNL     1      -1.412  -0.526   0.013  0.00  0.00    +0.234 C 
ATOM      2  O   UNL     1      -1.939  -0.827   1.062  0.00  0.00    -0.274 OA
ATOM      3  N   UNL     1      -2.090  -0.657  -1.144  0.00  0.00    -0.239 N 
ATOM      4  C   UNL     1      -3.355  -1.124  -1.135  0.00  0.00    +0.306 C 
ATOM      5  O   UNL     1      -3.883  -1.426  -0.083  0.00  0.00    -0.252 OA
ATOM      6  N   UNL     1      -4.033  -1.255  -2.292  0.00  0.00    -0.296 N 
ATOM      7  H   UNL     1      -1.669  -0.416  -1.984  0.00  0.00    +0.159 HD
ATOM      8  H   UNL     1      -3.611  -1.014  -3.131  0.00  0.00    +0.151 HD
ENDROOT
BRANCH   6   9
ATOM      9  C   UNL     1      -5.408  -1.762  -2.281  0.00  0.00    +0.074 C 
ATOM     10  C   UNL     1      -6.375  -0.608  -2.015  0.00  0.00    +0.022 C 
ATOM     11  C   UNL     1      -7.811  -1.137  -2.005  0.00  0.00    +0.002 C 
ATOM     12  C   UNL     1      -8.131  -1.769  -3.361  0.00  0.00    +0.000 C 
ATOM     13  C   UNL     1      -7.164  -2.924  -3.627  0.00  0.00    +0.002 C 
ATOM     14  C   UNL     1      -5.728  -2.394  -3.637  0.00  0.00    +0.022 C 
ENDBRANCH   6   9
BRANCH   1  16
ATOM     15  C   UNL     1      -0.019   1.526   0.010  0.00  0.00    +0.029 C 
ATOM     16  C   UNL     1       0.002  -0.004   0.002  0.00  0.00    +0.137 C 
BRANCH  16  17
ATOM     17  S   UNL     1       0.879  -0.605   1.472  0.00  0.00    -0.072 S 
BRANCH  17  18
ATOM     18  C   UNL     1       2.533  -0.042   1.241  0.00  0.00    +0.211 A 
ATOM     19  N   UNL     1       2.986   0.658   0.223  0.00  0.00    -0.101 NA
ATOM     20  N   UNL     1       4.238   0.902   0.367  0.00  0.00    -0.022 NA
ATOM     21  N   UNL     1       4.672   0.387   1.465  0.00  0.00    -0.043 NA
ATOM     22  N   UNL     1       3.576  -0.244   2.080  0.00  0.00    -0.215 N 
BRANCH  22  23
ATOM     23  C   UNL     1       3.565  -0.966   3.355  0.00  0.00    +0.060 C 
ATOM     24  C   UNL     1       3.135  -2.415   3.116  0.00  0.00    +0.036 C 
ATOM     25  C   UNL     1       4.968  -0.944   3.965  0.00  0.00    +0.036 C 
ATOM     26  C   UNL     1       2.581  -0.293   4.314  0.00  0.00    +0.036 C 
ENDBRANCH  22  23
ENDBRANCH  17  18
ENDBRANCH  16  17
ENDBRANCH   1  16
TORSDOF 5
