REMARK  Name = ZINC45720314
REMARK  8 active torsions:
REMARK  status: ('A' for Active; 'I' for Inactive)
REMARK    1  A    between atoms: C_1  and  C_2
REMARK    2  A    between atoms: C_2  and  C_4
REMARK    3  A    between atoms: C_2  and  N_14
REMARK    4  A    between atoms: C_8  and  N_10
REMARK    5  A    between atoms: C_11  and  C_13
REMARK    6  A    between atoms: N_17  and  C_18
REMARK    7  A    between atoms: N_17  and  C_19
REMARK    8  A    between atoms: C_19  and  C_20
REMARK                            x       y       z     vdW  Elec       q    Type
REMARK                         _______ _______ _______ _____ _____    ______ ____
ROOT
ATOM      1  N   UNL     1       0.661  -0.806  -1.348  0.00  0.00    -0.293 N 
ATOM      2  C   UNL     1       1.978  -1.078  -1.437  0.00  0.00    +0.303 C 
ATOM      3  O   UNL     1       2.696  -0.932  -0.466  0.00  0.00    -0.253 OA
ATOM      4  N   UNL     1       2.499  -1.512  -2.601  0.00  0.00    -0.284 N 
ATOM      5  C   UNL     1       1.634  -1.689  -3.770  0.00  0.00    +0.134 C 
ATOM      6  H   UNL     1       0.088  -0.923  -2.122  0.00  0.00    +0.151 HD
ENDROOT
BRANCH   1   8
ATOM      7  C   UNL     1       0.265   1.183   0.019  0.00  0.00    +0.033 C 
ATOM      8  C   UNL     1       0.095  -0.334  -0.082  0.00  0.00    +0.102 C 
BRANCH   8   9
ATOM      9  C   UNL     1      -1.371  -0.679  -0.028  0.00  0.00    -0.026 A 
ATOM     10  C   UNL     1      -2.152  -0.556  -1.162  0.00  0.00    +0.005 A 
ATOM     11  C   UNL     1      -3.498  -0.872  -1.117  0.00  0.00    +0.002 A 
ATOM     12  C   UNL     1      -4.066  -1.312   0.063  0.00  0.00    +0.023 A 
ATOM     13  C   UNL     1      -3.284  -1.437   1.204  0.00  0.00    +0.034 A 
ATOM     14  C   UNL     1      -1.932  -1.124   1.153  0.00  0.00    +0.028 A 
BRANCH  13  15
ATOM     15  N   UNL     1      -3.857  -1.883   2.400  0.00  0.00    -0.286 N 
ATOM     16  C   UNL     1      -4.861  -2.781   2.373  0.00  0.00    +0.214 C 
ATOM     17  O   UNL     1      -5.205  -3.275   1.320  0.00  0.00    -0.276 OA
ATOM     18  C   UNL     1      -5.558  -3.171   3.651  0.00  0.00    +0.109 C 
ATOM     19  H   UNL     1      -3.530  -1.546   3.249  0.00  0.00    +0.155 HD
ENDBRANCH  13  15
ENDBRANCH   8   9
ENDBRANCH   1   8
BRANCH   4  20
ATOM     20  C   UNL     1       3.931  -1.808  -2.698  0.00  0.00    +0.144 C 
BRANCH  20  21
ATOM     21  C   UNL     1       4.170  -3.253  -2.343  0.00  0.00    -0.026 A 
ATOM     22  C   UNL     1       4.415  -3.608  -1.029  0.00  0.00    +0.009 A 
ATOM     23  C   UNL     1       4.635  -4.933  -0.698  0.00  0.00    +0.050 A 
ATOM     24  C   UNL     1       4.611  -5.907  -1.683  0.00  0.00    +0.166 A 
ATOM     25  C   UNL     1       4.364  -5.548  -3.006  0.00  0.00    +0.167 A 
ATOM     26  C   UNL     1       4.139  -4.220  -3.330  0.00  0.00    +0.054 A 
ATOM     27  O   UNL     1       4.393  -6.675  -3.776  0.00  0.00    -0.453 OA
ATOM     28  C   UNL     1       5.062  -7.669  -2.978  0.00  0.00    +0.466 C 
ATOM     29  O   UNL     1       4.794  -7.258  -1.624  0.00  0.00    -0.453 OA
ENDBRANCH  20  21
ENDBRANCH   4  20
TORSDOF 5
