REMARK  Name = ZINC13807208
REMARK  8 active torsions:
REMARK  status: ('A' for Active; 'I' for Inactive)
REMARK    1  A    between atoms: C_1  and  C_2
REMARK    2  A    between atoms: C_2  and  C_4
REMARK    3  A    between atoms: C_2  and  N_10
REMARK    4  A    between atoms: C_11  and  C_13
REMARK    5  A    between atoms: C_13  and  C_36
REMARK    6  A    between atoms: N_15  and  C_30
REMARK    7  A    between atoms: C_19  and  C_20
REMARK    8  A    between atoms: C_23  and  N_26
REMARK                            x       y       z     vdW  Elec       q    Type
REMARK                         _______ _______ _______ _____ _____    ______ ____
ROOT
ATOM      1  C   UNL     1       4.886   5.332   1.851  0.00  0.00    +0.144 C 
ATOM      2  C   UNL     1       6.045   5.972   2.298  0.00  0.00    +0.111 A 
ATOM      3  N   UNL     1       7.293   5.977   1.724  0.00  0.00    -0.269 N 
ATOM      4  C   UNL     1       8.290   6.644   2.279  0.00  0.00    +0.270 A 
ATOM      5  O   UNL     1       9.400   6.662   1.780  0.00  0.00    -0.266 OA
ATOM      6  C   UNL     1       7.997   7.361   3.536  0.00  0.00    +0.079 A 
ATOM      7  C   UNL     1       8.819   8.110   4.313  0.00  0.00    +0.028 C 
ATOM      8  S   UNL     1       6.266   6.976   3.758  0.00  0.00    -0.064 S 
ENDROOT
BRANCH   7   9
ATOM      9  C   UNL     1      10.262   8.146   4.035  0.00  0.00    -0.024 A 
ATOM     10  C   UNL     1      10.948   6.966   3.721  0.00  0.00    +0.010 A 
ATOM     11  C   UNL     1      12.300   7.010   3.456  0.00  0.00    +0.033 A 
ATOM     12  C   UNL     1      12.982   8.213   3.510  0.00  0.00    +0.126 A 
ATOM     13  C   UNL     1      12.312   9.383   3.826  0.00  0.00    +0.033 A 
ATOM     14  C   UNL     1      10.959   9.358   4.088  0.00  0.00    +0.010 A 
BRANCH  12  15
ATOM     15  N   UNL     1      14.434   8.249   3.229  0.00  0.00    +0.056 N 
ATOM     16  O   UNL     1      15.038   9.306   3.276  0.00  0.00    -0.126 OA
ATOM     17  O   UNL     1      15.027   7.221   2.951  0.00  0.00    -0.126 OA
ENDBRANCH  12  15
ENDBRANCH   7   9
BRANCH   3  18
ATOM     18  C   UNL     1       7.510   5.270   0.534  0.00  0.00    +0.051 A 
ATOM     19  C   UNL     1       8.161   4.044   0.562  0.00  0.00    +0.026 A 
ATOM     20  C   UNL     1       8.369   3.348  -0.613  0.00  0.00    +0.002 A 
ATOM     21  C   UNL     1       7.939   3.876  -1.817  0.00  0.00    +0.000 A 
ATOM     22  C   UNL     1       7.295   5.099  -1.848  0.00  0.00    +0.002 A 
ATOM     23  C   UNL     1       7.079   5.798  -0.676  0.00  0.00    +0.026 A 
ENDBRANCH   3  18
BRANCH   1  25
ATOM     24  N   UNL     1       5.299   3.138   0.880  0.00  0.00    -0.304 N 
ATOM     25  C   UNL     1       4.947   4.427   0.704  0.00  0.00    +0.257 C 
ATOM     26  O   UNL     1       4.679   4.838  -0.410  0.00  0.00    -0.269 OA
ATOM     27  H   UNL     1       5.451   2.795   1.775  0.00  0.00    +0.150 HD
BRANCH  24  29
ATOM     28  C   UNL     1       4.086   1.688  -0.672  0.00  0.00    +0.033 C 
ATOM     29  C   UNL     1       5.452   2.256  -0.279  0.00  0.00    +0.100 C 
BRANCH  29  30
ATOM     30  C   UNL     1       6.384   1.124   0.071  0.00  0.00    -0.027 A 
ATOM     31  C   UNL     1       6.312   0.530   1.317  0.00  0.00    +0.005 A 
ATOM     32  C   UNL     1       7.167  -0.508   1.637  0.00  0.00    +0.000 A 
ATOM     33  C   UNL     1       8.094  -0.951   0.713  0.00  0.00    +0.000 A 
ATOM     34  C   UNL     1       8.167  -0.356  -0.533  0.00  0.00    +0.000 A 
ATOM     35  C   UNL     1       7.311   0.682  -0.854  0.00  0.00    +0.005 A 
ENDBRANCH  29  30
ENDBRANCH  24  29
ENDBRANCH   1  25
BRANCH   1  36
ATOM     36  C   UNL     1       3.639   5.562   2.517  0.00  0.00    +0.107 C 
ATOM     37  N   UNL     1       2.650   5.744   3.045  0.00  0.00    -0.191 NA
ENDBRANCH   1  36
TORSDOF 7
