REMARK  Name = ZINC38970807
REMARK  8 active torsions:
REMARK  status: ('A' for Active; 'I' for Inactive)
REMARK    1  A    between atoms: C_1  and  C_2
REMARK    2  A    between atoms: C_2  and  O_3
REMARK    3  A    between atoms: O_3  and  C_4
REMARK    4  A    between atoms: C_4  and  C_6
REMARK    5  A    between atoms: C_9  and  N_12
REMARK    6  A    between atoms: N_12  and  C_13
REMARK    7  A    between atoms: N_16  and  S_17
REMARK    8  A    between atoms: S_17  and  C_20
REMARK                            x       y       z     vdW  Elec       q    Type
REMARK                         _______ _______ _______ _____ _____    ______ ____
ROOT
ATOM      1  C   UNL     1       3.502  -5.403   5.986  0.00  0.00    +0.237 C 
ATOM      2  C   UNL     1       2.983  -5.676   7.379  0.00  0.00    +0.192 C 
ATOM      3  N   UNL     1       1.796  -5.278   7.730  0.00  0.00    -0.110 NA
ATOM      4  N   UNL     1       3.765  -6.335   8.248  0.00  0.00    -0.226 NA
ATOM      5  C   UNL     1       4.970  -6.748   7.917  0.00  0.00    +0.089 A 
ATOM      6  C   UNL     1       5.769  -7.442   8.861  0.00  0.00    +0.030 A 
ATOM      7  C   UNL     1       7.007  -7.868   8.526  0.00  0.00    +0.002 A 
ATOM      8  C   UNL     1       7.565  -7.656   7.254  0.00  0.00    +0.002 A 
ATOM      9  C   UNL     1       6.890  -7.006   6.281  0.00  0.00    +0.027 A 
ATOM     10  C   UNL     1       5.535  -6.511   6.566  0.00  0.00    +0.063 A 
ATOM     11  N   UNL     1       4.854  -5.880   5.651  0.00  0.00    -0.359 N 
ATOM     12  H   UNL     1       5.229  -5.728   4.770  0.00  0.00    +0.162 HD
ENDROOT
BRANCH   3  13
ATOM     13  S   UNL     1       1.239  -5.583   9.260  0.00  0.00    +0.100 S 
ATOM     14  O   UNL     1       1.098  -6.993   9.367  0.00  0.00    -0.146 OA
ATOM     15  O   UNL     1       2.054  -4.829  10.147  0.00  0.00    -0.146 OA
BRANCH  13  16
ATOM     16  C   UNL     1      -0.384  -4.905   9.368  0.00  0.00    +0.114 A 
ATOM     17  C   UNL     1      -0.560  -3.597   9.780  0.00  0.00    +0.029 A 
ATOM     18  C   UNL     1      -1.833  -3.065   9.866  0.00  0.00    +0.003 A 
ATOM     19  C   UNL     1      -2.930  -3.840   9.540  0.00  0.00    +0.020 A 
ATOM     20  C   UNL     1      -2.754  -5.148   9.127  0.00  0.00    +0.043 A 
ATOM     21  C   UNL     1      -1.479  -5.679   9.036  0.00  0.00    +0.049 A 
ATOM     22 CL   UNL     1      -4.131  -6.122   8.717  0.00  0.00    -0.083 Cl
ENDBRANCH  13  16
ENDBRANCH   3  13
BRANCH   1  23
ATOM     23  N   UNL     1       3.474  -3.954   5.774  0.00  0.00    -0.318 N 
ATOM     24  H   UNL     1       3.885  -3.361   6.422  0.00  0.00    +0.148 HD
BRANCH  23  28
ATOM     25  C   UNL     1       1.635  -2.383   2.393  0.00  0.00    +0.059 A 
ATOM     26  C   UNL     1       1.817  -3.764   2.514  0.00  0.00    +0.017 A 
ATOM     27  C   UNL     1       2.424  -4.279   3.630  0.00  0.00    +0.024 A 
ATOM     28  C   UNL     1       2.860  -3.428   4.643  0.00  0.00    +0.029 A 
ATOM     29  C   UNL     1       2.680  -2.052   4.526  0.00  0.00    +0.024 A 
ATOM     30  C   UNL     1       2.078  -1.531   3.410  0.00  0.00    +0.017 A 
BRANCH  25  31
ATOM     31  C   UNL     1       0.982  -1.826   1.195  0.00  0.00    +0.339 C 
ATOM     32  O   UNL     1       0.829  -0.625   1.089  0.00  0.00    -0.245 OA
BRANCH  31  33
ATOM     33  O   UNL     1       0.555  -2.648   0.216  0.00  0.00    -0.461 OA
BRANCH  33  35
ATOM     34  C   UNL     1      -0.483  -3.124  -1.913  0.00  0.00    +0.048 C 
ATOM     35  C   UNL     1      -0.068  -2.040  -0.916  0.00  0.00    +0.229 C 
ENDBRANCH  33  35
ENDBRANCH  31  33
ENDBRANCH  25  31
ENDBRANCH  23  28
ENDBRANCH   1  23
TORSDOF 7
