REMARK  Name = ZINC66924985
REMARK  9 active torsions:
REMARK  status: ('A' for Active; 'I' for Inactive)
REMARK    1  A    between atoms: C_1  and  C_2
REMARK    2  A    between atoms: C_2  and  C_3
REMARK    3  A    between atoms: N_5  and  C_6
REMARK    4  A    between atoms: C_9  and  C_12
REMARK    5  A    between atoms: C_12  and  C_14
REMARK    6  A    between atoms: C_12  and  N_15
REMARK    7  A    between atoms: N_18  and  C_19
REMARK    8  A    between atoms: C_19  and  C_20
REMARK    9  A    between atoms: C_20  and  O_30
REMARK                            x       y       z     vdW  Elec       q    Type
REMARK                         _______ _______ _______ _____ _____    ______ ____
ROOT
ATOM      1  N   UNL     1      -7.227  -4.745   0.578  0.00  0.00    -0.293 N 
ATOM      2  C   UNL     1      -8.455  -5.013   1.065  0.00  0.00    +0.300 C 
ATOM      3  O   UNL     1      -9.398  -4.310   0.756  0.00  0.00    -0.253 OA
ATOM      4  N   UNL     1      -8.638  -6.061   1.893  0.00  0.00    -0.296 N 
ATOM      5  H   UNL     1      -6.475  -5.306   0.824  0.00  0.00    +0.151 HD
ATOM      6  H   UNL     1      -7.885  -6.622   2.139  0.00  0.00    +0.150 HD
ENDROOT
BRANCH   1   7
ATOM      7  C   UNL     1      -7.028  -3.606  -0.322  0.00  0.00    +0.102 C 
ATOM      8  C   UNL     1      -7.344  -4.030  -1.758  0.00  0.00    +0.033 C 
BRANCH   7  12
ATOM      9  C   UNL     1      -2.968  -2.294  -0.084  0.00  0.00    +0.033 A 
ATOM     10  C   UNL     1      -3.996  -1.364  -0.170  0.00  0.00    +0.023 A 
ATOM     11  C   UNL     1      -5.307  -1.791  -0.246  0.00  0.00    +0.007 A 
ATOM     12  C   UNL     1      -5.597  -3.143  -0.238  0.00  0.00    -0.027 A 
ATOM     13  C   UNL     1      -4.575  -4.072  -0.152  0.00  0.00    +0.007 A 
ATOM     14  C   UNL     1      -3.262  -3.651  -0.081  0.00  0.00    +0.023 A 
BRANCH   9  17
ATOM     15  C   UNL     1      -0.664  -2.576  -0.605  0.00  0.00    +0.217 C 
ATOM     16  O   UNL     1      -0.926  -3.632  -1.140  0.00  0.00    -0.275 OA
ATOM     17  N   UNL     1      -1.639  -1.864  -0.006  0.00  0.00    -0.286 N 
ATOM     18  H   UNL     1      -1.419  -1.053   0.479  0.00  0.00    +0.155 HD
BRANCH  15  20
ATOM     19  C   UNL     1       1.653  -3.051  -1.349  0.00  0.00    +0.013 C 
ATOM     20  C   UNL     1       0.752  -2.060  -0.610  0.00  0.00    +0.093 C 
ENDBRANCH  15  20
ENDBRANCH   9  17
ENDBRANCH   7  12
ENDBRANCH   1   7
BRANCH   4  21
ATOM     21  C   UNL     1      -9.973  -6.353   2.421  0.00  0.00    +0.145 C 
BRANCH  21  22
ATOM     22  C   UNL     1      -9.883  -7.505   3.424  0.00  0.00    +0.107 C 
ATOM     23  C   UNL     1      -9.302  -8.734   2.728  0.00  0.00    +0.041 C 
ATOM     24  C   UNL     1      -9.422  -9.931   3.679  0.00  0.00    +0.008 C 
ATOM     25  C   UNL     1     -10.899 -10.301   3.801  0.00  0.00    +0.035 C 
ATOM     26  C   UNL     1     -11.723  -9.087   4.139  0.00  0.00    -0.041 A 
ATOM     27  C   UNL     1     -11.258  -7.803   3.962  0.00  0.00    -0.011 A 
ATOM     28  C   UNL     1     -12.072  -6.726   4.288  0.00  0.00    +0.007 A 
ATOM     29  C   UNL     1     -13.341  -6.932   4.790  0.00  0.00    +0.000 A 
ATOM     30  C   UNL     1     -13.806  -8.221   4.971  0.00  0.00    +0.000 A 
ATOM     31  C   UNL     1     -13.000  -9.292   4.646  0.00  0.00    +0.004 A 
BRANCH  22  32
ATOM     32  O   UNL     1      -9.027  -7.126   4.503  0.00  0.00    -0.382 OA
ATOM     33  H   UNL     1      -9.328  -6.345   4.988  0.00  0.00    +0.211 HD
ENDBRANCH  22  32
ENDBRANCH  21  22
ENDBRANCH   4  21
TORSDOF 7
