REMARK  Name = ZINC40296225
REMARK  4 active torsions:
REMARK  status: ('A' for Active; 'I' for Inactive)
REMARK    1  A    between atoms: C_10  and  N_11
REMARK    2  A    between atoms: C_12  and  C_14
REMARK    3  A    between atoms: C_17  and  N_21
REMARK    4  A    between atoms: C_19  and  N_20
REMARK                            x       y       z     vdW  Elec       q    Type
REMARK                         _______ _______ _______ _____ _____    ______ ____
ROOT
ATOM      1  N   UNL     1       4.871   0.098  -0.055  0.00  0.00    -0.281 N 
ATOM      2  C   UNL     1       6.046  -0.556   0.039  0.00  0.00    +0.250 C 
ATOM      3  O   UNL     1       6.067  -1.772   0.036  0.00  0.00    -0.270 OA
ATOM      4  H   UNL     1       4.859   1.065  -0.135  0.00  0.00    +0.155 HD
ENDROOT
BRANCH   1  14
ATOM      5  C   UNL     1       0.210   0.942  -1.796  0.00  0.00    +0.001 A 
ATOM      6  C   UNL     1       1.397   1.671  -1.825  0.00  0.00    +0.001 A 
ATOM      7  C   UNL     1       2.534   1.182  -1.258  0.00  0.00    +0.010 A 
ATOM      8  C   UNL     1       2.514  -0.076  -0.635  0.00  0.00    +0.003 A 
ATOM      9  C   UNL     1       1.308  -0.819  -0.606  0.00  0.00    -0.016 A 
ATOM     10  C   UNL     1       0.153  -0.281  -1.201  0.00  0.00    +0.008 A 
ATOM     11  C   UNL     1       1.286  -2.078   0.018  0.00  0.00    +0.008 A 
ATOM     12  C   UNL     1       2.419  -2.574   0.587  0.00  0.00    +0.002 A 
ATOM     13  C   UNL     1       3.609  -1.854   0.565  0.00  0.00    +0.024 A 
ATOM     14  C   UNL     1       3.673  -0.616  -0.037  0.00  0.00    +0.041 A 
ENDBRANCH   1  14
BRANCH   2  15
ATOM     15  C   UNL     1       7.303   0.201   0.144  0.00  0.00    +0.058 A 
ATOM     16  C   UNL     1       7.276   1.596   0.256  0.00  0.00    +0.017 A 
ATOM     17  C   UNL     1       8.441   2.298   0.353  0.00  0.00    +0.023 A 
ATOM     18  C   UNL     1       9.668   1.635   0.341  0.00  0.00    +0.026 A 
ATOM     19  C   UNL     1       9.714   0.252   0.230  0.00  0.00    +0.046 A 
ATOM     20  C   UNL     1       8.536  -0.473   0.137  0.00  0.00    +0.039 A 
BRANCH  20  21
ATOM     21  N   UNL     1       8.575  -1.858   0.032  0.00  0.00    -0.357 N 
ATOM     22  H   UNL     1       7.749  -2.368   0.037  0.00  0.00    +0.142 HD
ATOM     23  H   UNL     1       9.427  -2.315  -0.047  0.00  0.00    +0.142 HD
ENDBRANCH  20  21
BRANCH  18  24
ATOM     24  N   UNL     1      10.849   2.362   0.440  0.00  0.00    -0.358 N 
ATOM     25  H   UNL     1      10.819   3.328   0.517  0.00  0.00    +0.142 HD
ATOM     26  H   UNL     1      11.704   1.902   0.431  0.00  0.00    +0.142 HD
ENDBRANCH  18  24
ENDBRANCH   2  15
TORSDOF 4
