REMARK  Name = ZINC38591542
REMARK  12 active torsions:
REMARK  status: ('A' for Active; 'I' for Inactive)
REMARK    1  A    between atoms: C_1  and  C_2
REMARK    2  A    between atoms: C_2  and  O_3
REMARK    3  A    between atoms: O_3  and  C_4
REMARK    4  A    between atoms: C_4  and  C_6
REMARK    5  A    between atoms: C_8  and  N_18
REMARK    6  A    between atoms: C_11  and  O_16
REMARK    7  A    between atoms: O_16  and  C_17
REMARK    8  A    between atoms: C_19  and  C_21
REMARK    9  A    between atoms: C_21  and  N_22
REMARK   10  A    between atoms: C_25  and  C_28
REMARK   11  A    between atoms: C_25  and  O_38
REMARK   12  A    between atoms: C_32  and  C_34
REMARK                            x       y       z     vdW  Elec       q    Type
REMARK                         _______ _______ _______ _____ _____    ______ ____
ROOT
ATOM      1  N   UNL     1      -0.197  -1.369   4.367  0.00  0.00    -0.288 N 
ATOM      2  C   UNL     1      -0.911  -1.626   5.481  0.00  0.00    +0.200 C 
ATOM      3  O   UNL     1      -0.877  -2.729   5.982  0.00  0.00    -0.278 OA
ATOM      4  H   UNL     1      -0.157  -0.467   4.013  0.00  0.00    +0.155 HD
ENDROOT
BRANCH   1   6
ATOM      5  C   UNL     1       0.635  -3.803   4.217  0.00  0.00    +0.234 C 
ATOM      6  C   UNL     1       0.469  -2.379   3.736  0.00  0.00    +0.053 C 
ATOM      7  C   UNL     1       1.132  -2.312   2.524  0.00  0.00    +0.021 A 
ATOM      8  C   UNL     1       1.329  -1.256   1.600  0.00  0.00    +0.057 A 
ATOM      9  C   UNL     1       2.038  -1.480   0.463  0.00  0.00    +0.121 A 
ATOM     10  C   UNL     1       2.586  -2.739   0.177  0.00  0.00    +0.047 A 
ATOM     11  C   UNL     1       2.436  -3.791   1.016  0.00  0.00    +0.029 A 
ATOM     12  C   UNL     1       1.707  -3.634   2.224  0.00  0.00    +0.045 A 
ATOM     13  N   UNL     1       1.424  -4.489   3.189  0.00  0.00    -0.367 N 
ATOM     14  H   UNL     1       1.694  -5.420   3.215  0.00  0.00    +0.161 HD
BRANCH   5  15
ATOM     15  C   UNL     1       1.367  -3.824   5.534  0.00  0.00    +0.336 C 
ATOM     16  O   UNL     1       2.559  -3.629   5.566  0.00  0.00    -0.248 OA
BRANCH  15  17
ATOM     17  O   UNL     1       0.695  -4.060   6.672  0.00  0.00    -0.463 OA
BRANCH  17  19
ATOM     18  C   UNL     1       0.523  -4.348   9.065  0.00  0.00    +0.048 C 
ATOM     19  C   UNL     1       1.453  -4.065   7.883  0.00  0.00    +0.229 C 
ENDBRANCH  17  19
ENDBRANCH  15  17
ENDBRANCH   5  15
BRANCH   9  20
ATOM     20  O   UNL     1       2.221  -0.461  -0.418  0.00  0.00    -0.495 OA
ATOM     21  C   UNL     1       2.975  -0.750  -1.598  0.00  0.00    +0.277 C 
ENDBRANCH   9  20
ENDBRANCH   1   6
BRANCH   2  22
ATOM     22  C   UNL     1      -1.751  -0.541   6.104  0.00  0.00    +0.019 C 
BRANCH  22  23
ATOM     23  N   UNL     1      -2.425  -1.068   7.297  0.00  0.00    +0.386 N 
ATOM     24  C   UNL     1      -3.368  -2.121   6.900  0.00  0.00    -0.075 C 
ATOM     25  C   UNL     1      -4.013  -2.730   8.147  0.00  0.00    +0.021 C 
ATOM     26  C   UNL     1      -4.761  -1.635   8.914  0.00  0.00    +0.088 C 
ATOM     27  C   UNL     1      -3.784  -0.508   9.258  0.00  0.00    +0.021 C 
ATOM     28  C   UNL     1      -3.147   0.019   7.970  0.00  0.00    -0.075 C 
ATOM     29  H   UNL     1      -1.738  -1.454   7.927  0.00  0.00    -0.081 HD
BRANCH  26  30
ATOM     30  C   UNL     1      -5.334  -2.211  10.183  0.00  0.00    -0.016 A 
ATOM     31  C   UNL     1      -4.692  -3.258  10.819  0.00  0.00    +0.006 A 
ATOM     32  C   UNL     1      -5.217  -3.786  11.983  0.00  0.00    +0.001 A 
ATOM     33  C   UNL     1      -6.384  -3.267  12.513  0.00  0.00    +0.012 A 
ATOM     34  C   UNL     1      -7.026  -2.220  11.878  0.00  0.00    +0.055 A 
ATOM     35  C   UNL     1      -6.498  -1.689  10.715  0.00  0.00    +0.018 A 
BRANCH  34  36
ATOM     36  C   UNL     1      -8.298  -1.655  12.454  0.00  0.00    +0.417 C 
ATOM     37  F   UNL     1      -8.628  -2.348  13.624  0.00  0.00    -0.166 F 
ATOM     38  F   UNL     1      -8.114  -0.301  12.751  0.00  0.00    -0.166 F 
ATOM     39  F   UNL     1      -9.333  -1.792  11.524  0.00  0.00    -0.166 F 
ENDBRANCH  34  36
ENDBRANCH  26  30
BRANCH  26  40
ATOM     40  O   UNL     1      -5.818  -1.121   8.101  0.00  0.00    -0.384 OA
ATOM     41  H   UNL     1      -6.335  -0.422   8.525  0.00  0.00    +0.211 HD
ENDBRANCH  26  40
ENDBRANCH  22  23
ENDBRANCH   2  22
TORSDOF 10
