REMARK  Name = ZINC42789687
REMARK  9 active torsions:
REMARK  status: ('A' for Active; 'I' for Inactive)
REMARK    1  A    between atoms: C_1  and  C_2
REMARK    2  A    between atoms: C_2  and  C_21
REMARK    3  A    between atoms: C_3  and  C_4
REMARK    4  A    between atoms: C_6  and  C_11
REMARK    5  A    between atoms: C_8  and  C_9
REMARK    6  A    between atoms: C_8  and  C_10
REMARK    7  A    between atoms: N_13  and  C_14
REMARK    8  A    between atoms: C_14  and  C_15
REMARK    9  A    between atoms: C_14  and  C_18
REMARK                            x       y       z     vdW  Elec       q    Type
REMARK                         _______ _______ _______ _____ _____    ______ ____
ROOT
ATOM      1  C   UNL     1       0.012  -2.392   3.473  0.00  0.00    +0.218 C 
ATOM      2  O   UNL     1       0.595  -3.294   4.038  0.00  0.00    -0.275 OA
ATOM      3  N   UNL     1      -1.211  -2.605   2.948  0.00  0.00    -0.297 N 
ATOM      4  H   UNL     1      -1.677  -1.884   2.496  0.00  0.00    +0.150 HD
ENDROOT
BRANCH   1   6
ATOM      5  C   UNL     1       0.938  -0.503   1.951  0.00  0.00    +0.030 C 
ATOM      6  C   UNL     1       0.656  -1.034   3.358  0.00  0.00    +0.089 C 
ATOM      7  C   UNL     1       2.094  -0.975   2.835  0.00  0.00    -0.016 C 
ATOM      8  C   UNL     1       2.768  -2.299   2.470  0.00  0.00    +0.012 C 
ATOM      9  C   UNL     1       3.015   0.095   3.424  0.00  0.00    +0.012 C 
BRANCH   5  12
ATOM     10  C   UNL     1       1.064   0.509  -0.675  0.00  0.00    +0.038 C 
ATOM     11  C   UNL     1       0.609  -0.907  -0.435  0.00  0.00    -0.079 C 
ATOM     12  C   UNL     1       0.551  -1.378   0.786  0.00  0.00    -0.023 C 
ATOM     13  C   UNL     1       0.222  -1.782  -1.599  0.00  0.00    +0.038 C 
ENDBRANCH   5  12
ENDBRANCH   1   6
BRANCH   3  14
ATOM     14  C   UNL     1      -1.837  -3.925   3.060  0.00  0.00    +0.245 C 
BRANCH  14  15
ATOM     15  C   UNL     1      -2.545  -4.034   4.386  0.00  0.00    +0.240 C 
ATOM     16  O   UNL     1      -2.942  -3.034   4.945  0.00  0.00    -0.273 OA
ATOM     17  N   UNL     1      -2.738  -5.243   4.949  0.00  0.00    -0.327 N 
ATOM     18  H   UNL     1      -2.355  -6.035   4.541  0.00  0.00    +0.145 HD
ATOM     19  H   UNL     1      -3.258  -5.321   5.764  0.00  0.00    +0.145 HD
ENDBRANCH  14  15
BRANCH  14  20
ATOM     20  C   UNL     1      -2.831  -4.105   1.942  0.00  0.00    +0.240 C 
ATOM     21  O   UNL     1      -3.313  -3.135   1.397  0.00  0.00    -0.273 OA
ATOM     22  N   UNL     1      -3.185  -5.345   1.549  0.00  0.00    -0.327 N 
ATOM     23  H   UNL     1      -2.857  -6.119   2.032  0.00  0.00    +0.145 HD
ATOM     24  H   UNL     1      -3.768  -5.463   0.783  0.00  0.00    +0.145 HD
ENDBRANCH  14  20
ENDBRANCH   3  14
TORSDOF 5
