REMARK  Name = ZINC35747449
REMARK  13 active torsions:
REMARK  status: ('A' for Active; 'I' for Inactive)
REMARK    1  A    between atoms: C_1  and  O_2
REMARK    2  A    between atoms: O_2  and  C_3
REMARK    3  A    between atoms: C_6  and  C_9
REMARK    4  A    between atoms: C_18  and  C_20
REMARK    5  A    between atoms: C_20  and  N_21
REMARK    6  A    between atoms: N_21  and  C_22
REMARK    7  A    between atoms: N_21  and  C_31
REMARK    8  A    between atoms: C_22  and  C_23
REMARK    9  A    between atoms: C_23  and  C_25
REMARK   10  A    between atoms: C_23  and  O_30
REMARK   11  A    between atoms: C_25  and  O_26
REMARK   12  A    between atoms: O_26  and  C_27
REMARK   13  A    between atoms: C_27  and  C_28
REMARK                            x       y       z     vdW  Elec       q    Type
REMARK                         _______ _______ _______ _____ _____    ______ ____
ROOT
ATOM      1  C   UNL     1       3.991  -3.405   4.017  0.00  0.00    +0.004 A 
ATOM      2  C   UNL     1       5.277  -3.353   4.441  0.00  0.00    +0.056 A 
ATOM      3  S   UNL     1       5.281  -4.408   5.878  0.00  0.00    -0.076 S 
ATOM      4  C   UNL     1       3.573  -4.891   5.874  0.00  0.00    +0.116 A 
ATOM      5  C   UNL     1       3.039  -4.218   4.764  0.00  0.00    +0.080 A 
ATOM      6  C   UNL     1       1.644  -4.429   4.523  0.00  0.00    +0.260 A 
ATOM      7  O   UNL     1       1.090  -3.892   3.579  0.00  0.00    -0.267 OA
ATOM      8  N   UNL     1       0.953  -5.232   5.354  0.00  0.00    -0.312 N 
ATOM      9  H   UNL     1       0.007  -5.379   5.195  0.00  0.00    +0.170 HD
ATOM     10  C   UNL     1       1.553  -5.840   6.409  0.00  0.00    +0.094 A 
ATOM     11  N   UNL     1       2.826  -5.674   6.649  0.00  0.00    -0.229 NA
ENDROOT
BRANCH   1  15
ATOM     12  C   UNL     1       2.755  -1.228   0.579  0.00  0.00    +0.120 A 
ATOM     13  C   UNL     1       3.474  -0.591   1.581  0.00  0.00    +0.046 A 
ATOM     14  C   UNL     1       3.877  -1.294   2.697  0.00  0.00    +0.012 A 
ATOM     15  C   UNL     1       3.560  -2.646   2.819  0.00  0.00    -0.016 A 
ATOM     16  C   UNL     1       2.837  -3.283   1.811  0.00  0.00    +0.012 A 
ATOM     17  C   UNL     1       2.433  -2.572   0.700  0.00  0.00    +0.046 A 
BRANCH  12  19
ATOM     18  C   UNL     1       2.725   0.849  -0.579  0.00  0.00    +0.277 C 
ATOM     19  O   UNL     1       2.360  -0.532  -0.519  0.00  0.00    -0.495 OA
ENDBRANCH  12  19
ENDBRANCH   1  15
BRANCH  10  20
ATOM     20  C   UNL     1       0.739  -6.729   7.312  0.00  0.00    -0.003 C 
BRANCH  20  21
ATOM     21  N   UNL     1       1.557  -7.141   8.461  0.00  0.00    +0.388 N 
ATOM     22  H   UNL     1       2.509  -7.289   8.160  0.00  0.00    -0.081 HD
BRANCH  21  23
ATOM     23  C   UNL     1       1.525  -6.090   9.487  0.00  0.00    -0.068 C 
ATOM     24  C   UNL     1       0.094  -5.925  10.002  0.00  0.00    -0.015 C 
ATOM     25  C   UNL     1       0.060  -4.830  11.071  0.00  0.00    -0.002 C 
ATOM     26  C   UNL     1       0.540  -3.510  10.464  0.00  0.00    -0.000 C 
ATOM     27  C   UNL     1       1.971  -3.676   9.949  0.00  0.00    -0.002 C 
ATOM     28  C   UNL     1       2.005  -4.770   8.880  0.00  0.00    -0.015 C 
ENDBRANCH  21  23
BRANCH  21  29
ATOM     29  C   UNL     1       1.022  -8.389   9.021  0.00  0.00    -0.044 C 
BRANCH  29  30
ATOM     30  C   UNL     1       1.973  -8.913  10.099  0.00  0.00    +0.124 C 
BRANCH  30  31
ATOM     31  O   UNL     1       1.964  -8.022  11.216  0.00  0.00    -0.391 OA
ATOM     32  H   UNL     1       1.115  -7.976  11.677  0.00  0.00    +0.210 HD
ENDBRANCH  30  31
BRANCH  30  33
ATOM     33  C   UNL     1       1.515 -10.302  10.552  0.00  0.00    +0.190 C 
BRANCH  33  34
ATOM     34  O   UNL     1       2.466 -10.840  11.472  0.00  0.00    -0.365 OA
BRANCH  34  35
ATOM     35  C   UNL     1       2.132 -12.141  11.959  0.00  0.00    +0.248 C 
BRANCH  35  36
ATOM     36  C   UNL     1       3.173 -12.598  12.894  0.00  0.00    -0.077 C 
ATOM     37  C   UNL     1       4.003 -12.962  13.640  0.00  0.00    +0.006 C 
ENDBRANCH  35  36
ENDBRANCH  34  35
ENDBRANCH  33  34
ENDBRANCH  30  33
ENDBRANCH  29  30
ENDBRANCH  21  29
ENDBRANCH  20  21
ENDBRANCH  10  20
TORSDOF 12
