REMARK  Name = ZINC12751770
REMARK  9 active torsions:
REMARK  status: ('A' for Active; 'I' for Inactive)
REMARK    1  A    between atoms: C_1  and  N_58
REMARK    2  A    between atoms: C_2  and  N_58
REMARK    3  A    between atoms: C_3  and  C_4
REMARK    4  A    between atoms: C_3  and  N_58
REMARK    5  A    between atoms: C_8  and  C_10
REMARK    6  A    between atoms: C_10  and  N_11
REMARK    7  A    between atoms: C_12  and  C_14
REMARK    8  A    between atoms: N_20  and  S_21
REMARK    9  A    between atoms: S_21  and  C_24
REMARK                            x       y       z     vdW  Elec       q    Type
REMARK                         _______ _______ _______ _____ _____    ______ ____
ROOT
ATOM      1  N   UNL     1      -2.348   4.021  -2.267  0.00  0.00    -0.310 N 
ATOM      2  C   UNL     1      -1.779   2.838  -1.961  0.00  0.00    +0.232 C 
ATOM      3  O   UNL     1      -2.179   1.820  -2.484  0.00  0.00    -0.274 OA
ATOM      4  H   UNL     1      -2.028   4.836  -1.848  0.00  0.00    +0.149 HD
ENDROOT
BRANCH   2   5
ATOM      5  C   UNL     1      -0.646   2.781  -0.969  0.00  0.00    +0.165 C 
ATOM      6  C   UNL     1      -0.954   1.735   0.107  0.00  0.00    +0.030 C 
ATOM      7  C   UNL     1       0.258   1.586   1.030  0.00  0.00    +0.003 C 
ATOM      8  C   UNL     1       1.465   1.106   0.220  0.00  0.00    +0.017 C 
ATOM      9  C   UNL     1       1.798   2.143  -0.856  0.00  0.00    +0.110 C 
ATOM     10  N   UNL     1       0.594   2.400  -1.658  0.00  0.00    -0.165 NA
BRANCH  10  11
ATOM     11  S   UNL     1       0.633   2.261  -3.308  0.00  0.00    +0.062 S 
ATOM     12  O   UNL     1      -0.444   3.042  -3.807  0.00  0.00    -0.153 OA
ATOM     13  O   UNL     1       1.980   2.480  -3.702  0.00  0.00    -0.153 OA
BRANCH  11  14
ATOM     14  C   UNL     1       0.261   0.583  -3.698  0.00  0.00    +0.106 A 
ATOM     15  C   UNL     1       1.206  -0.403  -3.480  0.00  0.00    +0.029 A 
ATOM     16  C   UNL     1       0.913  -1.719  -3.782  0.00  0.00    +0.017 A 
ATOM     17  C   UNL     1      -0.322  -2.049  -4.312  0.00  0.00    +0.018 A 
ATOM     18  C   UNL     1      -1.264  -1.062  -4.535  0.00  0.00    +0.017 A 
ATOM     19  C   UNL     1      -0.972   0.254  -4.228  0.00  0.00    +0.029 A 
ATOM     20 BR   UNL     1      -0.720  -3.849  -4.731  0.00  0.00    -0.050 Br
ENDBRANCH  11  14
ENDBRANCH  10  11
ENDBRANCH   2   5
BRANCH   1  21
ATOM     21  C   UNL     1      -3.449   4.077  -3.231  0.00  0.00    +0.139 C 
BRANCH  21  26
ATOM     22  C   UNL     1      -5.314   7.321  -2.729  0.00  0.00    -0.064 A 
ATOM     23  C   UNL     1      -4.736   8.124  -3.694  0.00  0.00    +0.002 A 
ATOM     24  C   UNL     1      -3.740   7.617  -4.509  0.00  0.00    +0.001 A 
ATOM     25  C   UNL     1      -3.324   6.308  -4.359  0.00  0.00    +0.005 A 
ATOM     26  C   UNL     1      -3.903   5.505  -3.394  0.00  0.00    -0.030 A 
ATOM     27  C   UNL     1      -4.902   6.010  -2.583  0.00  0.00    +0.007 A 
BRANCH  22  28
ATOM     28  C   UNL     1      -6.400   7.873  -1.841  0.00  0.00    -0.044 C 
BRANCH  28  31
ATOM     29  C   UNL     1      -8.013   6.208  -2.539  0.00  0.00    -0.096 C 
ATOM     30  C   UNL     1      -8.768   8.370  -1.754  0.00  0.00    -0.096 C 
ATOM     31  N   UNL     1      -7.707   7.653  -2.494  0.00  0.00    +0.379 N 
ATOM     32  H   UNL     1      -7.666   8.016  -3.453  0.00  0.00    -0.082 HD
ENDBRANCH  28  31
ENDBRANCH  22  28
ENDBRANCH  21  26
ENDBRANCH   1  21
TORSDOF 7
