REMARK  Name = ZINC35528699
REMARK  7 active torsions:
REMARK  status: ('A' for Active; 'I' for Inactive)
REMARK    1  A    between atoms: C_1  and  C_2
REMARK    2  A    between atoms: C_2  and  C_3
REMARK    3  A    between atoms: C_3  and  N_4
REMARK    4  A    between atoms: C_16  and  C_17
REMARK    5  A    between atoms: C_17  and  C_18
REMARK    6  A    between atoms: C_18  and  C_19
REMARK    7  A    between atoms: N_24  and  C_27
REMARK                            x       y       z     vdW  Elec       q    Type
REMARK                         _______ _______ _______ _____ _____    ______ ____
ROOT
ATOM      1  C   UNL     1      -1.902  -5.785  -2.814  0.00  0.00    +0.086 C 
ENDROOT
BRANCH   1  14
ATOM      2  N   UNL     1       0.680  -1.907  -1.276  0.00  0.00    -0.276 N 
ATOM      3  C   UNL     1       1.707  -2.559  -0.687  0.00  0.00    +0.270 A 
ATOM      4  O   UNL     1       2.608  -1.934  -0.158  0.00  0.00    -0.266 OA
ATOM      5  C   UNL     1       1.727  -3.960  -0.690  0.00  0.00    +0.101 A 
ATOM      6  C   UNL     1       0.712  -4.710  -1.287  0.00  0.00    +0.071 A 
ATOM      7  C   UNL     1       0.902  -6.086  -1.191  0.00  0.00    +0.034 A 
ATOM      8  C   UNL     1       1.996  -6.569  -0.562  0.00  0.00    +0.048 A 
ATOM      9  S   UNL     1       2.830  -5.198  -0.064  0.00  0.00    -0.090 S 
ATOM     10  N   UNL     1      -0.331  -3.986  -1.883  0.00  0.00    -0.264 N 
ATOM     11  C   UNL     1      -0.341  -2.625  -1.869  0.00  0.00    +0.239 A 
ATOM     12  N   UNL     1      -1.436  -2.247  -2.493  0.00  0.00    -0.110 NA
ATOM     13  N   UNL     1      -2.095  -3.281  -2.882  0.00  0.00    -0.132 NA
ATOM     14  C   UNL     1      -1.460  -4.370  -2.543  0.00  0.00    +0.140 A 
BRANCH   2  15
ATOM     15  C   UNL     1       0.646  -0.442  -1.280  0.00  0.00    +0.128 C 
BRANCH  15  17
ATOM     16  C   UNL     1      -0.118   1.585  -0.035  0.00  0.00    +0.005 C 
ATOM     17  C   UNL     1      -0.083   0.055  -0.030  0.00  0.00    +0.018 C 
ENDBRANCH  15  17
ENDBRANCH   2  15
ENDBRANCH   1  14
BRANCH   1  18
ATOM     18  C   UNL     1      -2.776  -6.277  -1.658  0.00  0.00    +0.104 C 
BRANCH  18  19
ATOM     19  C   UNL     1      -3.217  -7.692  -1.929  0.00  0.00    +0.216 C 
ATOM     20  O   UNL     1      -2.868  -8.252  -2.947  0.00  0.00    -0.276 OA
ATOM     21  N   UNL     1      -4.001  -8.336  -1.041  0.00  0.00    -0.298 N 
ATOM     22  C   UNL     1      -4.437  -7.668   0.193  0.00  0.00    +0.126 C 
ATOM     23  C   UNL     1      -5.968  -7.721   0.265  0.00  0.00    +0.124 C 
ATOM     24  N   UNL     1      -6.402  -9.103   0.016  0.00  0.00    -0.327 N 
ATOM     25  C   UNL     1      -5.966  -9.771  -1.218  0.00  0.00    +0.124 C 
ATOM     26  C   UNL     1      -4.439  -9.716  -1.292  0.00  0.00    +0.126 C 
BRANCH  24  27
ATOM     27  C   UNL     1      -7.213  -9.769   0.937  0.00  0.00    +0.031 A 
ATOM     28  C   UNL     1      -7.524  -9.171   2.152  0.00  0.00    +0.023 A 
ATOM     29  C   UNL     1      -8.328  -9.832   3.060  0.00  0.00    +0.003 A 
ATOM     30  C   UNL     1      -8.822 -11.089   2.762  0.00  0.00    +0.020 A 
ATOM     31  C   UNL     1      -8.515 -11.688   1.553  0.00  0.00    +0.043 A 
ATOM     32  C   UNL     1      -7.716 -11.029   0.637  0.00  0.00    +0.043 A 
ATOM     33 CL   UNL     1      -9.138 -13.266   1.183  0.00  0.00    -0.083 Cl
ENDBRANCH  24  27
ENDBRANCH  18  19
ENDBRANCH   1  18
TORSDOF 6
