REMARK  Name = ZINC34835580
REMARK  10 active torsions:
REMARK  status: ('A' for Active; 'I' for Inactive)
REMARK    1  A    between atoms: C_1  and  C_2
REMARK    2  A    between atoms: C_2  and  N_3
REMARK    3  A    between atoms: N_6  and  C_9
REMARK    4  A    between atoms: C_10  and  C_22
REMARK    5  A    between atoms: C_11  and  C_21
REMARK    6  A    between atoms: N_13  and  C_14
REMARK    7  A    between atoms: C_22  and  N_23
REMARK    8  A    between atoms: N_23  and  C_24
REMARK    9  A    between atoms: C_27  and  C_29
REMARK   10  A    between atoms: C_33  and  N_35
REMARK                            x       y       z     vdW  Elec       q    Type
REMARK                         _______ _______ _______ _____ _____    ______ ____
ROOT
ATOM      1  C   UNL     1      -7.550 -12.049  -2.431  0.00  0.00    +0.130 A 
ATOM      2  C   UNL     1      -8.196 -12.007  -1.233  0.00  0.00    +0.032 A 
ATOM      3  C   UNL     1      -9.531 -12.357  -1.454  0.00  0.00    +0.067 A 
ATOM      4  N   UNL     1      -9.691 -12.602  -2.729  0.00  0.00    -0.170 NA
ATOM      5  N   UNL     1      -8.462 -12.411  -3.374  0.00  0.00    -0.218 N 
ATOM      6  C   UNL     1     -10.606 -12.440  -0.400  0.00  0.00    +0.068 C 
ENDROOT
BRANCH   1  10
ATOM      7  N   UNL     1      -3.461 -11.518  -2.179  0.00  0.00    +0.382 N 
ATOM      8  C   UNL     1      -4.054 -12.857  -2.288  0.00  0.00    -0.060 C 
ATOM      9  C   UNL     1      -5.295 -12.794  -3.185  0.00  0.00    +0.088 C 
ATOM     10  N   UNL     1      -6.205 -11.768  -2.651  0.00  0.00    -0.318 N 
ATOM     11  C   UNL     1      -5.652 -10.437  -2.357  0.00  0.00    +0.088 C 
ATOM     12  C   UNL     1      -4.395 -10.611  -1.499  0.00  0.00    -0.060 C 
ATOM     13  H   UNL     1      -3.264 -11.164  -3.104  0.00  0.00    -0.082 HD
BRANCH   7  15
ATOM     14  C   UNL     1      -1.194 -12.443  -2.180  0.00  0.00    -0.017 C 
ATOM     15  C   UNL     1      -2.212 -11.598  -1.411  0.00  0.00    -0.082 C 
ENDBRANCH   7  15
ENDBRANCH   1  10
BRANCH   5  16
ATOM     16  C   UNL     1      -8.215 -12.568  -4.745  0.00  0.00    +0.070 A 
ATOM     17  C   UNL     1      -7.924 -11.460  -5.530  0.00  0.00    +0.028 A 
ATOM     18  C   UNL     1      -7.681 -11.616  -6.880  0.00  0.00    +0.005 A 
ATOM     19  C   UNL     1      -7.726 -12.874  -7.452  0.00  0.00    +0.038 A 
ATOM     20  C   UNL     1      -8.016 -13.981  -6.673  0.00  0.00    +0.125 A 
ATOM     21  C   UNL     1      -8.255 -13.831  -5.318  0.00  0.00    +0.066 A 
ATOM     22  F   UNL     1      -8.060 -15.210  -7.234  0.00  0.00    -0.205 F 
ENDBRANCH   5  16
BRANCH   2  23
ATOM     23  C   UNL     1      -7.581 -11.647   0.095  0.00  0.00    +0.148 C 
BRANCH  23  24
ATOM     24  N   UNL     1      -7.709 -10.204   0.317  0.00  0.00    -0.290 N 
ATOM     25  C   UNL     1      -6.715  -9.374  -0.057  0.00  0.00    +0.247 C 
ATOM     26  O   UNL     1      -5.556  -9.698   0.115  0.00  0.00    -0.270 OA
BRANCH  25  27
ATOM     27  C   UNL     1      -7.034  -8.070  -0.675  0.00  0.00    +0.039 A 
ATOM     28  C   UNL     1      -6.431  -6.903  -0.201  0.00  0.00    +0.013 A 
ATOM     29  C   UNL     1      -6.733  -5.689  -0.782  0.00  0.00    +0.003 A 
ATOM     30  C   UNL     1      -7.632  -5.626  -1.833  0.00  0.00    +0.033 A 
ATOM     31  C   UNL     1      -8.233  -6.778  -2.307  0.00  0.00    +0.127 A 
ATOM     32  C   UNL     1      -7.935  -8.000  -1.738  0.00  0.00    +0.045 A 
BRANCH  31  33
ATOM     33  N   UNL     1      -9.194  -6.701  -3.430  0.00  0.00    +0.056 N 
ATOM     34  O   UNL     1      -9.452  -5.633  -3.933  0.00  0.00    -0.126 OA
ATOM     35  O   UNL     1      -9.720  -7.707  -3.845  0.00  0.00    -0.126 OA
ENDBRANCH  31  33
ENDBRANCH  25  27
BRANCH  24  36
ATOM     36  C   UNL     1      -8.917  -9.664   0.945  0.00  0.00    +0.077 C 
ATOM     37  C   UNL     1      -9.939 -10.665   1.488  0.00  0.00    +0.024 C 
ATOM     38  C   UNL     1     -10.246  -9.873   0.216  0.00  0.00    +0.024 C 
ENDBRANCH  24  36
ENDBRANCH  23  24
ENDBRANCH   2  23
TORSDOF 8
