REMARK  Name = ZINC63807939
REMARK  5 active torsions:
REMARK  status: ('A' for Active; 'I' for Inactive)
REMARK    1  A    between atoms: C_1  and  C_2
REMARK    2  A    between atoms: C_4  and  C_15
REMARK    3  A    between atoms: C_18  and  O_21
REMARK    4  A    between atoms: O_21  and  C_22
REMARK    5  A    between atoms: C_22  and  C_23
REMARK                            x       y       z     vdW  Elec       q    Type
REMARK                         _______ _______ _______ _____ _____    ______ ____
ROOT
ATOM      1  C   UNL     1      -0.018   1.503   0.010  0.00  0.00    +0.067 C 
ATOM      2  C   UNL     1       0.002  -0.004   0.002  0.00  0.00    +0.064 C 
ATOM      3  C   UNL     1      -1.069  -0.775   0.003  0.00  0.00    +0.014 C 
ATOM      4  C   UNL     1      -2.536  -0.409   0.110  0.00  0.00    +0.108 C 
ATOM      5  S   UNL     1      -3.483  -1.750  -0.690  0.00  0.00    -0.139 S 
ATOM      6  C   UNL     1      -3.465  -3.099   0.510  0.00  0.00    +0.165 C 
ATOM      7  C   UNL     1      -2.268  -3.237   1.336  0.00  0.00    +0.225 C 
ATOM      8  O   UNL     1      -2.463  -3.759   2.413  0.00  0.00    -0.275 OA
ATOM      9  N   UNL     1      -1.017  -2.895   1.119  0.00  0.00    -0.288 N 
ATOM     10  C   UNL     1      -0.539  -2.189  -0.060  0.00  0.00    +0.244 C 
ATOM     11  N   UNL     1       0.916  -1.986  -0.024  0.00  0.00    -0.160 NA
ATOM     12  N   UNL     1       1.125  -0.766  -0.013  0.00  0.00    -0.157 NA
ATOM     13  H   UNL     1      -0.364  -3.131   1.795  0.00  0.00    +0.151 HD
ENDROOT
BRANCH   4  14
ATOM     14  C   UNL     1      -2.794   0.896  -0.597  0.00  0.00    -0.030 A 
ATOM     15  C   UNL     1      -2.530   1.012  -1.949  0.00  0.00    +0.008 A 
ATOM     16  C   UNL     1      -2.764   2.208  -2.600  0.00  0.00    +0.046 A 
ATOM     17  C   UNL     1      -3.266   3.293  -1.895  0.00  0.00    +0.121 A 
ATOM     18  C   UNL     1      -3.530   3.174  -0.539  0.00  0.00    +0.046 A 
ATOM     19  C   UNL     1      -3.299   1.974   0.106  0.00  0.00    +0.008 A 
BRANCH  17  20
ATOM     20  O   UNL     1      -3.497   4.471  -2.533  0.00  0.00    -0.483 OA
BRANCH  20  21
ATOM     21  C   UNL     1      -4.014   5.545  -1.745  0.00  0.00    +0.324 C 
BRANCH  21  22
ATOM     22  C   UNL     1      -4.205   6.760  -2.615  0.00  0.00    +0.248 C 
ATOM     23  O   UNL     1      -3.926   6.711  -3.795  0.00  0.00    -0.272 OA
ATOM     24  N   UNL     1      -4.686   7.901  -2.083  0.00  0.00    -0.327 N 
ATOM     25  H   UNL     1      -4.908   7.940  -1.140  0.00  0.00    +0.145 HD
ATOM     26  H   UNL     1      -4.809   8.684  -2.644  0.00  0.00    +0.145 HD
ENDBRANCH  21  22
ENDBRANCH  20  21
ENDBRANCH  17  20
ENDBRANCH   4  14
TORSDOF 4
