REMARK  Name = ZINC03643688
REMARK  10 active torsions:
REMARK  status: ('A' for Active; 'I' for Inactive)
REMARK    1  A    between atoms: C_1  and  C_2
REMARK    2  A    between atoms: C_8  and  C_23
REMARK    3  A    between atoms: C_26  and  O_31
REMARK    4  A    between atoms: C_27  and  O_29
REMARK    5  A    between atoms: O_29  and  C_30
REMARK    6  A    between atoms: O_31  and  C_32
REMARK    7  A    between atoms: C_32  and  C_33
REMARK    8  A    between atoms: C_33  and  C_34
REMARK    9  A    between atoms: C_34  and  C_35
REMARK   10  A    between atoms: C_34  and  C_36
REMARK                            x       y       z     vdW  Elec       q    Type
REMARK                         _______ _______ _______ _____ _____    ______ ____
ROOT
ATOM      1  C   UNL     1      -8.918   3.906   0.066  0.00  0.00    +0.075 C 
ATOM      2  C   UNL     1      -7.498   3.400   0.056  0.00  0.00    +0.101 A 
ATOM      3  N   UNL     1      -7.040   2.164   0.047  0.00  0.00    -0.145 NA
ATOM      4  N   UNL     1      -5.805   1.906   0.034  0.00  0.00    -0.125 NA
ATOM      5  C   UNL     1      -4.890   2.865   0.041  0.00  0.00    +0.191 A 
ATOM      6  S   UNL     1      -5.954   4.306   0.053  0.00  0.00    -0.035 S 
ATOM      7  N   UNL     1      -3.504   2.779   0.033  0.00  0.00    -0.230 N 
ATOM      8  C   UNL     1      -2.717   1.540   0.023  0.00  0.00    +0.152 C 
ATOM      9  C   UNL     1      -1.272   1.966   0.019  0.00  0.00    +0.072 A 
ATOM     10  C   UNL     1      -0.014   1.214   0.009  0.00  0.00    +0.199 A 
ATOM     11  O   UNL     1       0.002  -0.004   0.002  0.00  0.00    -0.287 OA
ATOM     12  C   UNL     1       1.231   2.006   0.001  0.00  0.00    +0.064 A 
ATOM     13  C   UNL     1       2.483   1.393  -0.014  0.00  0.00    +0.015 A 
ATOM     14  C   UNL     1       3.613   2.163  -0.020  0.00  0.00    +0.001 A 
ATOM     15  C   UNL     1       3.518   3.548  -0.013  0.00  0.00    +0.004 A 
ATOM     16  C   UNL     1       2.289   4.171   0.003  0.00  0.00    +0.047 A 
ATOM     17  C   UNL     1       1.125   3.408   0.010  0.00  0.00    +0.139 A 
ATOM     18  O   UNL     1      -0.083   4.000   0.025  0.00  0.00    -0.450 OA
ATOM     19  C   UNL     1      -1.248   3.322   0.033  0.00  0.00    +0.199 A 
ATOM     20  C   UNL     1      -2.647   3.814   0.049  0.00  0.00    +0.289 C 
ATOM     21  O   UNL     1      -2.972   4.985   0.059  0.00  0.00    -0.266 OA
ENDROOT
BRANCH   8  22
ATOM     22  C   UNL     1      -3.025   0.739  -1.216  0.00  0.00    -0.018 A 
ATOM     23  C   UNL     1      -3.264   1.386  -2.414  0.00  0.00    +0.009 A 
ATOM     24  C   UNL     1      -3.546   0.656  -3.553  0.00  0.00    +0.050 A 
ATOM     25  C   UNL     1      -3.591  -0.728  -3.496  0.00  0.00    +0.162 A 
ATOM     26  C   UNL     1      -3.351  -1.379  -2.290  0.00  0.00    +0.162 A 
ATOM     27  C   UNL     1      -3.063  -0.642  -1.153  0.00  0.00    +0.055 A 
BRANCH  26  28
ATOM     28  O   UNL     1      -3.394  -2.737  -2.229  0.00  0.00    -0.491 OA
ATOM     29  C   UNL     1      -3.137  -3.338  -0.958  0.00  0.00    +0.277 C 
ENDBRANCH  26  28
BRANCH  25  30
ATOM     30  O   UNL     1      -3.869  -1.447  -4.616  0.00  0.00    -0.488 OA
BRANCH  30  31
ATOM     31  C   UNL     1      -4.104  -0.712  -5.819  0.00  0.00    +0.229 C 
BRANCH  31  32
ATOM     32  C   UNL     1      -4.397  -1.684  -6.963  0.00  0.00    +0.044 C 
BRANCH  32  33
ATOM     33  C   UNL     1      -4.649  -0.896  -8.250  0.00  0.00    -0.014 C 
ATOM     34  C   UNL     1      -4.818  -1.870  -9.418  0.00  0.00    +0.007 C 
ATOM     35  C   UNL     1      -5.920  -0.059  -8.095  0.00  0.00    +0.007 C 
ENDBRANCH  32  33
ENDBRANCH  31  32
ENDBRANCH  30  31
ENDBRANCH  25  30
ENDBRANCH   8  22
TORSDOF 6
