REMARK  Name = ZINC06832007
REMARK  4 active torsions:
REMARK  status: ('A' for Active; 'I' for Inactive)
REMARK    1  A    between atoms: C_1  and  C_2
REMARK    2  A    between atoms: N_11  and  C_12
REMARK    3  A    between atoms: C_12  and  C_13
REMARK    4  A    between atoms: N_15  and  N_16
REMARK                            x       y       z     vdW  Elec       q    Type
REMARK                         _______ _______ _______ _____ _____    ______ ____
ROOT
ATOM      1  C   UNL     1      -1.756  -1.164  -1.199  0.00  0.00    +0.247 C 
ATOM      2  O   UNL     1      -1.349  -0.757  -2.267  0.00  0.00    -0.273 OA
ATOM      3  N   UNL     1      -0.990  -1.044  -0.097  0.00  0.00    -0.222 N 
ATOM      4  H   UNL     1      -1.315  -1.370   0.757  0.00  0.00    +0.174 HD
ENDROOT
BRANCH   3   5
ATOM      5  N   UNL     1       0.276  -0.450  -0.184  0.00  0.00    -0.137 N 
ATOM      6  C   UNL     1       1.439  -1.133  -0.148  0.00  0.00    +0.263 C 
ATOM      7  O   UNL     1       1.582  -2.332  -0.038  0.00  0.00    -0.271 OA
ATOM      8  C   UNL     1       2.525  -0.089  -0.274  0.00  0.00    +0.114 C 
ATOM      9  C   UNL     1       3.351  -0.331  -1.532  0.00  0.00    +0.035 C 
ATOM     10  C   UNL     1       4.426   0.752  -1.656  0.00  0.00    +0.003 C 
ATOM     11  C   UNL     1       5.326   0.719  -0.420  0.00  0.00    +0.000 C 
ATOM     12  C   UNL     1       4.487   0.988   0.831  0.00  0.00    +0.003 C 
ATOM     13  C   UNL     1       3.413  -0.095   0.965  0.00  0.00    +0.035 C 
ATOM     14  N   UNL     1       1.790   1.179  -0.376  0.00  0.00    -0.284 N 
ATOM     15  C   UNL     1       0.481   0.867  -0.314  0.00  0.00    +0.326 C 
ATOM     16  O   UNL     1      -0.413   1.688  -0.375  0.00  0.00    -0.251 OA
ATOM     17  H   UNL     1       2.172   2.065  -0.469  0.00  0.00    +0.151 HD
ENDBRANCH   3   5
BRANCH   1  18
ATOM     18  C   UNL     1      -3.117  -1.803  -1.105  0.00  0.00    +0.202 C 
BRANCH  18  28
ATOM     19  C   UNL     1      -4.331   0.533  -1.441  0.00  0.00    +0.028 C 
ATOM     20  C   UNL     1      -4.098  -0.275  -2.719  0.00  0.00    +0.075 C 
ATOM     21  C   UNL     1      -5.399  -0.380  -3.547  0.00  0.00    +0.059 C 
ATOM     22  C   UNL     1      -6.006  -1.679  -3.056  0.00  0.00    -0.025 A 
ATOM     23  C   UNL     1      -7.279  -2.196  -3.171  0.00  0.00    +0.005 A 
ATOM     24  C   UNL     1      -7.581  -3.427  -2.617  0.00  0.00    +0.000 A 
ATOM     25  C   UNL     1      -6.603  -4.139  -1.947  0.00  0.00    +0.002 A 
ATOM     26  C   UNL     1      -5.327  -3.628  -1.832  0.00  0.00    +0.023 A 
ATOM     27  C   UNL     1      -5.015  -2.390  -2.389  0.00  0.00    +0.034 A 
ATOM     28  N   UNL     1      -3.803  -1.688  -2.399  0.00  0.00    -0.318 N 
ENDBRANCH  18  28
ENDBRANCH   1  18
TORSDOF 3
