REMARK  Name = ZINC22313475
REMARK  10 active torsions:
REMARK  status: ('A' for Active; 'I' for Inactive)
REMARK    1  A    between atoms: C_1  and  C_2
REMARK    2  A    between atoms: C_8  and  N_15
REMARK    3  A    between atoms: C_11  and  C_13
REMARK    4  A    between atoms: C_11  and  C_14
REMARK    5  A    between atoms: C_16  and  C_18
REMARK    6  A    between atoms: C_18  and  N_19
REMARK    7  A    between atoms: N_19  and  C_20
REMARK    8  A    between atoms: N_19  and  S_29
REMARK    9  A    between atoms: C_24  and  N_26
REMARK   10  A    between atoms: S_29  and  C_32
REMARK                            x       y       z     vdW  Elec       q    Type
REMARK                         _______ _______ _______ _____ _____    ______ ____
ROOT
ATOM      1  N   UNL     1       2.358   1.066   0.043  0.00  0.00    -0.194 N 
ENDROOT
BRANCH   1   2
ATOM      2  C   UNL     1       2.530   0.473  -1.210  0.00  0.00    +0.054 A 
ATOM      3  C   UNL     1       3.047  -0.813  -1.307  0.00  0.00    +0.025 A 
ATOM      4  C   UNL     1       3.211  -1.398  -2.547  0.00  0.00    +0.004 A 
ATOM      5  C   UNL     1       2.872  -0.701  -3.692  0.00  0.00    +0.033 A 
ATOM      6  C   UNL     1       2.363   0.582  -3.600  0.00  0.00    +0.128 A 
ATOM      7  C   UNL     1       2.191   1.170  -2.362  0.00  0.00    +0.057 A 
BRANCH   6   8
ATOM      8  N   UNL     1       2.001   1.324  -4.828  0.00  0.00    +0.056 N 
ATOM      9  O   UNL     1       1.553   2.453  -4.748  0.00  0.00    -0.126 OA
ATOM     10  O   UNL     1       2.153   0.805  -5.920  0.00  0.00    -0.126 OA
ENDBRANCH   6   8
ENDBRANCH   1   2
BRANCH   1  11
ATOM     11  S   UNL     1       3.304   0.596   1.318  0.00  0.00    +0.075 S 
ATOM     12  O   UNL     1       2.847   1.321   2.452  0.00  0.00    -0.150 OA
ATOM     13  O   UNL     1       3.347  -0.825   1.289  0.00  0.00    -0.150 OA
BRANCH  11  14
ATOM     14  C   UNL     1       4.941   1.157   0.988  0.00  0.00    +0.109 A 
ATOM     15  C   UNL     1       5.798   0.380   0.231  0.00  0.00    +0.029 A 
ATOM     16  C   UNL     1       7.081   0.822  -0.032  0.00  0.00    +0.002 A 
ATOM     17  C   UNL     1       7.510   2.037   0.470  0.00  0.00    +0.000 A 
ATOM     18  C   UNL     1       6.654   2.811   1.231  0.00  0.00    +0.002 A 
ATOM     19  C   UNL     1       5.370   2.371   1.490  0.00  0.00    +0.029 A 
ENDBRANCH  11  14
ENDBRANCH   1  11
BRANCH   1  20
ATOM     20  C   UNL     1       1.341   2.104   0.229  0.00  0.00    +0.227 C 
BRANCH  20  22
ATOM     21  N   UNL     1      -1.080   2.217   0.721  0.00  0.00    -0.307 N 
ATOM     22  C   UNL     1      -0.005   1.458   0.433  0.00  0.00    +0.233 C 
ATOM     23  O   UNL     1      -0.121   0.254   0.335  0.00  0.00    -0.274 OA
ATOM     24  H   UNL     1      -0.993   3.313   0.731  0.00  0.00    +0.149 HD
BRANCH  21  32
ATOM     25  C   UNL     1      -0.226   0.122   5.283  0.00  0.00    +0.044 C 
ATOM     26  C   UNL     1      -1.435   0.639   4.547  0.00  0.00    -0.050 A 
ATOM     27  C   UNL     1      -2.611   0.882   5.233  0.00  0.00    +0.007 A 
ATOM     28  C   UNL     1      -3.717   1.357   4.559  0.00  0.00    +0.046 A 
ATOM     29  C   UNL     1      -3.654   1.592   3.189  0.00  0.00    +0.126 A 
ATOM     30  C   UNL     1      -2.476   1.346   2.504  0.00  0.00    +0.015 A 
ATOM     31  C   UNL     1      -1.369   0.870   3.187  0.00  0.00    +0.012 A 
ATOM     32  C   UNL     1      -2.367   1.583   1.020  0.00  0.00    +0.111 C 
ATOM     33  C   UNL     1      -3.505   2.496   0.557  0.00  0.00    +0.074 C 
ATOM     34  C   UNL     1      -4.819   1.959   1.138  0.00  0.00    +0.107 C 
ATOM     35  O   UNL     1      -4.761   2.067   2.561  0.00  0.00    -0.486 OA
ATOM     36  C   UNL     1      -4.997   0.492   0.740  0.00  0.00    +0.055 C 
ATOM     37  C   UNL     1      -5.993   2.784   0.606  0.00  0.00    +0.055 C 
ENDBRANCH  21  32
ENDBRANCH  20  22
ENDBRANCH   1  20
TORSDOF 7
