REMARK  Name = ZINC67000412
REMARK  7 active torsions:
REMARK  status: ('A' for Active; 'I' for Inactive)
REMARK    1  A    between atoms: C_1  and  C_2
REMARK    2  A    between atoms: C_3  and  N_11
REMARK    3  A    between atoms: C_7  and  N_8
REMARK    4  A    between atoms: C_12  and  C_14
REMARK    5  A    between atoms: N_16  and  C_17
REMARK    6  A    between atoms: C_17  and  C_18
REMARK    7  A    between atoms: C_18  and  O_28
REMARK                            x       y       z     vdW  Elec       q    Type
REMARK                         _______ _______ _______ _____ _____    ______ ____
ROOT
ATOM      1  C   UNL     1      -1.005  -0.178  -4.704  0.00  0.00    +0.299 C 
ATOM      2  O   UNL     1      -0.969   1.034  -4.746  0.00  0.00    -0.265 OA
ATOM      3  N   UNL     1      -1.085  -0.890  -5.845  0.00  0.00    -0.305 N 
ATOM      4  H   UNL     1      -1.114  -1.859  -5.811  0.00  0.00    +0.149 HD
ENDROOT
BRANCH   1   6
ATOM      5  N   UNL     1      -0.880  -0.168  -2.245  0.00  0.00    -0.277 N 
ATOM      6  C   UNL     1      -0.961  -0.881  -3.387  0.00  0.00    +0.303 C 
ATOM      7  O   UNL     1      -0.997  -2.093  -3.344  0.00  0.00    -0.265 OA
ATOM      8  H   UNL     1      -0.772   0.795  -2.281  0.00  0.00    +0.155 HD
BRANCH   5  11
ATOM      9  C   UNL     1      -2.133   1.194  -0.084  0.00  0.00    +0.048 C 
ATOM     10  C   UNL     1      -1.556  -0.189   0.072  0.00  0.00    +0.001 A 
ATOM     11  C   UNL     1      -0.953  -0.818  -1.010  0.00  0.00    +0.039 A 
ATOM     12  C   UNL     1      -0.422  -2.093  -0.862  0.00  0.00    +0.024 A 
ATOM     13  C   UNL     1      -0.496  -2.732   0.360  0.00  0.00    +0.004 A 
ATOM     14  C   UNL     1      -1.097  -2.104   1.436  0.00  0.00    +0.033 A 
ATOM     15  C   UNL     1      -1.621  -0.832   1.293  0.00  0.00    +0.131 A 
BRANCH  15  16
ATOM     16  N   UNL     1      -2.258  -0.161   2.448  0.00  0.00    +0.057 N 
ATOM     17  O   UNL     1      -2.256   1.046   2.523  0.00  0.00    -0.126 OA
ATOM     18  O   UNL     1      -2.780  -0.819   3.318  0.00  0.00    -0.126 OA
ENDBRANCH  15  16
ENDBRANCH   5  11
ENDBRANCH   1   6
BRANCH   3  19
ATOM     19  C   UNL     1      -1.129  -0.201  -7.137  0.00  0.00    +0.144 C 
BRANCH  19  20
ATOM     20  C   UNL     1      -1.337  -1.225  -8.255  0.00  0.00    +0.107 C 
ATOM     21  C   UNL     1      -0.199  -2.243  -8.224  0.00  0.00    +0.041 C 
ATOM     22  C   UNL     1      -0.304  -3.124  -9.474  0.00  0.00    +0.008 C 
ATOM     23  C   UNL     1       0.058  -2.277 -10.692  0.00  0.00    +0.035 C 
ATOM     24  C   UNL     1      -0.736  -0.997 -10.701  0.00  0.00    -0.041 A 
ATOM     25  C   UNL     1      -1.374  -0.512  -9.581  0.00  0.00    -0.011 A 
ATOM     26  C   UNL     1      -2.085   0.679  -9.656  0.00  0.00    +0.007 A 
ATOM     27  C   UNL     1      -2.160   1.377 -10.844  0.00  0.00    +0.000 A 
ATOM     28  C   UNL     1      -1.524   0.888 -11.969  0.00  0.00    +0.000 A 
ATOM     29  C   UNL     1      -0.815  -0.294 -11.896  0.00  0.00    +0.004 A 
BRANCH  20  30
ATOM     30  O   UNL     1      -2.579  -1.901  -8.049  0.00  0.00    -0.382 OA
ATOM     31  H   UNL     1      -3.349  -1.317  -8.047  0.00  0.00    +0.211 HD
ENDBRANCH  20  30
ENDBRANCH  19  20
ENDBRANCH   3  19
TORSDOF 6
