REMARK  Name = ZINC11363455
REMARK  8 active torsions:
REMARK  status: ('A' for Active; 'I' for Inactive)
REMARK    1  A    between atoms: C_1  and  C_2
REMARK    2  A    between atoms: C_2  and  C_4
REMARK    3  A    between atoms: C_2  and  S_17
REMARK    4  A    between atoms: N_6  and  C_7
REMARK    5  A    between atoms: C_10  and  N_14
REMARK    6  A    between atoms: S_17  and  C_18
REMARK    7  A    between atoms: N_28  and  C_29
REMARK    8  A    between atoms: C_29  and  C_30
REMARK                            x       y       z     vdW  Elec       q    Type
REMARK                         _______ _______ _______ _____ _____    ______ ____
ROOT
ATOM      1  S   UNL     1      -0.870   2.107  -1.460  0.00  0.00    -0.075 S 
ENDROOT
BRANCH   1   2
ATOM      2  C   UNL     1      -0.864   3.838  -1.128  0.00  0.00    +0.173 A 
ATOM      3  N   UNL     1      -0.304   4.259  -0.021  0.00  0.00    -0.223 NA
ATOM      4  C   UNL     1      -0.260   5.569   0.294  0.00  0.00    +0.079 A 
ATOM      5  C   UNL     1       0.342   6.019   1.473  0.00  0.00    +0.028 A 
ATOM      6  C   UNL     1       0.359   7.356   1.756  0.00  0.00    +0.002 A 
ATOM      7  C   UNL     1      -0.212   8.278   0.887  0.00  0.00    +0.001 A 
ATOM      8  C   UNL     1      -0.808   7.868  -0.273  0.00  0.00    +0.015 A 
ATOM      9  C   UNL     1      -0.841   6.510  -0.587  0.00  0.00    +0.065 A 
ATOM     10  C   UNL     1      -1.467   6.012  -1.819  0.00  0.00    +0.262 A 
ATOM     11  O   UNL     1      -1.983   6.773  -2.617  0.00  0.00    -0.267 OA
ATOM     12  N   UNL     1      -1.448   4.676  -2.034  0.00  0.00    -0.285 N 
BRANCH  12  13
ATOM     13  C   UNL     1      -2.058   4.126  -3.247  0.00  0.00    +0.159 C 
BRANCH  13  14
ATOM     14  C   UNL     1      -3.529   3.805  -2.977  0.00  0.00    +0.138 C 
ATOM     15  C   UNL     1      -4.176   3.155  -4.227  0.00  0.00    +0.035 C 
ATOM     16  C   UNL     1      -5.341   2.361  -3.576  0.00  0.00    +0.031 C 
ATOM     17  C   UNL     1      -4.731   1.931  -2.225  0.00  0.00    +0.160 C 
ATOM     18  O   UNL     1      -3.642   2.817  -1.940  0.00  0.00    -0.375 OA
ENDBRANCH  13  14
ENDBRANCH  12  13
ENDBRANCH   1   2
BRANCH   1  20
ATOM     19  C   UNL     1       1.439   2.021  -0.002  0.00  0.00    +0.029 C 
ATOM     20  C   UNL     1      -0.000   1.502   0.008  0.00  0.00    +0.137 C 
BRANCH  20  21
ATOM     21  C   UNL     1       0.009  -0.004   0.001  0.00  0.00    +0.230 C 
ATOM     22  O   UNL     1      -0.088  -0.607  -1.047  0.00  0.00    -0.274 OA
ATOM     23  N   UNL     1       0.124  -0.683   1.160  0.00  0.00    -0.283 N 
ATOM     24  H   UNL     1       0.267  -0.203   1.991  0.00  0.00    +0.155 HD
BRANCH  23  25
ATOM     25  C   UNL     1       0.038  -2.080   1.165  0.00  0.00    +0.052 A 
ATOM     26  C   UNL     1       0.539  -2.812   0.096  0.00  0.00    +0.027 A 
ATOM     27  C   UNL     1       0.452  -4.190   0.104  0.00  0.00    +0.034 A 
ATOM     28  C   UNL     1      -0.132  -4.842   1.174  0.00  0.00    +0.128 A 
ATOM     29  C   UNL     1      -0.632  -4.117   2.240  0.00  0.00    +0.054 A 
ATOM     30  C   UNL     1      -0.543  -2.738   2.242  0.00  0.00    +0.064 A 
ATOM     31 CL   UNL     1      -1.165  -1.829   3.584  0.00  0.00    -0.082 Cl
BRANCH  28  32
ATOM     32  N   UNL     1      -0.222  -6.320   1.179  0.00  0.00    +0.056 N 
ATOM     33  O   UNL     1       0.218  -6.960   0.240  0.00  0.00    -0.126 OA
ATOM     34  O   UNL     1      -0.736  -6.896   2.121  0.00  0.00    -0.126 OA
ENDBRANCH  28  32
ENDBRANCH  23  25
ENDBRANCH  20  21
ENDBRANCH   1  20
TORSDOF 7
