REMARK  Name = ZINC03255047
REMARK  10 active torsions:
REMARK  status: ('A' for Active; 'I' for Inactive)
REMARK    1  A    between atoms: C_1  and  N_2
REMARK    2  A    between atoms: C_3  and  N_32
REMARK    3  A    between atoms: C_4  and  C_11
REMARK    4  A    between atoms: N_7  and  C_10
REMARK    5  A    between atoms: C_11  and  C_13
REMARK    6  A    between atoms: C_13  and  S_14
REMARK    7  A    between atoms: S_14  and  C_15
REMARK    8  A    between atoms: N_23  and  C_24
REMARK    9  A    between atoms: C_27  and  O_30
REMARK   10  A    between atoms: O_30  and  C_31
REMARK                            x       y       z     vdW  Elec       q    Type
REMARK                         _______ _______ _______ _____ _____    ______ ____
ROOT
ATOM      1  S   UNL     1      -4.316  -4.606   0.126  0.00  0.00    -0.079 S 
ENDROOT
BRANCH   1   2
ATOM      2  C   UNL     1      -4.255  -6.362   0.262  0.00  0.00    +0.175 A 
ATOM      3  N   UNL     1      -3.158  -7.073   0.350  0.00  0.00    -0.222 NA
ATOM      4  C   UNL     1      -3.474  -8.392   0.441  0.00  0.00    +0.091 A 
ATOM      5  C   UNL     1      -2.710  -9.556   0.553  0.00  0.00    +0.030 A 
ATOM      6  C   UNL     1      -3.336 -10.780   0.626  0.00  0.00    +0.002 A 
ATOM      7  C   UNL     1      -4.719 -10.867   0.589  0.00  0.00    +0.002 A 
ATOM      8  C   UNL     1      -5.489  -9.727   0.477  0.00  0.00    +0.028 A 
ATOM      9  C   UNL     1      -4.876  -8.486   0.403  0.00  0.00    +0.074 A 
ATOM     10  N   UNL     1      -5.347  -7.186   0.295  0.00  0.00    -0.287 N 
BRANCH  10  11
ATOM     11  C   UNL     1      -6.691  -6.791   0.230  0.00  0.00    +0.049 A 
ATOM     12  C   UNL     1      -7.528  -6.993   1.319  0.00  0.00    +0.030 A 
ATOM     13  C   UNL     1      -8.851  -6.603   1.255  0.00  0.00    +0.047 A 
ATOM     14  C   UNL     1      -9.344  -6.009   0.102  0.00  0.00    +0.120 A 
ATOM     15  C   UNL     1      -8.509  -5.807  -0.986  0.00  0.00    +0.047 A 
ATOM     16  C   UNL     1      -7.184  -6.192  -0.921  0.00  0.00    +0.030 A 
BRANCH  14  17
ATOM     17  O   UNL     1     -10.647  -5.626   0.039  0.00  0.00    -0.495 OA
ATOM     18  C   UNL     1     -11.087  -5.021  -1.178  0.00  0.00    +0.277 C 
ENDBRANCH  14  17
ENDBRANCH  10  11
ENDBRANCH   1   2
BRANCH   1  19
ATOM     19  C   UNL     1      -2.572  -4.105   0.134  0.00  0.00    +0.157 C 
BRANCH  19  20
ATOM     20  C   UNL     1      -2.480  -2.605   0.022  0.00  0.00    +0.182 C 
ATOM     21  O   UNL     1      -3.493  -1.938  -0.055  0.00  0.00    -0.291 OA
BRANCH  20  25
ATOM     22  C   UNL     1       0.265   1.450   0.033  0.00  0.00    +0.155 C 
ATOM     23  N   UNL     1       0.138  -0.010   0.013  0.00  0.00    -0.284 N 
ATOM     24  C   UNL     1      -1.106  -0.574   0.028  0.00  0.00    +0.116 A 
ATOM     25  C   UNL     1      -1.218  -1.975   0.008  0.00  0.00    +0.120 A 
ATOM     26  C   UNL     1       0.022  -2.762  -0.028  0.00  0.00    +0.269 A 
ATOM     27  O   UNL     1      -0.015  -3.978  -0.047  0.00  0.00    -0.267 OA
ATOM     28  N   UNL     1       1.202  -2.108  -0.040  0.00  0.00    -0.263 N 
ATOM     29  C   UNL     1       1.246  -0.766  -0.025  0.00  0.00    +0.333 A 
ATOM     30  O   UNL     1       2.330  -0.216  -0.042  0.00  0.00    -0.246 OA
ATOM     31  C   UNL     1       2.451  -2.872  -0.076  0.00  0.00    +0.157 C 
BRANCH  24  32
ATOM     32  N   UNL     1      -2.219   0.208   0.062  0.00  0.00    -0.344 N 
ATOM     33  H   UNL     1      -2.134   1.170   0.156  0.00  0.00    +0.144 HD
ATOM     34  H   UNL     1      -3.098  -0.196  -0.009  0.00  0.00    +0.144 HD
ENDBRANCH  24  32
ENDBRANCH  20  25
ENDBRANCH  19  20
ENDBRANCH   1  19
TORSDOF 7
