REMARK  Name = ZINC41236369
REMARK  9 active torsions:
REMARK  status: ('A' for Active; 'I' for Inactive)
REMARK    1  A    between atoms: C_1  and  C_2
REMARK    2  A    between atoms: C_2  and  C_4
REMARK    3  A    between atoms: C_2  and  N_13
REMARK    4  A    between atoms: C_14  and  C_16
REMARK    5  A    between atoms: N_18  and  C_19
REMARK    6  A    between atoms: C_22  and  C_25
REMARK    7  A    between atoms: C_25  and  C_26
REMARK    8  A    between atoms: C_25  and  C_27
REMARK    9  A    between atoms: C_25  and  C_28
REMARK                            x       y       z     vdW  Elec       q    Type
REMARK                         _______ _______ _______ _____ _____    ______ ____
ROOT
ATOM      1  N   UNL     1       0.710  -0.494   1.187  0.00  0.00    -0.301 N 
ATOM      2  C   UNL     1       2.053  -0.606   1.171  0.00  0.00    +0.300 C 
ATOM      3  O   UNL     1       2.675  -0.312   0.172  0.00  0.00    -0.265 OA
ATOM      4  H   UNL     1       0.213  -0.729   1.986  0.00  0.00    +0.150 HD
ENDROOT
BRANCH   2   5
ATOM      5  C   UNL     1       2.776  -1.093   2.384  0.00  0.00    +0.303 C 
ATOM      6  O   UNL     1       2.154  -1.387   3.384  0.00  0.00    -0.265 OA
ATOM      7  N   UNL     1       4.119  -1.205   2.369  0.00  0.00    -0.278 N 
ATOM      8  H   UNL     1       4.611  -1.034   1.550  0.00  0.00    +0.155 HD
BRANCH   7   9
ATOM      9  C   UNL     1       4.804  -1.567   3.531  0.00  0.00    +0.034 A 
ATOM     10  C   UNL     1       6.054  -1.024   3.801  0.00  0.00    +0.023 A 
ATOM     11  C   UNL     1       6.727  -1.385   4.952  0.00  0.00    +0.006 A 
ATOM     12  C   UNL     1       6.159  -2.285   5.835  0.00  0.00    -0.042 A 
ATOM     13  C   UNL     1       4.915  -2.828   5.569  0.00  0.00    +0.006 A 
ATOM     14  C   UNL     1       4.233  -2.467   4.423  0.00  0.00    +0.023 A 
BRANCH  12  15
ATOM     15  C   UNL     1       6.897  -2.676   7.089  0.00  0.00    -0.013 C 
ATOM     16  C   UNL     1       7.150  -1.430   7.941  0.00  0.00    +0.015 C 
ATOM     17  C   UNL     1       6.057  -3.676   7.885  0.00  0.00    +0.015 C 
ATOM     18  C   UNL     1       8.235  -3.318   6.715  0.00  0.00    +0.015 C 
ENDBRANCH  12  15
ENDBRANCH   7   9
ENDBRANCH   2   5
BRANCH   1  20
ATOM     19  C   UNL     1      -0.017   1.514  -0.006  0.00  0.00    +0.033 C 
ATOM     20  C   UNL     1       0.001  -0.016  -0.003  0.00  0.00    +0.101 C 
BRANCH  20  21
ATOM     21  C   UNL     1      -1.413  -0.536   0.013  0.00  0.00    -0.024 A 
ATOM     22  C   UNL     1      -2.122  -0.571   1.200  0.00  0.00    +0.009 A 
ATOM     23  C   UNL     1      -3.420  -1.046   1.219  0.00  0.00    +0.050 A 
ATOM     24  C   UNL     1      -4.014  -1.489   0.049  0.00  0.00    +0.166 A 
ATOM     25  C   UNL     1      -3.300  -1.454  -1.147  0.00  0.00    +0.167 A 
ATOM     26  C   UNL     1      -2.001  -0.971  -1.160  0.00  0.00    +0.055 A 
ATOM     27  O   UNL     1      -4.095  -1.939  -2.144  0.00  0.00    -0.453 OA
ATOM     28  C   UNL     1      -5.156  -2.650  -1.479  0.00  0.00    +0.466 C 
ATOM     29  O   UNL     1      -5.256  -1.996  -0.200  0.00  0.00    -0.453 OA
ENDBRANCH  20  21
ENDBRANCH   1  20
TORSDOF 5
