REMARK  Name = ZINC29650466
REMARK  7 active torsions:
REMARK  status: ('A' for Active; 'I' for Inactive)
REMARK    1  A    between atoms: C_1  and  C_2
REMARK    2  A    between atoms: C_5  and  C_27
REMARK    3  A    between atoms: C_10  and  C_12
REMARK    4  A    between atoms: C_17  and  N_18
REMARK    5  A    between atoms: N_18  and  C_19
REMARK    6  A    between atoms: C_19  and  C_20
REMARK    7  A    between atoms: N_25  and  C_26
REMARK                            x       y       z     vdW  Elec       q    Type
REMARK                         _______ _______ _______ _____ _____    ______ ____
ROOT
ATOM      1  C   UNL     1       1.261   2.082   0.220  0.00  0.00    +0.058 A 
ATOM      2  C   UNL     1       2.429   1.385  -0.101  0.00  0.00    +0.015 A 
ATOM      3  C   UNL     1       2.381   0.025  -0.315  0.00  0.00    +0.001 A 
ATOM      4  C   UNL     1       1.179  -0.658  -0.215  0.00  0.00    +0.002 A 
ATOM      5  C   UNL     1       0.017   0.016   0.101  0.00  0.00    +0.024 A 
ATOM      6  C   UNL     1       0.045   1.388   0.321  0.00  0.00    +0.040 A 
ENDROOT
BRANCH   1  14
ATOM      7  C   UNL     1       2.453   4.157  -4.189  0.00  0.00    +0.009 C 
ATOM      8  C   UNL     1       1.829   4.617  -2.870  0.00  0.00    +0.004 C 
ATOM      9  C   UNL     1       2.131   6.101  -2.651  0.00  0.00    +0.009 C 
ATOM     10  C   UNL     1       1.480   6.570  -1.349  0.00  0.00    +0.004 C 
ATOM     11  C   UNL     1       2.066   5.779  -0.175  0.00  0.00    +0.111 C 
ATOM     12  N   UNL     1       1.908   4.343  -0.447  0.00  0.00    -0.297 N 
ATOM     13  C   UNL     1       2.424   3.803  -1.711  0.00  0.00    +0.111 C 
ATOM     14  C   UNL     1       1.306   3.537   0.450  0.00  0.00    +0.248 C 
ATOM     15  O   UNL     1       0.799   4.011   1.449  0.00  0.00    -0.270 OA
ATOM     16  C   UNL     1      -0.031   6.334  -1.420  0.00  0.00    +0.009 C 
ENDBRANCH   1  14
BRANCH   6  17
ATOM     17  N   UNL     1      -1.124   2.069   0.633  0.00  0.00    -0.335 N 
ATOM     18  H   UNL     1      -1.115   3.166   0.717  0.00  0.00    +0.147 HD
BRANCH  17  19
ATOM     19  C   UNL     1      -2.368   1.327   0.850  0.00  0.00    +0.198 C 
BRANCH  19  20
ATOM     20  C   UNL     1      -3.479   2.293   1.172  0.00  0.00    +0.237 C 
ATOM     21  O   UNL     1      -3.254   3.484   1.215  0.00  0.00    -0.274 OA
ATOM     22  N   UNL     1      -4.723   1.834   1.411  0.00  0.00    -0.239 N 
ATOM     23  C   UNL     1      -5.717   2.698   1.699  0.00  0.00    +0.306 C 
ATOM     24  O   UNL     1      -5.491   3.891   1.742  0.00  0.00    -0.252 OA
ATOM     25  N   UNL     1      -6.961   2.239   1.938  0.00  0.00    -0.302 N 
ATOM     26  C   UNL     1      -8.041   3.178   2.251  0.00  0.00    +0.129 C 
ATOM     27  H   UNL     1      -4.928   0.754   1.372  0.00  0.00    +0.159 HD
ATOM     28  H   UNL     1      -7.166   1.158   1.899  0.00  0.00    +0.150 HD
ENDBRANCH  19  20
ENDBRANCH  17  19
ENDBRANCH   6  17
TORSDOF 4
