REMARK  Name = ZINC28935747
REMARK  5 active torsions:
REMARK  status: ('A' for Active; 'I' for Inactive)
REMARK    1  A    between atoms: C_5  and  N_22
REMARK    2  A    between atoms: C_6  and  N_7
REMARK    3  A    between atoms: C_8  and  C_10
REMARK    4  A    between atoms: C_10  and  N_11
REMARK    5  A    between atoms: C_15  and  C_18
REMARK                            x       y       z     vdW  Elec       q    Type
REMARK                         _______ _______ _______ _____ _____    ______ ____
ROOT
ATOM      1  N   UNL     1      -0.708   0.898  -4.815  0.00  0.00    -0.285 N 
ATOM      2  C   UNL     1      -1.037   1.325  -3.579  0.00  0.00    +0.201 C 
ATOM      3  O   UNL     1      -2.047   1.975  -3.412  0.00  0.00    -0.278 OA
ATOM      4  H   UNL     1       0.252   0.388  -4.983  0.00  0.00    +0.155 HD
ENDROOT
BRANCH   1  10
ATOM      5  C   UNL     1      -2.949   1.244  -5.646  0.00  0.00    +0.052 A 
ATOM      6  C   UNL     1      -3.816   1.448  -6.707  0.00  0.00    +0.078 A 
ATOM      7  C   UNL     1      -3.322   1.512  -8.009  0.00  0.00    +0.145 A 
ATOM      8  C   UNL     1      -1.965   1.373  -8.242  0.00  0.00    +0.082 A 
ATOM      9  C   UNL     1      -1.099   1.174  -7.182  0.00  0.00    +0.151 A 
ATOM     10  C   UNL     1      -1.589   1.104  -5.885  0.00  0.00    +0.066 A 
ATOM     11  O   UNL     1      -4.185   1.711  -9.042  0.00  0.00    -0.481 OA
ATOM     12  C   UNL     1      -5.494   1.153  -8.903  0.00  0.00    +0.325 C 
ATOM     13  C   UNL     1      -6.038   1.474  -7.535  0.00  0.00    +0.255 C 
ATOM     14  O   UNL     1      -7.231   1.625  -7.374  0.00  0.00    -0.272 OA
ATOM     15  N   UNL     1      -5.193   1.593  -6.488  0.00  0.00    -0.280 N 
ATOM     16  H   UNL     1      -5.570   1.800  -5.476  0.00  0.00    +0.155 HD
BRANCH   9  17
ATOM     17  N   UNL     1       0.353   1.031  -7.432  0.00  0.00    +0.058 N 
ATOM     18  O   UNL     1       0.795   1.181  -8.557  0.00  0.00    -0.126 OA
ATOM     19  O   UNL     1       1.105   0.762  -6.513  0.00  0.00    -0.126 OA
ENDBRANCH   9  17
ENDBRANCH   1  10
BRANCH   2  20
ATOM     20  C   UNL     1      -0.150   0.994  -2.407  0.00  0.00    +0.019 C 
BRANCH  20  21
ATOM     21  N   UNL     1      -0.723   1.568  -1.182  0.00  0.00    +0.386 N 
ATOM     22  C   UNL     1      -0.710   3.036  -1.233  0.00  0.00    -0.078 C 
ATOM     23  C   UNL     1      -1.443   3.597  -0.013  0.00  0.00    -0.018 C 
ATOM     24  C   UNL     1      -0.751   3.106   1.262  0.00  0.00    +0.008 C 
ATOM     25  C   UNL     1      -0.735   1.575   1.267  0.00  0.00    +0.077 C 
ATOM     26  C   UNL     1      -0.022   1.073   0.009  0.00  0.00    -0.066 C 
ATOM     27  H   UNL     1      -1.772   1.244  -1.113  0.00  0.00    -0.081 HD
BRANCH  25  28
ATOM     28  C   UNL     1       0.008   1.076   2.509  0.00  0.00    +0.391 C 
ATOM     29  F   UNL     1       1.321   1.560   2.492  0.00  0.00    -0.171 F 
ATOM     30  F   UNL     1      -0.644   1.536   3.658  0.00  0.00    -0.171 F 
ATOM     31  F   UNL     1       0.026  -0.323   2.510  0.00  0.00    -0.171 F 
ENDBRANCH  25  28
ENDBRANCH  20  21
ENDBRANCH   2  20
TORSDOF 5
