REMARK  Name = ZINC44889671
REMARK  3 active torsions:
REMARK  status: ('A' for Active; 'I' for Inactive)
REMARK    1  A    between atoms: C_1  and  C_2
REMARK    2  A    between atoms: C_9  and  O_24
REMARK    3  A    between atoms: C_12  and  C_14
REMARK                            x       y       z     vdW  Elec       q    Type
REMARK                         _______ _______ _______ _____ _____    ______ ____
ROOT
ATOM      1  C   UNL     1      -0.163   1.565  -0.025  0.00  0.00    +0.068 C 
ATOM      2  C   UNL     1      -0.141   0.058   0.005  0.00  0.00    +0.066 A 
ATOM      3  C   UNL     1      -0.170  -0.782  -1.123  0.00  0.00    +0.036 A 
ATOM      4  C   UNL     1      -0.133  -2.077  -0.679  0.00  0.00    +0.157 A 
ATOM      5  N   UNL     1      -0.091  -2.019   0.699  0.00  0.00    -0.260 N 
ATOM      6  H   UNL     1      -0.063  -2.781   1.299  0.00  0.00    +0.191 HD
ATOM      7  N   UNL     1      -0.088  -0.677   1.079  0.00  0.00    -0.177 NA
ATOM      8  N   UNL     1      -0.124  -3.251  -1.332  0.00  0.00    -0.197 NA
ATOM      9  C   UNL     1      -0.150  -3.626  -2.527  0.00  0.00    +0.199 C 
ATOM     10  C   UNL     1      -0.263  -2.832  -3.768  0.00  0.00    +0.165 C 
ATOM     11  S   UNL     1       0.645  -1.282  -3.701  0.00  0.00    -0.138 S 
ATOM     12  C   UNL     1      -0.235  -0.250  -2.522  0.00  0.00    +0.113 C 
ENDROOT
BRANCH  12  13
ATOM     13  C   UNL     1       0.364   1.133  -2.545  0.00  0.00    -0.022 A 
ATOM     14  C   UNL     1       1.700   1.303  -2.341  0.00  0.00    +0.005 A 
ATOM     15  C   UNL     1       2.272   2.573  -2.358  0.00  0.00    +0.001 A 
ATOM     16  C   UNL     1       1.512   3.681  -2.578  0.00  0.00    +0.008 A 
ATOM     17  C   UNL     1       0.130   3.545  -2.792  0.00  0.00    -0.018 A 
ATOM     18  C   UNL     1      -0.451   2.252  -2.781  0.00  0.00    -0.013 A 
ATOM     19  C   UNL     1      -1.833   2.116  -3.001  0.00  0.00    +0.009 A 
ATOM     20  C   UNL     1      -2.591   3.223  -3.226  0.00  0.00    +0.001 A 
ATOM     21  C   UNL     1      -2.019   4.494  -3.243  0.00  0.00    +0.001 A 
ATOM     22  C   UNL     1      -0.687   4.666  -3.022  0.00  0.00    +0.008 A 
ENDBRANCH  12  13
BRANCH   9  23
ATOM     23  O   UNL     1      -0.059  -4.960  -2.708  0.00  0.00    -0.495 OA
ATOM     24  H   UNL     1       0.015  -5.464  -1.886  0.00  0.00    +0.293 HD
ENDBRANCH   9  23
TORSDOF 2
