REMARK  Name = ZINC39999589
REMARK  8 active torsions:
REMARK  status: ('A' for Active; 'I' for Inactive)
REMARK    1  A    between atoms: C_1  and  C_2
REMARK    2  A    between atoms: C_2  and  S_3
REMARK    3  A    between atoms: S_3  and  C_4
REMARK    4  A    between atoms: C_10  and  C_25
REMARK    5  A    between atoms: C_12  and  C_17
REMARK    6  A    between atoms: C_17  and  C_19
REMARK    7  A    between atoms: C_22  and  C_24
REMARK    8  A    between atoms: C_28  and  O_31
REMARK                            x       y       z     vdW  Elec       q    Type
REMARK                         _______ _______ _______ _____ _____    ______ ____
ROOT
ATOM      1  C   UNL     1      -0.644  -2.335  -0.385  0.00  0.00    +0.160 A 
ATOM      2  N   UNL     1       0.306  -3.216  -0.104  0.00  0.00    -0.133 NA
ATOM      3  N   UNL     1       0.062  -4.449   0.000  0.00  0.00    -0.125 NA
ATOM      4  C   UNL     1      -1.157  -4.939  -0.165  0.00  0.00    +0.192 A 
ATOM      5  S   UNL     1      -2.056  -3.429  -0.505  0.00  0.00    -0.024 S 
ATOM      6  N   UNL     1      -1.609  -6.251  -0.091  0.00  0.00    -0.230 N 
ATOM      7  C   UNL     1      -0.790  -7.432   0.208  0.00  0.00    +0.152 C 
ATOM      8  C   UNL     1      -1.730  -8.615   0.174  0.00  0.00    +0.080 C 
ATOM      9  C   UNL     1      -2.959  -8.128  -0.118  0.00  0.00    +0.250 C 
ATOM     10  C   UNL     1      -2.877  -6.663  -0.275  0.00  0.00    +0.293 C 
ATOM     11  O   UNL     1      -3.816  -5.936  -0.534  0.00  0.00    -0.266 OA
ATOM     12  O   UNL     1      -4.087  -8.867  -0.242  0.00  0.00    -0.282 OA
ENDROOT
BRANCH   7  13
ATOM     13  C   UNL     1      -0.170  -7.301   1.575  0.00  0.00    -0.022 A 
ATOM     14  C   UNL     1      -0.941  -6.889   2.646  0.00  0.00    +0.009 A 
ATOM     15  C   UNL     1      -0.375  -6.767   3.900  0.00  0.00    +0.046 A 
ATOM     16  C   UNL     1       0.969  -7.058   4.084  0.00  0.00    +0.117 A 
ATOM     17  C   UNL     1       1.740  -7.471   3.008  0.00  0.00    +0.046 A 
ATOM     18  C   UNL     1       1.168  -7.597   1.757  0.00  0.00    +0.009 A 
BRANCH  16  19
ATOM     19  O   UNL     1       1.528  -6.939   5.317  0.00  0.00    -0.507 OA
ATOM     20  H   UNL     1       1.484  -7.745   5.849  0.00  0.00    +0.292 HD
ENDBRANCH  16  19
ENDBRANCH   7  13
BRANCH   8  21
ATOM     21  C   UNL     1      -1.379 -10.019   0.411  0.00  0.00    +0.230 C 
ATOM     22  O   UNL     1      -1.843 -10.609   1.371  0.00  0.00    -0.283 OA
BRANCH  21  23
ATOM     23  C   UNL     1      -0.470 -10.713  -0.506  0.00  0.00    +0.175 A 
ATOM     24  C   UNL     1      -0.122 -12.045  -0.451  0.00  0.00    +0.053 A 
ATOM     25  C   UNL     1       0.762 -12.271  -1.516  0.00  0.00    +0.045 A 
ATOM     26  C   UNL     1       0.916 -11.094  -2.165  0.00  0.00    +0.103 A 
ATOM     27  O   UNL     1       0.169 -10.162  -1.559  0.00  0.00    -0.457 OA
ATOM     28  C   UNL     1       1.782 -10.870  -3.377  0.00  0.00    +0.086 C 
ENDBRANCH  21  23
ENDBRANCH   8  21
BRANCH   1  29
ATOM     29  S   UNL     1      -0.546  -0.587  -0.577  0.00  0.00    -0.097 S 
BRANCH  29  31
ATOM     30  C   UNL     1       1.437   1.293  -0.448  0.00  0.00    +0.016 C 
ATOM     31  C   UNL     1       1.209  -0.213  -0.308  0.00  0.00    +0.073 C 
ENDBRANCH  29  31
ENDBRANCH   1  29
TORSDOF 6
