REMARK  Name = ZINC50122098
REMARK  4 active torsions:
REMARK  status: ('A' for Active; 'I' for Inactive)
REMARK    1  A    between atoms: C_1  and  C_2
REMARK    2  A    between atoms: C_2  and  C_3
REMARK    3  A    between atoms: C_2  and  N_4
REMARK    4  A    between atoms: C_7  and  C_10
REMARK                            x       y       z     vdW  Elec       q    Type
REMARK                         _______ _______ _______ _____ _____    ______ ____
ROOT
ATOM      1  N   UNL     1      -1.372  -0.511   0.012  0.00  0.00    -0.279 N 
ATOM      2  C   UNL     1      -2.291  -0.262   0.992  0.00  0.00    +0.160 C 
ATOM      3  N   UNL     1      -3.430  -0.818   0.776  0.00  0.00    -0.366 N 
ATOM      4  C   UNL     1      -3.348  -1.556  -0.494  0.00  0.00    +0.172 C 
ATOM      5  C   UNL     1      -1.929  -1.305  -0.968  0.00  0.00    +0.101 C 
ATOM      6  N   UNL     1      -1.367  -1.740  -2.047  0.00  0.00    -0.388 N 
ATOM      7  H   UNL     1      -0.444  -1.511  -2.240  0.00  0.00    +0.157 HD
ATOM      8  H   UNL     1      -1.867  -2.295  -2.664  0.00  0.00    +0.157 HD
ATOM      9  H   UNL     1      -4.210  -0.761   1.351  0.00  0.00    +0.161 HD
ENDROOT
BRANCH   4  10
ATOM     10  C   UNL     1      -4.337  -1.007  -1.490  0.00  0.00    -0.013 A 
ATOM     11  C   UNL     1      -5.022  -1.870  -2.328  0.00  0.00    +0.055 A 
ATOM     12  C   UNL     1      -5.931  -1.363  -3.241  0.00  0.00    +0.164 A 
ATOM     13  C   UNL     1      -6.153   0.005  -3.314  0.00  0.00    +0.180 A 
ATOM     14  C   UNL     1      -5.466   0.866  -2.474  0.00  0.00    +0.087 A 
ATOM     15  C   UNL     1      -4.562   0.355  -1.559  0.00  0.00    +0.030 A 
ATOM     16 CL   UNL     1      -5.743   2.578  -2.565  0.00  0.00    -0.080 Cl
ATOM     17  O   UNL     1      -7.052   0.495  -4.218  0.00  0.00    -0.487 OA
ATOM     18  C   UNL     1      -6.683   0.374  -5.593  0.00  0.00    +0.232 C 
ATOM     19  C   UNL     1      -7.057  -0.998  -6.133  0.00  0.00    +0.082 C 
ATOM     20  C   UNL     1      -6.279  -2.117  -5.459  0.00  0.00    +0.232 C 
ATOM     21  O   UNL     1      -6.613  -2.202  -4.072  0.00  0.00    -0.488 OA
ENDBRANCH   4  10
BRANCH   1  23
ATOM     22  C   UNL     1      -0.019   1.526   0.010  0.00  0.00    +0.028 C 
ATOM     23  C   UNL     1       0.002  -0.004   0.002  0.00  0.00    +0.075 C 
ATOM     24  C   UNL     1       0.742  -0.511   1.242  0.00  0.00    +0.028 C 
ENDBRANCH   1  23
TORSDOF 2
