REMARK  Name = ZINC13131870
REMARK  10 active torsions:
REMARK  status: ('A' for Active; 'I' for Inactive)
REMARK    1  A    between atoms: C_1  and  C_2
REMARK    2  A    between atoms: C_2  and  C_3
REMARK    3  A    between atoms: C_3  and  C_4
REMARK    4  A    between atoms: C_4  and  N_5
REMARK    5  A    between atoms: N_10  and  C_13
REMARK    6  A    between atoms: C_14  and  C_30
REMARK    7  A    between atoms: C_16  and  N_21
REMARK    8  A    between atoms: C_22  and  C_24
REMARK    9  A    between atoms: C_33  and  O_36
REMARK   10  A    between atoms: O_36  and  C_37
REMARK                            x       y       z     vdW  Elec       q    Type
REMARK                         _______ _______ _______ _____ _____    ______ ____
ROOT
ATOM      1  N   UNL     1       4.762   2.857  -2.384  0.00  0.00    -0.281 N 
ATOM      2  C   UNL     1       4.064   2.528  -1.247  0.00  0.00    +0.118 A 
ATOM      3  C   UNL     1       3.263   1.426  -1.250  0.00  0.00    +0.065 A 
ATOM      4  C   UNL     1       3.167   0.649  -2.417  0.00  0.00    +0.262 A 
ATOM      5  O   UNL     1       2.455  -0.341  -2.440  0.00  0.00    -0.267 OA
ATOM      6  N   UNL     1       3.868   1.007  -3.511  0.00  0.00    -0.264 N 
ATOM      7  C   UNL     1       4.655   2.099  -3.490  0.00  0.00    +0.333 A 
ATOM      8  O   UNL     1       5.280   2.405  -4.487  0.00  0.00    -0.246 OA
ATOM      9  C   UNL     1       3.773   0.203  -4.731  0.00  0.00    +0.157 C 
ATOM     10  C   UNL     1       2.490   1.045  -0.016  0.00  0.00    +0.087 C 
ATOM     11  C   UNL     1       3.300   1.418   1.228  0.00  0.00    +0.171 C 
ATOM     12  C   UNL     1       3.819   2.824   1.088  0.00  0.00    +0.239 C 
ATOM     13  O   UNL     1       3.917   3.529   2.070  0.00  0.00    -0.273 OA
ATOM     14  N   UNL     1       4.175   3.305  -0.117  0.00  0.00    -0.270 N 
ATOM     15  H   UNL     1       4.514   4.211  -0.190  0.00  0.00    +0.156 HD
ENDROOT
BRANCH  10  16
ATOM     16  C   UNL     1       1.176   1.783   0.000  0.00  0.00    -0.037 A 
ATOM     17  C   UNL     1      -0.013   1.076   0.008  0.00  0.00    +0.008 A 
ATOM     18  C   UNL     1      -1.218   1.750   0.017  0.00  0.00    +0.046 A 
ATOM     19  C   UNL     1      -1.237   3.137   0.031  0.00  0.00    +0.120 A 
ATOM     20  C   UNL     1      -0.043   3.844   0.024  0.00  0.00    +0.046 A 
ATOM     21  C   UNL     1       1.160   3.165   0.008  0.00  0.00    +0.008 A 
BRANCH  19  22
ATOM     22  O   UNL     1      -2.422   3.802   0.045  0.00  0.00    -0.495 OA
ATOM     23  C   UNL     1      -3.611   3.009   0.052  0.00  0.00    +0.277 C 
ENDBRANCH  19  22
ENDBRANCH  10  16
BRANCH  11  24
ATOM     24  N   UNL     1       4.427   0.493   1.371  0.00  0.00    -0.299 N 
ATOM     25  C   UNL     1       4.971   0.277   2.585  0.00  0.00    +0.245 C 
ATOM     26  O   UNL     1       4.526   0.849   3.561  0.00  0.00    -0.270 OA
ATOM     27  H   UNL     1       4.782   0.037   0.592  0.00  0.00    +0.150 HD
BRANCH  25  28
ATOM     28  C   UNL     1       6.108  -0.656   2.729  0.00  0.00    +0.037 A 
ATOM     29  C   UNL     1       6.618  -1.319   1.612  0.00  0.00    +0.013 A 
ATOM     30  C   UNL     1       7.682  -2.185   1.753  0.00  0.00    +0.001 A 
ATOM     31  C   UNL     1       8.238  -2.405   3.001  0.00  0.00    +0.000 A 
ATOM     32  C   UNL     1       7.735  -1.755   4.113  0.00  0.00    +0.001 A 
ATOM     33  C   UNL     1       6.674  -0.883   3.985  0.00  0.00    +0.013 A 
ENDBRANCH  25  28
ENDBRANCH  11  24
BRANCH   1  34
ATOM     34  C   UNL     1       5.626   4.040  -2.391  0.00  0.00    +0.128 C 
BRANCH  34  35
ATOM     35  C   UNL     1       7.036   3.645  -1.947  0.00  0.00    +0.021 C 
BRANCH  35  37
ATOM     36  C   UNL     1       9.348   4.485  -1.511  0.00  0.00    +0.004 C 
ATOM     37  C   UNL     1       7.938   4.880  -1.955  0.00  0.00    -0.002 C 
ENDBRANCH  35  37
ENDBRANCH  34  35
ENDBRANCH   1  34
TORSDOF 7
