REMARK  Name = ZINC39890245
REMARK  6 active torsions:
REMARK  status: ('A' for Active; 'I' for Inactive)
REMARK    1  A    between atoms: C_1  and  C_2
REMARK    2  A    between atoms: C_2  and  C_3
REMARK    3  A    between atoms: C_3  and  C_4
REMARK    4  A    between atoms: C_4  and  N_5
REMARK    5  A    between atoms: N_27  and  C_30
REMARK    6  A    between atoms: C_30  and  C_31
REMARK                            x       y       z     vdW  Elec       q    Type
REMARK                         _______ _______ _______ _____ _____    ______ ____
ROOT
ATOM      1  N   UNL     1      -2.787  -2.571   0.015  0.00  0.00    -0.273 N 
ATOM      2  C   UNL     1      -3.525  -2.846   1.111  0.00  0.00    +0.284 C 
ATOM      3  O   UNL     1      -3.147  -2.710   2.258  0.00  0.00    -0.267 OA
ATOM      4  C   UNL     1      -4.857  -3.336   0.714  0.00  0.00    +0.200 A 
ATOM      5  C   UNL     1      -4.919  -3.353  -0.652  0.00  0.00    +0.084 A 
ATOM      6  C   UNL     1      -6.133  -3.793  -1.347  0.00  0.00    +0.199 A 
ATOM      7  O   UNL     1      -6.179  -3.991  -2.548  0.00  0.00    -0.287 OA
ATOM      8  C   UNL     1      -7.300  -3.977  -0.448  0.00  0.00    +0.067 A 
ATOM      9  C   UNL     1      -8.571  -4.199  -0.979  0.00  0.00    +0.053 A 
ATOM     10  C   UNL     1      -9.645  -4.361  -0.129  0.00  0.00    +0.124 A 
ATOM     11  C   UNL     1      -9.458  -4.303   1.247  0.00  0.00    +0.042 A 
ATOM     12  C   UNL     1      -8.208  -4.087   1.780  0.00  0.00    +0.050 A 
ATOM     13  C   UNL     1      -7.106  -3.923   0.942  0.00  0.00    +0.140 A 
ATOM     14  O   UNL     1      -5.886  -3.723   1.493  0.00  0.00    -0.450 OA
ATOM     15  F   UNL     1     -10.879  -4.576  -0.635  0.00  0.00    -0.205 F 
ATOM     16  C   UNL     1      -3.610  -2.864  -1.164  0.00  0.00    +0.174 C 
ATOM     17  C   UNL     1      -2.941  -3.852  -2.065  0.00  0.00    +0.011 A 
ATOM     18  C   UNL     1      -2.541  -5.154  -1.858  0.00  0.00    +0.008 A 
ATOM     19  C   UNL     1      -1.936  -5.806  -2.927  0.00  0.00    +0.000 A 
ATOM     20  C   UNL     1      -1.744  -5.174  -4.139  0.00  0.00    +0.002 A 
ATOM     21  C   UNL     1      -2.144  -3.865  -4.355  0.00  0.00    +0.024 A 
ATOM     22  C   UNL     1      -2.754  -3.199  -3.290  0.00  0.00    +0.043 A 
ATOM     23  N   UNL     1      -3.247  -1.908  -3.228  0.00  0.00    -0.264 N 
ATOM     24  C   UNL     1      -3.770  -1.624  -2.016  0.00  0.00    +0.253 C 
ATOM     25  O   UNL     1      -4.273  -0.574  -1.675  0.00  0.00    -0.272 OA
ENDROOT
BRANCH   1  26
ATOM     26  C   UNL     1      -1.413  -2.063   0.004  0.00  0.00    +0.110 C 
BRANCH  26  27
ATOM     27  C   UNL     1      -1.433  -0.534   0.013  0.00  0.00    +0.019 C 
BRANCH  27  29
ATOM     28  C   UNL     1      -0.019   1.526   0.010  0.00  0.00    +0.004 C 
ATOM     29  C   UNL     1       0.002  -0.004   0.002  0.00  0.00    -0.002 C 
ENDBRANCH  27  29
ENDBRANCH  26  27
ENDBRANCH   1  26
BRANCH  23  30
ATOM     30  C   UNL     1      -3.206  -0.961  -4.344  0.00  0.00    +0.148 C 
BRANCH  30  31
ATOM     31  C   UNL     1      -4.461  -1.098  -5.167  0.00  0.00    -0.030 A 
ATOM     32  C   UNL     1      -4.502  -1.992  -6.221  0.00  0.00    +0.006 A 
ATOM     33  C   UNL     1      -5.653  -2.119  -6.976  0.00  0.00    +0.020 A 
ATOM     34  C   UNL     1      -6.765  -1.351  -6.675  0.00  0.00    +0.041 A 
ATOM     35  C   UNL     1      -6.723  -0.458  -5.620  0.00  0.00    +0.020 A 
ATOM     36  C   UNL     1      -5.573  -0.336  -4.863  0.00  0.00    +0.006 A 
ATOM     37 CL   UNL     1      -8.210  -1.510  -7.623  0.00  0.00    -0.084 Cl
ENDBRANCH  30  31
ENDBRANCH  23  30
TORSDOF 5
