REMARK  Name = ZINC09646014
REMARK  5 active torsions:
REMARK  status: ('A' for Active; 'I' for Inactive)
REMARK    1  A    between atoms: C_1  and  C_2
REMARK    2  A    between atoms: C_2  and  C_4
REMARK    3  A    between atoms: C_2  and  O_10
REMARK    4  A    between atoms: O_10  and  C_11
REMARK    5  A    between atoms: C_11  and  C_13
REMARK                            x       y       z     vdW  Elec       q    Type
REMARK                         _______ _______ _______ _____ _____    ______ ____
ROOT
ATOM      1  C   UNL     1      -0.019   1.526   0.010  0.00  0.00    +0.062 C 
ATOM      2  C   UNL     1       0.002  -0.004   0.002  0.00  0.00    +0.259 C 
ENDROOT
BRANCH   2   3
ATOM      3  C   UNL     1       0.731  -0.503   1.223  0.00  0.00    +0.261 C 
ATOM      4  O   UNL     1       0.135  -1.137   2.068  0.00  0.00    -0.271 OA
ATOM      5  N   UNL     1       2.045  -0.246   1.375  0.00  0.00    -0.237 N 
ATOM      6  C   UNL     1       2.697  -0.692   2.467  0.00  0.00    +0.303 C 
ATOM      7  O   UNL     1       2.100  -1.327   3.314  0.00  0.00    -0.253 OA
ATOM      8  N   UNL     1       4.011  -0.435   2.620  0.00  0.00    -0.313 N 
ATOM      9  H   UNL     1       2.522   0.261   0.699  0.00  0.00    +0.159 HD
ATOM     10  H   UNL     1       4.488   0.072   1.944  0.00  0.00    +0.146 HD
ATOM     11  H   UNL     1       4.480  -0.756   3.406  0.00  0.00    +0.146 HD
ENDBRANCH   2   3
BRANCH   2  12
ATOM     12  O   UNL     1      -1.360  -0.507   0.012  0.00  0.00    -0.448 OA
BRANCH  12  13
ATOM     13  C   UNL     1      -1.945  -0.712  -1.183  0.00  0.00    +0.360 C 
ATOM     14  O   UNL     1      -1.335  -0.477  -2.207  0.00  0.00    -0.243 OA
BRANCH  13  15
ATOM     15  C   UNL     1      -3.332  -1.223  -1.250  0.00  0.00    +0.167 A 
ATOM     16  C   UNL     1      -3.933  -1.433  -2.491  0.00  0.00    +0.073 A 
ATOM     17  C   UNL     1      -5.234  -1.913  -2.538  0.00  0.00    +0.025 A 
ATOM     18  C   UNL     1      -5.888  -2.166  -1.343  0.00  0.00    +0.041 A 
ATOM     19  C   UNL     1      -5.229  -1.933  -0.144  0.00  0.00    +0.130 A 
ATOM     20  N   UNL     1      -3.994  -1.483  -0.128  0.00  0.00    -0.227 NA
ATOM     21 CL   UNL     1      -6.045  -2.248   1.356  0.00  0.00    -0.062 Cl
ATOM     22 CL   UNL     1      -3.065  -1.100  -3.957  0.00  0.00    -0.081 Cl
ENDBRANCH  13  15
ENDBRANCH  12  13
ENDBRANCH   2  12
TORSDOF 4
