REMARK  Name = ZINC63099029
REMARK  7 active torsions:
REMARK  status: ('A' for Active; 'I' for Inactive)
REMARK    1  A    between atoms: C_1  and  O_2
REMARK    2  A    between atoms: O_2  and  C_3
REMARK    3  A    between atoms: C_6  and  N_9
REMARK    4  A    between atoms: C_13  and  S_17
REMARK    5  A    between atoms: S_17  and  C_18
REMARK    6  A    between atoms: C_18  and  C_19
REMARK    7  A    between atoms: C_19  and  C_20
REMARK                            x       y       z     vdW  Elec       q    Type
REMARK                         _______ _______ _______ _____ _____    ______ ____
ROOT
ATOM      1  N   UNL     1       2.540  -2.504   4.233  0.00  0.00    -0.209 N 
ATOM      2  C   UNL     1       3.193  -1.830   5.187  0.00  0.00    +0.228 C 
ATOM      3  O   UNL     1       3.307  -0.624   5.242  0.00  0.00    -0.275 OA
ATOM      4  C   UNL     1       3.767  -2.810   6.186  0.00  0.00    +0.120 C 
ATOM      5  C   UNL     1       3.328  -4.183   5.639  0.00  0.00    +0.142 C 
ATOM      6  C   UNL     1       2.547  -3.834   4.391  0.00  0.00    +0.240 C 
ATOM      7  O   UNL     1       2.014  -4.631   3.649  0.00  0.00    -0.274 OA
ENDROOT
BRANCH   1  11
ATOM      8  C   UNL     1       0.625  -0.618   1.043  0.00  0.00    +0.120 A 
ATOM      9  C   UNL     1      -0.122  -1.279   2.007  0.00  0.00    +0.047 A 
ATOM     10  C   UNL     1       0.512  -1.904   3.063  0.00  0.00    +0.027 A 
ATOM     11  C   UNL     1       1.896  -1.870   3.160  0.00  0.00    +0.044 A 
ATOM     12  C   UNL     1       2.643  -1.208   2.195  0.00  0.00    +0.027 A 
ATOM     13  C   UNL     1       2.009  -0.588   1.137  0.00  0.00    +0.047 A 
BRANCH   8  15
ATOM     14  C   UNL     1      -1.426  -0.074  -0.030  0.00  0.00    +0.277 C 
ATOM     15  O   UNL     1       0.001  -0.003   0.003  0.00  0.00    -0.495 OA
ENDBRANCH   8  15
ENDBRANCH   1  11
BRANCH   5  16
ATOM     16  S   UNL     1       2.266  -5.038   6.836  0.00  0.00    -0.147 S 
BRANCH  16  17
ATOM     17  C   UNL     1       1.986  -6.667   6.088  0.00  0.00    +0.074 C 
BRANCH  17  18
ATOM     18  C   UNL     1       1.092  -7.503   7.007  0.00  0.00    +0.057 C 
BRANCH  18  19
ATOM     19  C   UNL     1       0.855  -8.877   6.377  0.00  0.00    +0.175 C 
ATOM     20  N   UNL     1       0.133  -8.730   5.106  0.00  0.00    -0.363 N 
ATOM     21  C   UNL     1      -0.993  -9.372   5.221  0.00  0.00    +0.060 A 
ATOM     22  C   UNL     1      -2.120  -9.586   4.302  0.00  0.00    +0.027 A 
ATOM     23  C   UNL     1      -3.180 -10.313   4.707  0.00  0.00    +0.002 A 
ATOM     24  C   UNL     1      -3.261 -10.887   5.989  0.00  0.00    +0.002 A 
ATOM     25  C   UNL     1      -2.284 -10.752   6.908  0.00  0.00    +0.027 A 
ATOM     26  C   UNL     1      -1.078  -9.980   6.577  0.00  0.00    +0.060 A 
ATOM     27  N   UNL     1      -0.001  -9.690   7.249  0.00  0.00    -0.363 N 
ATOM     28  H   UNL     1       0.440  -8.244   4.325  0.00  0.00    +0.162 HD
ATOM     29  H   UNL     1       0.199  -9.962   8.158  0.00  0.00    +0.162 HD
ENDBRANCH  18  19
ENDBRANCH  17  18
ENDBRANCH  16  17
ENDBRANCH   5  16
TORSDOF 6
