REMARK  Name = ZINC20436753
REMARK  5 active torsions:
REMARK  status: ('A' for Active; 'I' for Inactive)
REMARK    1  A    between atoms: C_1  and  N_2
REMARK    2  A    between atoms: N_12  and  C_27
REMARK    3  A    between atoms: C_15  and  S_18
REMARK    4  A    between atoms: S_18  and  C_19
REMARK    5  A    between atoms: C_19  and  C_20
REMARK                            x       y       z     vdW  Elec       q    Type
REMARK                         _______ _______ _______ _____ _____    ______ ____
ROOT
ATOM      1  C   UNL     1       1.027  -1.495  -2.507  0.00  0.00    +0.105 C 
ATOM      2  N   UNL     1       0.922  -0.067  -2.182  0.00  0.00    -0.300 NA
ATOM      3  C   UNL     1       2.169   0.431  -1.585  0.00  0.00    +0.089 C 
ATOM      4  C   UNL     1       2.186   1.963  -1.600  0.00  0.00    +0.052 C 
ATOM      5  C   UNL     1       0.884   2.457  -0.979  0.00  0.00    -0.020 A 
ATOM      6  C   UNL     1      -0.170   1.622  -0.859  0.00  0.00    +0.010 A 
ATOM      7  S   UNL     1      -1.435   2.602  -0.106  0.00  0.00    -0.073 S 
ATOM      8  C   UNL     1      -0.572   4.087   0.051  0.00  0.00    +0.102 A 
ATOM      9  C   UNL     1       0.684   3.818  -0.485  0.00  0.00    +0.075 A 
ATOM     10  C   UNL     1       1.650   4.941  -0.483  0.00  0.00    +0.268 A 
ATOM     11  O   UNL     1       2.770   4.784  -0.934  0.00  0.00    -0.266 OA
ATOM     12  N   UNL     1       1.285   6.133   0.017  0.00  0.00    -0.245 N 
ATOM     13  C   UNL     1       0.018   6.343   0.537  0.00  0.00    +0.245 A 
ATOM     14  N   UNL     1      -0.902   5.326   0.552  0.00  0.00    -0.249 N 
ATOM     15  C   UNL     1      -2.053   5.811   1.115  0.00  0.00    +0.198 A 
ATOM     16  N   UNL     1      -1.853   7.067   1.431  0.00  0.00    -0.120 NA
ATOM     17  N   UNL     1      -0.544   7.404   1.066  0.00  0.00    -0.109 NA
ATOM     18  C   UNL     1      -0.223   0.189  -1.287  0.00  0.00    +0.126 C 
ENDROOT
BRANCH  12  19
ATOM     19  C   UNL     1       2.206   7.188   0.014  0.00  0.00    +0.054 A 
ATOM     20  C   UNL     1       3.055   7.373   1.097  0.00  0.00    +0.026 A 
ATOM     21  C   UNL     1       3.963   8.414   1.091  0.00  0.00    +0.003 A 
ATOM     22  C   UNL     1       4.028   9.271   0.008  0.00  0.00    +0.020 A 
ATOM     23  C   UNL     1       3.183   9.090  -1.073  0.00  0.00    +0.043 A 
ATOM     24  C   UNL     1       2.276   8.046  -1.075  0.00  0.00    +0.046 A 
ATOM     25 CL   UNL     1       3.268  10.169  -2.430  0.00  0.00    -0.083 Cl
ENDBRANCH  12  19
BRANCH  15  26
ATOM     26  S   UNL     1      -3.542   4.905   1.370  0.00  0.00    -0.076 S 
BRANCH  26  27
ATOM     27  C   UNL     1      -4.660   6.106   2.143  0.00  0.00    +0.173 C 
BRANCH  27  28
ATOM     28  C   UNL     1      -5.989   5.451   2.417  0.00  0.00    +0.226 C 
ATOM     29  O   UNL     1      -6.165   4.288   2.121  0.00  0.00    -0.275 OA
ATOM     30  N   UNL     1      -6.983   6.157   2.992  0.00  0.00    -0.301 N 
ATOM     31  C   UNL     1      -6.904   7.566   3.406  0.00  0.00    +0.108 C 
ATOM     32  C   UNL     1      -8.265   7.936   4.033  0.00  0.00    +0.020 C 
ATOM     33  C   UNL     1      -8.835   6.557   4.459  0.00  0.00    +0.020 C 
ATOM     34  C   UNL     1      -8.326   5.644   3.316  0.00  0.00    +0.108 C 
ENDBRANCH  27  28
ENDBRANCH  26  27
ENDBRANCH  15  26
TORSDOF 4
