REMARK  Name = ZINC43346826
REMARK  5 active torsions:
REMARK  status: ('A' for Active; 'I' for Inactive)
REMARK    1  A    between atoms: C_1  and  C_2
REMARK    2  A    between atoms: C_3  and  N_11
REMARK    3  A    between atoms: C_7  and  N_8
REMARK    4  A    between atoms: N_14  and  C_15
REMARK    5  A    between atoms: C_15  and  C_16
REMARK                            x       y       z     vdW  Elec       q    Type
REMARK                         _______ _______ _______ _____ _____    ______ ____
ROOT
ATOM      1  N   UNL     1      -0.409   0.193  -2.478  0.00  0.00    -0.269 N 
ATOM      2  C   UNL     1      -0.692  -0.489  -3.606  0.00  0.00    +0.304 C 
ATOM      3  O   UNL     1      -0.661  -1.704  -3.606  0.00  0.00    -0.253 OA
ATOM      4  N   UNL     1      -1.010   0.177  -4.734  0.00  0.00    -0.296 N 
ATOM      5  H   UNL     1      -0.382   1.162  -2.491  0.00  0.00    +0.156 HD
ATOM      6  H   UNL     1      -1.035   1.147  -4.734  0.00  0.00    +0.150 HD
ENDROOT
BRANCH   1   9
ATOM      7  C   UNL     1      -1.254   1.373  -0.030  0.00  0.00    +0.048 C 
ATOM      8  C   UNL     1      -0.549   0.041  -0.072  0.00  0.00    +0.001 A 
ATOM      9  C   UNL     1      -0.154  -0.499  -1.289  0.00  0.00    +0.040 A 
ATOM     10  C   UNL     1       0.495  -1.726  -1.322  0.00  0.00    +0.024 A 
ATOM     11  C   UNL     1       0.745  -2.406  -0.146  0.00  0.00    +0.004 A 
ATOM     12  C   UNL     1       0.350  -1.866   1.063  0.00  0.00    +0.033 A 
ATOM     13  C   UNL     1      -0.292  -0.641   1.101  0.00  0.00    +0.131 A 
BRANCH  13  14
ATOM     14  N   UNL     1      -0.708  -0.064   2.399  0.00  0.00    +0.057 N 
ATOM     15  O   UNL     1      -0.804   1.134   2.525  0.00  0.00    -0.126 OA
ATOM     16  O   UNL     1      -0.952  -0.791   3.333  0.00  0.00    -0.126 OA
ENDBRANCH  13  14
ENDBRANCH   1   9
BRANCH   4  17
ATOM     17  C   UNL     1      -1.318  -0.563  -5.960  0.00  0.00    +0.153 C 
BRANCH  17  18
ATOM     18  C   UNL     1      -1.644   0.423  -7.083  0.00  0.00    +0.228 C 
ATOM     19  C   UNL     1      -2.074  -0.347  -8.339  0.00  0.00    +0.275 C 
ATOM     20  O   UNL     1      -2.357   0.603  -9.372  0.00  0.00    -0.485 OA
ATOM     21  C   UNL     1      -1.447   1.599  -9.553  0.00  0.00    +0.162 A 
ATOM     22  C   UNL     1      -1.457   2.324 -10.735  0.00  0.00    +0.049 A 
ATOM     23  C   UNL     1      -0.541   3.340 -10.932  0.00  0.00    +0.004 A 
ATOM     24  C   UNL     1       0.387   3.638  -9.951  0.00  0.00    +0.004 A 
ATOM     25  C   UNL     1       0.403   2.918  -8.771  0.00  0.00    +0.049 A 
ATOM     26  C   UNL     1      -0.512   1.895  -8.568  0.00  0.00    +0.163 A 
ATOM     27  O   UNL     1      -0.478   1.191  -7.404  0.00  0.00    -0.480 OA
ENDBRANCH  17  18
ENDBRANCH   4  17
TORSDOF 4
