REMARK  Name = ZINC35238062
REMARK  6 active torsions:
REMARK  status: ('A' for Active; 'I' for Inactive)
REMARK    1  A    between atoms: C_1  and  C_2
REMARK    2  A    between atoms: C_4  and  N_8
REMARK    3  A    between atoms: N_5  and  C_7
REMARK    4  A    between atoms: C_9  and  C_11
REMARK    5  A    between atoms: C_17  and  C_22
REMARK    6  A    between atoms: C_18  and  C_21
REMARK                            x       y       z     vdW  Elec       q    Type
REMARK                         _______ _______ _______ _____ _____    ______ ____
ROOT
ATOM      1  C   UNL     1       0.043  -4.286  -3.757  0.00  0.00    +0.038 A 
ATOM      2  C   UNL     1       0.057  -5.568  -3.189  0.00  0.00    +0.015 A 
ATOM      3  C   UNL     1       0.068  -6.679  -3.979  0.00  0.00    +0.027 A 
ATOM      4  C   UNL     1       0.065  -6.553  -5.367  0.00  0.00    +0.047 A 
ATOM      5  C   UNL     1       0.051  -5.270  -5.950  0.00  0.00    +0.004 A 
ATOM      6  C   UNL     1       0.034  -4.137  -5.140  0.00  0.00    +0.023 A 
ATOM      7  C   UNL     1       0.052  -5.484  -7.400  0.00  0.00    -0.022 A 
ATOM      8  C   UNL     1       0.066  -6.811  -7.599  0.00  0.00    +0.017 A 
ATOM      9  N   UNL     1       0.075  -7.464  -6.396  0.00  0.00    -0.358 N 
ATOM     10  H   UNL     1       0.086  -8.428  -6.285  0.00  0.00    +0.166 HD
ATOM     11  C   UNL     1       0.073  -7.484  -8.947  0.00  0.00    +0.063 C 
ATOM     12  C   UNL     1       0.038  -4.418  -8.465  0.00  0.00    +0.046 C 
ENDROOT
BRANCH   1  14
ATOM     13  N   UNL     1       0.039  -3.238  -1.546  0.00  0.00    -0.267 N 
ATOM     14  C   UNL     1       0.031  -3.094  -2.886  0.00  0.00    +0.249 C 
ATOM     15  O   UNL     1       0.014  -1.982  -3.378  0.00  0.00    -0.270 OA
ATOM     16  H   UNL     1       0.053  -4.125  -1.154  0.00  0.00    +0.157 HD
BRANCH  13  20
ATOM     17  C   UNL     1      -0.018   1.503   0.010  0.00  0.00    +0.067 C 
ATOM     18  C   UNL     1       0.002  -0.004   0.002  0.00  0.00    +0.062 A 
ATOM     19  C   UNL     1       0.008  -0.815  -1.136  0.00  0.00    +0.068 A 
ATOM     20  C   UNL     1       0.028  -2.112  -0.724  0.00  0.00    +0.123 A 
ATOM     21  N   UNL     1       0.034  -2.109   0.634  0.00  0.00    -0.253 N 
ATOM     22  N   UNL     1       0.023  -0.775   1.059  0.00  0.00    -0.175 NA
ATOM     23  C   UNL     1       0.054  -3.291   1.499  0.00  0.00    +0.174 C 
ENDBRANCH  13  20
ENDBRANCH   1  14
TORSDOF 2
