REMARK  Name = ZINC02855352
REMARK  9 active torsions:
REMARK  status: ('A' for Active; 'I' for Inactive)
REMARK    1  A    between atoms: C_1  and  C_2
REMARK    2  A    between atoms: C_6  and  N_8
REMARK    3  A    between atoms: C_9  and  C_11
REMARK    4  A    between atoms: C_11  and  C_29
REMARK    5  A    between atoms: C_12  and  C_13
REMARK    6  A    between atoms: C_15  and  C_28
REMARK    7  A    between atoms: N_16  and  C_19
REMARK    8  A    between atoms: C_17  and  C_18
REMARK    9  A    between atoms: C_22  and  N_25
REMARK                            x       y       z     vdW  Elec       q    Type
REMARK                         _______ _______ _______ _____ _____    ______ ____
ROOT
ATOM      1  C   UNL     1       1.374   1.779  -0.023  0.00  0.00    -0.003 A 
ATOM      2  C   UNL     1      -0.026   1.356   0.122  0.00  0.00    +0.031 A 
ATOM      3  C   UNL     1      -0.031   0.017   0.021  0.00  0.00    +0.022 A 
ATOM      4  N   UNL     1       1.249  -0.425  -0.174  0.00  0.00    -0.317 N 
ATOM      5  C   UNL     1       2.105   0.616  -0.204  0.00  0.00    +0.028 A 
ATOM      6  C   UNL     1       3.597   0.530  -0.399  0.00  0.00    +0.064 C 
ATOM      7  C   UNL     1      -1.253  -0.861   0.109  0.00  0.00    +0.064 C 
ENDROOT
BRANCH   4   8
ATOM      8  C   UNL     1       1.618  -1.768  -0.323  0.00  0.00    +0.047 A 
ATOM      9  C   UNL     1       2.428  -2.376   0.626  0.00  0.00    +0.028 A 
ATOM     10  C   UNL     1       2.785  -3.703   0.480  0.00  0.00    +0.035 A 
ATOM     11  C   UNL     1       2.346  -4.421  -0.616  0.00  0.00    +0.126 A 
ATOM     12  C   UNL     1       1.544  -3.817  -1.567  0.00  0.00    +0.035 A 
ATOM     13  C   UNL     1       1.179  -2.493  -1.423  0.00  0.00    +0.028 A 
BRANCH  11  14
ATOM     14  N   UNL     1       2.736  -5.841  -0.773  0.00  0.00    +0.056 N 
ATOM     15  O   UNL     1       2.350  -6.475  -1.739  0.00  0.00    -0.126 OA
ATOM     16  O   UNL     1       3.442  -6.374   0.063  0.00  0.00    -0.126 OA
ENDBRANCH  11  14
ENDBRANCH   4   8
BRANCH   1  18
ATOM     17  C   UNL     1       1.102   4.120   0.545  0.00  0.00    +0.114 C 
ATOM     18  C   UNL     1       1.874   3.106   0.014  0.00  0.00    +0.033 C 
BRANCH  17  20
ATOM     19  N   UNL     1       0.778   6.508   0.927  0.00  0.00    -0.281 N 
ATOM     20  C   UNL     1       1.531   5.518   0.409  0.00  0.00    +0.259 C 
ATOM     21  O   UNL     1       2.568   5.783  -0.171  0.00  0.00    -0.269 OA
ATOM     22  H   UNL     1      -0.026   6.295   1.427  0.00  0.00    +0.155 HD
BRANCH  19  28
ATOM     23  C   UNL     1      -0.493  11.200   0.194  0.00  0.00    +0.044 C 
ATOM     24  C   UNL     1       0.559  10.138   0.386  0.00  0.00    -0.049 A 
ATOM     25  C   UNL     1       1.898  10.483   0.380  0.00  0.00    +0.003 A 
ATOM     26  C   UNL     1       2.866   9.511   0.557  0.00  0.00    +0.002 A 
ATOM     27  C   UNL     1       2.498   8.193   0.744  0.00  0.00    +0.023 A 
ATOM     28  C   UNL     1       1.154   7.843   0.744  0.00  0.00    +0.034 A 
ATOM     29  C   UNL     1       0.184   8.821   0.567  0.00  0.00    +0.026 A 
ENDBRANCH  19  28
ENDBRANCH  17  20
BRANCH  17  30
ATOM     30  C   UNL     1      -0.118   3.809   1.228  0.00  0.00    +0.104 C 
ATOM     31  N   UNL     1      -1.085   3.562   1.770  0.00  0.00    -0.191 NA
ENDBRANCH  17  30
ENDBRANCH   1  18
TORSDOF 6
