REMARK  Name = ZINC06938610
REMARK  11 active torsions:
REMARK  status: ('A' for Active; 'I' for Inactive)
REMARK    1  A    between atoms: C_1  and  C_2
REMARK    2  A    between atoms: C_7  and  S_8
REMARK    3  A    between atoms: S_8  and  N_11
REMARK    4  A    between atoms: N_11  and  C_12
REMARK    5  A    between atoms: N_11  and  C_16
REMARK    6  A    between atoms: C_12  and  C_13
REMARK    7  A    between atoms: C_13  and  C_14
REMARK    8  A    between atoms: C_13  and  C_15
REMARK    9  A    between atoms: C_16  and  C_17
REMARK   10  A    between atoms: C_17  and  C_18
REMARK   11  A    between atoms: C_17  and  C_19
REMARK                            x       y       z     vdW  Elec       q    Type
REMARK                         _______ _______ _______ _____ _____    ______ ____
ROOT
ATOM      1  C   UNL     1      -0.172   2.509   0.755  0.00  0.00    +0.046 C 
ATOM      2  C   UNL     1       0.083   1.128   0.206  0.00  0.00    -0.022 A 
ATOM      3  C   UNL     1       0.169   0.936  -1.158  0.00  0.00    +0.033 A 
ATOM      4  C   UNL     1       0.404  -0.336  -1.668  0.00  0.00    +0.066 A 
ATOM      5  C   UNL     1       0.551  -1.415  -0.795  0.00  0.00    +0.068 A 
ATOM      6  C   UNL     1       0.462  -1.209   0.577  0.00  0.00    +0.056 A 
ATOM      7  C   UNL     1       0.234   0.059   1.072  0.00  0.00    +0.110 A 
ATOM      8  N   UNL     1       0.787  -2.696  -1.286  0.00  0.00    -0.316 N 
ATOM      9  H   UNL     1       0.887  -3.440  -0.671  0.00  0.00    +0.169 HD
ATOM     10  C   UNL     1       0.874  -2.905  -2.616  0.00  0.00    +0.314 A 
ATOM     11  O   UNL     1       1.078  -4.021  -3.049  0.00  0.00    -0.262 OA
ATOM     12  C   UNL     1       0.717  -1.752  -3.548  0.00  0.00    +0.314 A 
ATOM     13  O   UNL     1       0.793  -1.919  -4.749  0.00  0.00    -0.262 OA
ATOM     14  N   UNL     1       0.490  -0.522  -3.045  0.00  0.00    -0.316 N 
ATOM     15  H   UNL     1       0.386   0.235  -3.643  0.00  0.00    +0.169 HD
ENDROOT
BRANCH   7  16
ATOM     16  S   UNL     1       0.129   0.317   2.811  0.00  0.00    +0.061 S 
ATOM     17  O   UNL     1      -1.056   1.067   3.040  0.00  0.00    -0.153 OA
ATOM     18  O   UNL     1       0.363  -0.944   3.424  0.00  0.00    -0.153 OA
BRANCH  16  19
ATOM     19  N   UNL     1       1.397   1.292   3.239  0.00  0.00    -0.176 NA
BRANCH  19  20
ATOM     20  C   UNL     1       1.190   2.733   3.402  0.00  0.00    +0.112 C 
BRANCH  20  21
ATOM     21  C   UNL     1       1.028   3.061   4.888  0.00  0.00    -0.001 C 
ATOM     22  C   UNL     1       0.936   4.578   5.069  0.00  0.00    +0.008 C 
ATOM     23  C   UNL     1      -0.249   2.406   5.418  0.00  0.00    +0.008 C 
ENDBRANCH  20  21
ENDBRANCH  19  20
BRANCH  19  24
ATOM     24  C   UNL     1       2.726   0.715   3.455  0.00  0.00    +0.112 C 
BRANCH  24  25
ATOM     25  C   UNL     1       3.528   0.779   2.154  0.00  0.00    -0.001 C 
ATOM     26  C   UNL     1       3.728   2.241   1.750  0.00  0.00    +0.008 C 
ATOM     27  C   UNL     1       4.891   0.115   2.361  0.00  0.00    +0.008 C 
ENDBRANCH  24  25
ENDBRANCH  19  24
ENDBRANCH  16  19
ENDBRANCH   7  16
TORSDOF 6
