REMARK  Name = ZINC00717950
REMARK  6 active torsions:
REMARK  status: ('A' for Active; 'I' for Inactive)
REMARK    1  A    between atoms: C_1  and  C_2
REMARK    2  A    between atoms: N_5  and  N_22
REMARK    3  A    between atoms: C_6  and  S_9
REMARK    4  A    between atoms: S_9  and  C_10
REMARK    5  A    between atoms: C_10  and  C_11
REMARK    6  A    between atoms: N_13  and  C_14
REMARK                            x       y       z     vdW  Elec       q    Type
REMARK                         _______ _______ _______ _____ _____    ______ ____
ROOT
ATOM      1  C   UNL     1      -0.016   1.080   0.008  0.00  0.00    +0.173 C 
ENDROOT
BRANCH   1   2
ATOM      2  C   UNL     1      -0.717   1.573   1.248  0.00  0.00    +0.227 C 
ATOM      3  O   UNL     1      -1.709   2.265   1.150  0.00  0.00    -0.275 OA
ATOM      4  N   UNL     1      -0.242   1.246   2.466  0.00  0.00    -0.285 N 
ATOM      5  H   UNL     1       0.511   0.639   2.546  0.00  0.00    +0.155 HD
BRANCH   4   6
ATOM      6  C   UNL     1      -0.834   1.782   3.615  0.00  0.00    +0.035 A 
ATOM      7  C   UNL     1      -0.052   2.086   4.723  0.00  0.00    +0.025 A 
ATOM      8  C   UNL     1      -0.637   2.621   5.854  0.00  0.00    +0.023 A 
ATOM      9  C   UNL     1      -2.002   2.843   5.889  0.00  0.00    +0.059 A 
ATOM     10  C   UNL     1      -2.785   2.535   4.789  0.00  0.00    +0.061 A 
ATOM     11  C   UNL     1      -2.203   2.006   3.652  0.00  0.00    +0.044 A 
ATOM     12 CL   UNL     1      -4.498   2.815   4.837  0.00  0.00    -0.082 Cl
ATOM     13 CL   UNL     1      -2.736   3.509   7.315  0.00  0.00    -0.082 Cl
ENDBRANCH   4   6
ENDBRANCH   1   2
BRANCH   1  14
ATOM     14  S   UNL     1      -0.889   1.683  -1.458  0.00  0.00    -0.075 S 
BRANCH  14  20
ATOM     15  C   UNL     1       2.607  -0.770  -5.584  0.00  0.00    +0.073 C 
ATOM     16  C   UNL     1       1.698  -0.132  -4.566  0.00  0.00    +0.126 A 
ATOM     17  C   UNL     1       0.591   0.638  -4.984  0.00  0.00    +0.293 A 
ATOM     18  O   UNL     1       0.352   0.801  -6.168  0.00  0.00    -0.264 OA
ATOM     19  N   UNL     1      -0.197   1.192  -4.033  0.00  0.00    -0.206 N 
ATOM     20  C   UNL     1       0.115   0.979  -2.723  0.00  0.00    +0.210 A 
ATOM     21  N   UNL     1       1.170   0.251  -2.396  0.00  0.00    -0.122 NA
ATOM     22  N   UNL     1       1.927  -0.288  -3.283  0.00  0.00    -0.146 NA
BRANCH  19  23
ATOM     23  N   UNL     1      -1.281   1.947  -4.378  0.00  0.00    -0.293 N 
ATOM     24  H   UNL     1      -1.375   2.009  -5.381  0.00  0.00    +0.163 HD
ATOM     25  H   UNL     1      -2.124   1.584  -3.958  0.00  0.00    +0.163 HD
ENDBRANCH  19  23
ENDBRANCH  14  20
ENDBRANCH   1  14
TORSDOF 5
