REMARK  Name = ZINC41652118
REMARK  10 active torsions:
REMARK  status: ('A' for Active; 'I' for Inactive)
REMARK    1  A    between atoms: C_1  and  C_2
REMARK    2  A    between atoms: N_7  and  C_9
REMARK    3  A    between atoms: C_9  and  C_11
REMARK    4  A    between atoms: C_9  and  C_12
REMARK    5  A    between atoms: C_12  and  N_13
REMARK    6  A    between atoms: C_14  and  C_16
REMARK    7  A    between atoms: N_18  and  C_19
REMARK    8  A    between atoms: C_23  and  C_25
REMARK    9  A    between atoms: C_25  and  O_27
REMARK   10  A    between atoms: O_27  and  C_28
REMARK                            x       y       z     vdW  Elec       q    Type
REMARK                         _______ _______ _______ _____ _____    ______ ____
ROOT
ATOM      1  N   UNL     1       3.064  -0.568   2.165  0.00  0.00    -0.309 N 
ATOM      2  C   UNL     1       4.245   0.041   1.940  0.00  0.00    +0.299 C 
ATOM      3  O   UNL     1       5.250  -0.622   1.789  0.00  0.00    -0.265 OA
ATOM      4  H   UNL     1       2.260  -0.038   2.285  0.00  0.00    +0.149 HD
ENDROOT
BRANCH   2   5
ATOM      5  C   UNL     1       4.317   1.531   1.876  0.00  0.00    +0.303 C 
ATOM      6  O   UNL     1       3.312   2.194   2.026  0.00  0.00    -0.265 OA
ATOM      7  N   UNL     1       5.498   2.140   1.651  0.00  0.00    -0.278 N 
ATOM      8  H   UNL     1       6.313   1.615   1.601  0.00  0.00    +0.155 HD
BRANCH   7   9
ATOM      9  C   UNL     1       5.550   3.528   1.490  0.00  0.00    +0.035 A 
ATOM     10  C   UNL     1       4.699   4.345   2.225  0.00  0.00    +0.025 A 
ATOM     11  C   UNL     1       4.746   5.717   2.071  0.00  0.00    +0.022 A 
ATOM     12  C   UNL     1       5.639   6.287   1.183  0.00  0.00    +0.055 A 
ATOM     13  C   UNL     1       6.498   5.474   0.439  0.00  0.00    +0.079 A 
ATOM     14  C   UNL     1       6.454   4.088   0.601  0.00  0.00    +0.039 A 
ATOM     15 CL   UNL     1       5.693   8.012   0.993  0.00  0.00    -0.083 Cl
BRANCH  13  16
ATOM     16  C   UNL     1       7.454   6.079  -0.510  0.00  0.00    +0.340 C 
ATOM     17  O   UNL     1       7.494   7.286  -0.645  0.00  0.00    -0.245 OA
BRANCH  16  18
ATOM     18  O   UNL     1       8.281   5.293  -1.226  0.00  0.00    -0.464 OA
ATOM     19  C   UNL     1       9.180   5.946  -2.125  0.00  0.00    +0.280 C 
ENDBRANCH  16  18
ENDBRANCH  13  16
ENDBRANCH   7   9
ENDBRANCH   2   5
BRANCH   1  20
ATOM     20  C   UNL     1       2.993  -2.030   2.227  0.00  0.00    +0.089 C 
BRANCH  20  21
ATOM     21  C   UNL     1       1.533  -2.465   2.363  0.00  0.00    -0.054 C 
ATOM     22  C   UNL     1       1.448  -3.991   2.313  0.00  0.00    -0.012 C 
BRANCH  21  28
ATOM     23  C   UNL     1      -2.974  -1.954   0.521  0.00  0.00    +0.005 C 
ATOM     24  C   UNL     1      -1.501  -1.585   0.336  0.00  0.00    -0.031 C 
ATOM     25  C   UNL     1      -1.017  -2.081  -1.030  0.00  0.00    -0.001 C 
ATOM     26  C   UNL     1       0.477  -1.776  -1.172  0.00  0.00    -0.018 C 
ATOM     27  C   UNL     1       1.238  -2.428  -0.015  0.00  0.00    -0.078 C 
ATOM     28  N   UNL     1       0.747  -1.894   1.261  0.00  0.00    +0.383 N 
ATOM     29  C   UNL     1      -0.667  -2.244   1.438  0.00  0.00    -0.075 C 
ATOM     30  H   UNL     1       0.847  -0.890   1.264  0.00  0.00    -0.081 HD
ENDBRANCH  21  28
ENDBRANCH  20  21
ENDBRANCH   1  20
TORSDOF 7
