REMARK  Name = ZINC66715561
REMARK  6 active torsions:
REMARK  status: ('A' for Active; 'I' for Inactive)
REMARK    1  A    between atoms: C_1  and  C_2
REMARK    2  A    between atoms: C_9  and  N_12
REMARK    3  A    between atoms: C_13  and  C_15
REMARK    4  A    between atoms: C_18  and  N_21
REMARK    5  A    between atoms: C_22  and  N_28
REMARK    6  A    between atoms: C_23  and  C_26
REMARK                            x       y       z     vdW  Elec       q    Type
REMARK                         _______ _______ _______ _____ _____    ______ ____
ROOT
ATOM      1  C   UNL     1      -0.159  -1.867   6.059  0.00  0.00    +0.037 A 
ATOM      2  C   UNL     1      -0.185  -0.470   6.041  0.00  0.00    +0.015 A 
ATOM      3  C   UNL     1      -0.295   0.229   7.222  0.00  0.00    +0.028 A 
ATOM      4  C   UNL     1      -0.379  -0.453   8.431  0.00  0.00    +0.067 A 
ATOM      5  C   UNL     1      -0.352  -1.844   8.452  0.00  0.00    +0.028 A 
ATOM      6  C   UNL     1      -0.250  -2.550   7.275  0.00  0.00    +0.015 A 
ENDROOT
BRANCH   4   7
ATOM      7  N   UNL     1      -0.489   0.260   9.628  0.00  0.00    -0.218 N 
ATOM      8  C   UNL     1      -1.198  -0.124  10.721  0.00  0.00    +0.137 A 
ATOM      9  C   UNL     1      -1.038   0.871  11.681  0.00  0.00    +0.111 A 
ATOM     10  C   UNL     1      -0.204   1.863  11.114  0.00  0.00    +0.155 A 
ATOM     11  N   UNL     1       0.117   1.490   9.908  0.00  0.00    -0.172 NA
BRANCH   8  12
ATOM     12  N   UNL     1      -1.939  -1.283  10.854  0.00  0.00    -0.342 N 
ATOM     13  H   UNL     1      -1.986  -1.915  10.120  0.00  0.00    +0.144 HD
ATOM     14  H   UNL     1      -2.411  -1.464  11.681  0.00  0.00    +0.144 HD
ENDBRANCH   8  12
BRANCH   9  15
ATOM     15  C   UNL     1      -1.610   0.887  12.993  0.00  0.00    +0.104 C 
ATOM     16  N   UNL     1      -2.064   0.901  14.035  0.00  0.00    -0.191 NA
ENDBRANCH   9  15
ENDBRANCH   4   7
BRANCH   1  18
ATOM     17  N   UNL     1       0.045  -1.961   3.623  0.00  0.00    -0.280 N 
ATOM     18  C   UNL     1      -0.042  -2.621   4.795  0.00  0.00    +0.248 C 
ATOM     19  O   UNL     1      -0.024  -3.837   4.811  0.00  0.00    -0.270 OA
ATOM     20  H   UNL     1       0.112  -0.994   3.614  0.00  0.00    +0.155 HD
BRANCH  17  29
ATOM     21  C   UNL     1       2.400   0.969   0.318  0.00  0.00    +0.065 C 
ATOM     22  C   UNL     1       1.763  -0.394   0.227  0.00  0.00    +0.039 A 
ATOM     23  C   UNL     1       1.777  -1.069  -0.992  0.00  0.00    +0.023 A 
ATOM     24  C   UNL     1       1.204  -2.305  -1.093  0.00  0.00    +0.012 A 
ATOM     25  C   UNL     1       0.612  -2.858   0.058  0.00  0.00    +0.002 A 
ATOM     26  C   UNL     1       0.005  -4.125   0.029  0.00  0.00    +0.010 A 
ATOM     27  C   UNL     1      -0.559  -4.633   1.159  0.00  0.00    +0.003 A 
ATOM     28  C   UNL     1      -0.546  -3.916   2.352  0.00  0.00    +0.025 A 
ATOM     29  C   UNL     1       0.039  -2.671   2.420  0.00  0.00    +0.060 A 
ATOM     30  C   UNL     1       0.633  -2.117   1.264  0.00  0.00    +0.092 A 
ATOM     31  N   UNL     1       1.215  -0.915   1.297  0.00  0.00    -0.250 NA
ENDBRANCH  17  29
ENDBRANCH   1  18
TORSDOF 5
