REMARK  Name = ZINC63648745
REMARK  7 active torsions:
REMARK  status: ('A' for Active; 'I' for Inactive)
REMARK    1  A    between atoms: C_6  and  C_10
REMARK    2  A    between atoms: C_10  and  C_11
REMARK    3  A    between atoms: C_11  and  N_12
REMARK    4  A    between atoms: C_13  and  C_15
REMARK    5  A    between atoms: C_15  and  S_16
REMARK    6  A    between atoms: S_16  and  C_17
REMARK    7  A    between atoms: C_20  and  C_29
REMARK                            x       y       z     vdW  Elec       q    Type
REMARK                         _______ _______ _______ _____ _____    ______ ____
ROOT
ATOM      1  S   UNL     1       2.962  -8.622  -3.935  0.00  0.00    -0.110 S 
ENDROOT
BRANCH   1   2
ATOM      2  C   UNL     1       3.598  -9.334  -5.478  0.00  0.00    +0.235 C 
ATOM      3  N   UNL     1       5.070  -9.273  -5.482  0.00  0.00    -0.262 NA
ATOM      4  C   UNL     1       5.623  -9.654  -6.792  0.00  0.00    +0.210 C 
ATOM      5  N   UNL     1       5.196  -8.656  -7.793  0.00  0.00    -0.308 N 
ATOM      6  C   UNL     1       3.875  -8.273  -7.725  0.00  0.00    +0.123 A 
ATOM      7  N   UNL     1       3.098  -8.564  -6.620  0.00  0.00    -0.243 N 
ATOM      8  N   UNL     1       1.836  -8.015  -6.829  0.00  0.00    -0.260 N 
ATOM      9  C   UNL     1       1.830  -7.443  -8.053  0.00  0.00    +0.267 A 
ATOM     10  O   UNL     1       0.881  -6.885  -8.578  0.00  0.00    -0.266 OA
ATOM     11  C   UNL     1       3.111  -7.601  -8.616  0.00  0.00    +0.114 A 
ATOM     12  H   UNL     1       5.395  -8.358  -5.205  0.00  0.00    +0.127 HD
ATOM     13  H   UNL     1       1.093  -8.038  -6.205  0.00  0.00    +0.190 HD
ATOM     14  H   UNL     1       5.806  -8.294  -8.455  0.00  0.00    +0.149 HD
BRANCH   4  15
ATOM     15  C   UNL     1       7.128  -9.688  -6.715  0.00  0.00    +0.140 A 
ATOM     16  C   UNL     1       7.973  -9.427  -7.729  0.00  0.00    +0.048 A 
ATOM     17  C   UNL     1       9.283  -9.573  -7.218  0.00  0.00    +0.041 A 
ATOM     18  C   UNL     1       9.160  -9.915  -5.923  0.00  0.00    +0.195 A 
ATOM     19  O   UNL     1       7.853  -9.977  -5.622  0.00  0.00    -0.465 OA
ENDBRANCH   4  15
ENDBRANCH   1   2
BRANCH   1  20
ATOM     20  C   UNL     1       3.584  -6.918  -3.949  0.00  0.00    +0.168 C 
BRANCH  20  22
ATOM     21  N   UNL     1       3.466  -4.918  -2.499  0.00  0.00    -0.315 N 
ATOM     22  C   UNL     1       3.122  -6.204  -2.705  0.00  0.00    +0.223 C 
ATOM     23  O   UNL     1       2.439  -6.787  -1.890  0.00  0.00    -0.275 OA
ATOM     24  H   UNL     1       4.012  -4.451  -3.151  0.00  0.00    +0.149 HD
BRANCH  21  25
ATOM     25  C   UNL     1       3.016  -4.223  -1.290  0.00  0.00    +0.108 C 
BRANCH  25  26
ATOM     26  C   UNL     1       3.542  -2.787  -1.302  0.00  0.00    +0.065 C 
BRANCH  26  32
ATOM     27  C   UNL     1      -0.016   1.344   0.009  0.00  0.00    +0.002 A 
ATOM     28  C   UNL     1       1.158   2.118   0.002  0.00  0.00    +0.002 A 
ATOM     29  C   UNL     1       2.389   1.570  -0.013  0.00  0.00    +0.027 A 
ATOM     30  C   UNL     1       2.533   0.108  -0.022  0.00  0.00    +0.060 A 
ATOM     31  N   UNL     1       3.569  -0.680  -0.036  0.00  0.00    -0.363 N 
ATOM     32  C   UNL     1       3.071  -2.062  -0.039  0.00  0.00    +0.175 C 
ATOM     33  N   UNL     1       1.606  -1.974  -0.024  0.00  0.00    -0.363 N 
ATOM     34  C   UNL     1       1.290  -0.712  -0.014  0.00  0.00    +0.060 A 
ATOM     35  C   UNL     1       0.002  -0.004   0.002  0.00  0.00    +0.027 A 
ATOM     36  H   UNL     1       4.499  -0.405  -0.045  0.00  0.00    +0.162 HD
ATOM     37  H   UNL     1       0.987  -2.721  -0.022  0.00  0.00    +0.162 HD
ENDBRANCH  26  32
ENDBRANCH  25  26
ENDBRANCH  21  25
ENDBRANCH  20  22
ENDBRANCH   1  20
TORSDOF 7
