REMARK  Name = ZINC02235791
REMARK  8 active torsions:
REMARK  status: ('A' for Active; 'I' for Inactive)
REMARK    1  A    between atoms: C_1  and  C_2
REMARK    2  A    between atoms: C_2  and  O_3
REMARK    3  A    between atoms: O_3  and  C_4
REMARK    4  A    between atoms: C_4  and  C_6
REMARK    5  A    between atoms: C_10  and  N_11
REMARK    6  A    between atoms: N_14  and  S_15
REMARK    7  A    between atoms: S_15  and  C_18
REMARK    8  A    between atoms: C_21  and  C_24
REMARK                            x       y       z     vdW  Elec       q    Type
REMARK                         _______ _______ _______ _____ _____    ______ ____
ROOT
ATOM      1  N   UNL     1       2.262  -3.025  -3.694  0.00  0.00    -0.262 N 
ATOM      2  C   UNL     1       2.269  -2.633  -2.405  0.00  0.00    +0.323 C 
ATOM      3  O   UNL     1       3.220  -2.017  -1.962  0.00  0.00    -0.251 OA
ATOM      4  N   UNL     1       1.223  -2.923  -1.606  0.00  0.00    -0.169 N 
ATOM      5  H   UNL     1       1.504  -3.516  -4.047  0.00  0.00    +0.157 HD
ATOM      6  H   UNL     1       0.465  -3.414  -1.959  0.00  0.00    +0.178 HD
ENDROOT
BRANCH   1  11
ATOM      7  C   UNL     1       3.516  -3.047  -5.855  0.00  0.00    +0.091 A 
ATOM      8  C   UNL     1       4.747  -2.609  -6.492  0.00  0.00    -0.021 A 
ATOM      9  C   UNL     1       5.600  -1.935  -5.691  0.00  0.00    -0.004 A 
ATOM     10  S   UNL     1       4.791  -1.871  -4.118  0.00  0.00    -0.077 S 
ATOM     11  C   UNL     1       3.338  -2.727  -4.515  0.00  0.00    +0.088 A 
ATOM     12  C   UNL     1       6.936  -1.372  -6.066  0.00  0.00    +0.043 C 
ATOM     13  C   UNL     1       7.367  -1.996  -7.401  0.00  0.00    +0.005 C 
ATOM     14  C   UNL     1       6.196  -1.915  -8.384  0.00  0.00    +0.005 C 
ATOM     15  C   UNL     1       5.087  -2.877  -7.953  0.00  0.00    +0.037 C 
BRANCH   7  16
ATOM     16  C   UNL     1       2.500  -3.795  -6.599  0.00  0.00    +0.342 C 
ATOM     17  O   UNL     1       1.616  -3.200  -7.186  0.00  0.00    -0.245 OA
BRANCH  16  18
ATOM     18  O   UNL     1       2.545  -5.142  -6.633  0.00  0.00    -0.461 OA
BRANCH  18  20
ATOM     19  C   UNL     1       1.721  -7.330  -7.314  0.00  0.00    +0.048 C 
ATOM     20  C   UNL     1       1.506  -5.817  -7.390  0.00  0.00    +0.229 C 
ENDBRANCH  18  20
ENDBRANCH  16  18
ENDBRANCH   7  16
ENDBRANCH   1  11
BRANCH   4  21
ATOM     21  S   UNL     1       1.232  -2.441  -0.022  0.00  0.00    +0.076 S 
ATOM     22  O   UNL     1       2.489  -2.832   0.515  0.00  0.00    -0.150 OA
ATOM     23  O   UNL     1      -0.002  -2.866   0.539  0.00  0.00    -0.150 OA
BRANCH  21  24
ATOM     24  C   UNL     1       1.208  -0.679  -0.013  0.00  0.00    +0.109 A 
ATOM     25  C   UNL     1       0.002  -0.004   0.002  0.00  0.00    +0.029 A 
ATOM     26  C   UNL     1      -0.017   1.378   0.010  0.00  0.00    +0.005 A 
ATOM     27  C   UNL     1       1.171   2.086   0.002  0.00  0.00    -0.050 A 
ATOM     28  C   UNL     1       2.377   1.411  -0.015  0.00  0.00    +0.005 A 
ATOM     29  C   UNL     1       2.396   0.029  -0.021  0.00  0.00    +0.029 A 
ATOM     30  C   UNL     1       1.151   3.592   0.010  0.00  0.00    +0.044 C 
ENDBRANCH  21  24
ENDBRANCH   4  21
TORSDOF 6
