REMARK  Name = ZINC23511512
REMARK  10 active torsions:
REMARK  status: ('A' for Active; 'I' for Inactive)
REMARK    1  A    between atoms: C_1  and  C_2
REMARK    2  A    between atoms: C_7  and  C_9
REMARK    3  A    between atoms: C_7  and  C_10
REMARK    4  A    between atoms: N_13  and  C_17
REMARK    5  A    between atoms: C_17  and  C_18
REMARK    6  A    between atoms: C_18  and  O_20
REMARK    7  A    between atoms: O_20  and  C_21
REMARK    8  A    between atoms: C_21  and  C_23
REMARK    9  A    between atoms: C_21  and  C_24
REMARK   10  A    between atoms: N_26  and  C_27
REMARK                            x       y       z     vdW  Elec       q    Type
REMARK                         _______ _______ _______ _____ _____    ______ ____
ROOT
ATOM      1  C   UNL     1       0.057  -3.700  -4.975  0.00  0.00    +0.238 C 
ENDROOT
BRANCH   1  13
ATOM      2  C   UNL     1       0.856   1.174   0.110  0.00  0.00    +0.007 C 
ATOM      3  C   UNL     1       0.548  -0.313  -0.077  0.00  0.00    -0.011 C 
ATOM      4  C   UNL     1       1.043  -0.768  -1.453  0.00  0.00    +0.038 C 
ATOM      5  C   UNL     1       0.756  -2.255  -1.631  0.00  0.00    +0.113 C 
ATOM      6  C   UNL     1       1.440  -3.071  -0.540  0.00  0.00    +0.041 C 
ATOM      7  C   UNL     1       0.945  -2.608   0.832  0.00  0.00    -0.032 C 
ATOM      8  C   UNL     1       1.258  -1.121   1.011  0.00  0.00    +0.009 C 
ATOM      9  C   UNL     1      -0.567  -2.825   0.929  0.00  0.00    +0.011 C 
ATOM     10  C   UNL     1       1.647  -3.413   1.927  0.00  0.00    +0.011 C 
ATOM     11  C   UNL     1       1.205  -2.719  -2.998  0.00  0.00    +0.247 C 
ATOM     12  O   UNL     1       2.331  -2.702  -3.445  0.00  0.00    -0.273 OA
ATOM     13  N   UNL     1       0.087  -3.156  -3.615  0.00  0.00    -0.213 N 
ATOM     14  C   UNL     1      -0.990  -3.031  -2.830  0.00  0.00    +0.310 C 
ATOM     15  O   UNL     1      -2.112  -3.358  -3.165  0.00  0.00    -0.252 OA
ATOM     16  N   UNL     1      -0.692  -2.503  -1.628  0.00  0.00    -0.285 N 
ATOM     17  H   UNL     1      -1.310  -2.322  -0.903  0.00  0.00    +0.151 HD
ENDBRANCH   1  13
BRANCH   1  18
ATOM     18  C   UNL     1       0.272  -5.191  -4.925  0.00  0.00    +0.326 C 
ATOM     19  O   UNL     1       0.434  -5.742  -3.862  0.00  0.00    -0.249 OA
BRANCH  18  20
ATOM     20  O   UNL     1       0.283  -5.905  -6.061  0.00  0.00    -0.451 OA
BRANCH  20  21
ATOM     21  C   UNL     1       0.492  -7.314  -5.939  0.00  0.00    +0.259 C 
ATOM     22  C   UNL     1      -0.857  -8.018  -5.783  0.00  0.00    +0.062 C 
BRANCH  21  23
ATOM     23  C   UNL     1       1.187  -7.827  -7.173  0.00  0.00    +0.258 C 
ATOM     24  O   UNL     1       1.475  -7.062  -8.069  0.00  0.00    -0.271 OA
ATOM     25  N   UNL     1       1.489  -9.136  -7.282  0.00  0.00    -0.280 N 
ATOM     26  H   UNL     1       1.192  -9.760  -6.601  0.00  0.00    +0.155 HD
BRANCH  25  27
ATOM     27  C   UNL     1       2.230  -9.596  -8.377  0.00  0.00    +0.069 A 
ATOM     28  C   UNL     1       3.197  -8.783  -8.953  0.00  0.00    +0.026 A 
ATOM     29  C   UNL     1       3.927  -9.239 -10.034  0.00  0.00    +0.002 A 
ATOM     30  C   UNL     1       3.696 -10.504 -10.543  0.00  0.00    +0.003 A 
ATOM     31  C   UNL     1       2.733 -11.317  -9.974  0.00  0.00    +0.040 A 
ATOM     32  C   UNL     1       2.003 -10.869  -8.888  0.00  0.00    +0.144 A 
ATOM     33  F   UNL     1       1.066 -11.666  -8.328  0.00  0.00    -0.204 F 
ENDBRANCH  25  27
ENDBRANCH  21  23
ENDBRANCH  20  21
ENDBRANCH  18  20
ENDBRANCH   1  18
TORSDOF 6
