REMARK  Name = ZINC49623764
REMARK  7 active torsions:
REMARK  status: ('A' for Active; 'I' for Inactive)
REMARK    1  A    between atoms: C_3  and  C_12
REMARK    2  A    between atoms: C_6  and  C_7
REMARK    3  A    between atoms: C_8  and  C_9
REMARK    4  A    between atoms: C_9  and  O_10
REMARK    5  A    between atoms: C_12  and  S_13
REMARK    6  A    between atoms: S_13  and  C_14
REMARK    7  A    between atoms: C_18  and  N_20
REMARK                            x       y       z     vdW  Elec       q    Type
REMARK                         _______ _______ _______ _____ _____    ______ ____
ROOT
ATOM      1  C   UNL     1       3.670   2.198  -0.022  0.00  0.00    +0.115 C 
ENDROOT
BRANCH   1   4
ATOM      2  C   UNL     1      -0.017   1.391   0.010  0.00  0.00    +0.017 A 
ATOM      3  C   UNL     1       1.170   2.095   0.002  0.00  0.00    +0.008 A 
ATOM      4  C   UNL     1       2.378   1.422  -0.013  0.00  0.00    -0.002 A 
ATOM      5  C   UNL     1       2.405   0.036  -0.022  0.00  0.00    +0.129 A 
ATOM      6  C   UNL     1       1.223  -0.680  -0.014  0.00  0.00    +0.055 A 
ATOM      7  C   UNL     1       0.002  -0.004   0.002  0.00  0.00    +0.028 A 
ATOM      8  F   UNL     1       3.588  -0.615  -0.037  0.00  0.00    -0.205 F 
BRANCH   7   9
ATOM      9  C   UNL     1      -1.226  -0.740   0.010  0.00  0.00    -0.064 C 
ATOM     10  C   UNL     1      -2.234  -1.343   0.017  0.00  0.00    -0.069 C 
BRANCH  10  11
ATOM     11  C   UNL     1      -3.497  -2.099   0.025  0.00  0.00    +0.244 C 
BRANCH  11  12
ATOM     12  O   UNL     1      -3.213  -3.499   0.015  0.00  0.00    -0.383 OA
ATOM     13  H   UNL     1      -4.001  -4.060   0.020  0.00  0.00    +0.211 HD
ENDBRANCH  11  12
ENDBRANCH  10  11
ENDBRANCH   7   9
ENDBRANCH   1   4
BRANCH   1  14
ATOM     14  S   UNL     1       4.205   2.500   1.685  0.00  0.00    -0.081 S 
BRANCH  14  15
ATOM     15  C   UNL     1       5.707   3.404   1.506  0.00  0.00    +0.192 A 
ATOM     16  N   UNL     1       6.148   3.689   0.290  0.00  0.00    -0.207 NA
ATOM     17  C   UNL     1       7.278   4.370   0.117  0.00  0.00    +0.122 A 
ATOM     18  C   UNL     1       7.998   4.784   1.235  0.00  0.00    +0.086 A 
ATOM     19  C   UNL     1       7.503   4.465   2.496  0.00  0.00    +0.122 A 
ATOM     20  N   UNL     1       6.363   3.785   2.593  0.00  0.00    -0.207 NA
ATOM     21  N   UNL     1       7.733   4.664  -1.159  0.00  0.00    -0.343 N 
ATOM     22  H   UNL     1       7.227   4.373  -1.933  0.00  0.00    +0.144 HD
ATOM     23  H   UNL     1       8.558   5.161  -1.277  0.00  0.00    +0.144 HD
BRANCH  19  24
ATOM     24  N   UNL     1       8.186   4.856   3.638  0.00  0.00    -0.343 N 
ATOM     25  H   UNL     1       9.015   5.354   3.560  0.00  0.00    +0.144 HD
ATOM     26  H   UNL     1       7.836   4.631   4.513  0.00  0.00    +0.144 HD
ENDBRANCH  19  24
ENDBRANCH  14  15
ENDBRANCH   1  14
TORSDOF 7
