REMARK  Name = ZINC64410871
REMARK  6 active torsions:
REMARK  status: ('A' for Active; 'I' for Inactive)
REMARK    1  A    between atoms: C_1  and  O_2
REMARK    2  A    between atoms: O_2  and  C_3
REMARK    3  A    between atoms: C_8  and  C_13
REMARK    4  A    between atoms: C_13  and  N_14
REMARK    5  A    between atoms: N_17  and  S_20
REMARK    6  A    between atoms: S_20  and  C_23
REMARK                            x       y       z     vdW  Elec       q    Type
REMARK                         _______ _______ _______ _____ _____    ______ ____
ROOT
ATOM      1  C   UNL     1      -4.788  -4.777  -1.220  0.00  0.00    +0.131 C 
ENDROOT
BRANCH   1   7
ATOM      2  C   UNL     1      -8.317  -0.784  -2.994  0.00  0.00    +0.122 A 
ATOM      3  C   UNL     1      -9.011  -1.925  -3.577  0.00  0.00    +0.048 A 
ATOM      4  C   UNL     1      -8.713  -3.192  -3.232  0.00  0.00    +0.031 A 
ATOM      5  C   UNL     1      -7.657  -3.449  -2.241  0.00  0.00    +0.060 A 
ATOM      6  N   UNL     1      -7.179  -4.551  -1.738  0.00  0.00    -0.362 N 
ATOM      7  C   UNL     1      -6.127  -4.180  -0.783  0.00  0.00    +0.188 C 
ATOM      8  N   UNL     1      -6.054  -2.714  -0.795  0.00  0.00    -0.362 N 
ATOM      9  C   UNL     1      -6.947  -2.285  -1.645  0.00  0.00    +0.064 A 
ATOM     10  C   UNL     1      -7.329  -0.940  -2.079  0.00  0.00    +0.073 A 
ATOM     11  H   UNL     1      -7.465  -5.452  -1.954  0.00  0.00    +0.162 HD
ATOM     12  H   UNL     1      -5.453  -2.165  -0.267  0.00  0.00    +0.162 HD
BRANCH   2  14
ATOM     13  C   UNL     1      -9.711   0.580  -4.349  0.00  0.00    +0.277 C 
ATOM     14  O   UNL     1      -8.664   0.468  -3.383  0.00  0.00    -0.495 OA
ENDBRANCH   2  14
ENDBRANCH   1   7
BRANCH   1  15
ATOM     15  N   UNL     1      -4.364  -4.159  -2.483  0.00  0.00    -0.296 NA
ATOM     16  C   UNL     1      -2.915  -4.298  -2.678  0.00  0.00    +0.101 C 
ATOM     17  C   UNL     1      -2.488  -3.489  -3.906  0.00  0.00    +0.125 C 
ATOM     18  N   UNL     1      -3.312  -3.906  -5.051  0.00  0.00    -0.174 NA
ATOM     19  C   UNL     1      -4.773  -3.924  -4.886  0.00  0.00    +0.125 C 
ATOM     20  C   UNL     1      -5.111  -4.716  -3.618  0.00  0.00    +0.101 C 
BRANCH  18  21
ATOM     21  S   UNL     1      -2.613  -4.344  -6.487  0.00  0.00    +0.067 S 
ATOM     22  O   UNL     1      -3.595  -4.144  -7.494  0.00  0.00    -0.152 OA
ATOM     23  O   UNL     1      -1.340  -3.714  -6.528  0.00  0.00    -0.152 OA
BRANCH  21  24
ATOM     24  C   UNL     1      -2.314  -6.079  -6.413  0.00  0.00    +0.143 A 
ATOM     25  C   UNL     1      -3.120  -7.101  -6.791  0.00  0.00    +0.036 A 
ATOM     26  C   UNL     1      -2.672  -8.400  -6.640  0.00  0.00    +0.010 A 
ATOM     27  C   UNL     1      -1.439  -8.613  -6.119  0.00  0.00    +0.047 A 
ATOM     28  S   UNL     1      -0.867  -6.947  -5.829  0.00  0.00    -0.077 S 
ENDBRANCH  21  24
ENDBRANCH  18  21
ENDBRANCH   1  15
TORSDOF 5
