REMARK  Name = ZINC20220424
REMARK  10 active torsions:
REMARK  status: ('A' for Active; 'I' for Inactive)
REMARK    1  A    between atoms: C_1  and  O_2
REMARK    2  A    between atoms: O_2  and  C_3
REMARK    3  A    between atoms: C_3  and  C_5
REMARK    4  A    between atoms: C_5  and  C_7
REMARK    5  A    between atoms: C_5  and  N_18
REMARK    6  A    between atoms: C_7  and  C_8
REMARK    7  A    between atoms: C_11  and  O_17
REMARK    8  A    between atoms: C_12  and  N_14
REMARK    9  A    between atoms: C_19  and  C_20
REMARK   10  A    between atoms: C_25  and  O_26
REMARK                            x       y       z     vdW  Elec       q    Type
REMARK                         _______ _______ _______ _____ _____    ______ ____
ROOT
ATOM      1  C   UNL     1       1.153   4.095   1.455  0.00  0.00    +0.217 C 
ENDROOT
BRANCH   1   2
ATOM      2  C   UNL     1       1.006   5.595   1.466  0.00  0.00    +0.332 C 
ATOM      3  O   UNL     1       1.868   6.283   1.958  0.00  0.00    -0.248 OA
BRANCH   2   5
ATOM      4  C   UNL     1      -0.158   7.616   0.974  0.00  0.00    +0.280 C 
ATOM      5  O   UNL     1      -0.083   6.167   0.928  0.00  0.00    -0.466 OA
ENDBRANCH   2   5
ENDBRANCH   1   2
BRANCH   1   6
ATOM      6  N   UNL     1       2.417   3.724   2.096  0.00  0.00    -0.276 NA
ATOM      7  C   UNL     1       2.412   2.968   3.147  0.00  0.00    +0.117 C 
BRANCH   7   8
ATOM      8  C   UNL     1       3.683   2.595   3.792  0.00  0.00    +0.034 A 
ATOM      9  C   UNL     1       3.682   1.784   4.930  0.00  0.00    +0.013 A 
ATOM     10  C   UNL     1       4.874   1.435   5.526  0.00  0.00    +0.001 A 
ATOM     11  C   UNL     1       6.075   1.892   5.008  0.00  0.00    +0.004 A 
ATOM     12  C   UNL     1       6.090   2.698   3.887  0.00  0.00    +0.046 A 
ATOM     13  C   UNL     1       4.900   3.056   3.271  0.00  0.00    +0.125 A 
BRANCH  13  14
ATOM     14  O   UNL     1       4.913   3.848   2.169  0.00  0.00    -0.506 OA
ATOM     15  H   UNL     1       5.870   4.208   1.763  0.00  0.00    +0.292 HD
ENDBRANCH  13  14
ENDBRANCH   7   8
ENDBRANCH   1   6
BRANCH   1  16
ATOM     16  C   UNL     1       1.147   3.593   0.010  0.00  0.00    +0.073 C 
BRANCH  16  17
ATOM     17  C   UNL     1       1.171   2.086   0.002  0.00  0.00    -0.042 A 
ATOM     18  C   UNL     1      -0.017   1.377   0.010  0.00  0.00    +0.007 A 
ATOM     19  C   UNL     1       0.002  -0.004   0.002  0.00  0.00    +0.048 A 
ATOM     20  C   UNL     1       1.214  -0.680  -0.013  0.00  0.00    +0.147 A 
ATOM     21  C   UNL     1       2.403   0.033  -0.021  0.00  0.00    +0.168 A 
ATOM     22  C   UNL     1       2.379   1.415  -0.013  0.00  0.00    +0.040 A 
BRANCH  21  23
ATOM     23  N   UNL     1       3.697  -0.685  -0.037  0.00  0.00    +0.060 N 
ATOM     24  O   UNL     1       4.742  -0.058  -0.044  0.00  0.00    -0.126 OA
ATOM     25  O   UNL     1       3.718  -1.903  -0.044  0.00  0.00    -0.126 OA
ENDBRANCH  21  23
BRANCH  20  26
ATOM     26  O   UNL     1       1.235  -2.039  -0.021  0.00  0.00    -0.504 OA
ATOM     27  H   UNL     1       2.196  -2.574  -0.033  0.00  0.00    +0.292 HD
ENDBRANCH  20  26
ENDBRANCH  16  17
ENDBRANCH   1  16
TORSDOF 9
