REMARK  Name = ZINC67339664
REMARK  7 active torsions:
REMARK  status: ('A' for Active; 'I' for Inactive)
REMARK    1  A    between atoms: C_1  and  N_2
REMARK    2  A    between atoms: N_2  and  S_3
REMARK    3  A    between atoms: S_3  and  C_6
REMARK    4  A    between atoms: C_9  and  C_11
REMARK    5  A    between atoms: C_15  and  N_24
REMARK    6  A    between atoms: N_24  and  C_25
REMARK    7  A    between atoms: N_24  and  C_26
REMARK                            x       y       z     vdW  Elec       q    Type
REMARK                         _______ _______ _______ _____ _____    ______ ____
ROOT
ATOM      1  C   UNL     1      -4.391   1.481  -3.637  0.00  0.00    +0.286 C 
ATOM      2  O   UNL     1      -3.533   0.761  -3.161  0.00  0.00    -0.266 OA
ATOM      3  N   UNL     1      -4.902   2.493  -2.908  0.00  0.00    -0.266 N 
ATOM      4  C   UNL     1      -5.987   3.326  -3.444  0.00  0.00    +0.099 C 
ATOM      5  C   UNL     1      -5.645   4.791  -3.141  0.00  0.00    -0.047 C 
ATOM      6  C   UNL     1      -5.609   4.987  -1.626  0.00  0.00    +0.023 C 
ATOM      7  C   UNL     1      -4.723   3.953  -0.982  0.00  0.00    -0.027 A 
ATOM      8  C   UNL     1      -4.412   2.764  -1.624  0.00  0.00    +0.040 A 
ATOM      9  C   UNL     1      -3.599   1.825  -0.997  0.00  0.00    +0.024 A 
ATOM     10  C   UNL     1      -3.103   2.075   0.267  0.00  0.00    +0.002 A 
ATOM     11  C   UNL     1      -3.416   3.259   0.909  0.00  0.00    +0.000 A 
ATOM     12  C   UNL     1      -4.217   4.199   0.283  0.00  0.00    +0.005 A 
ENDROOT
BRANCH   1  16
ATOM     13  C   UNL     1      -5.936   1.508  -6.903  0.00  0.00    +0.258 A 
ATOM     14  C   UNL     1      -5.211   0.374  -7.017  0.00  0.00    +0.072 A 
ATOM     15  C   UNL     1      -4.524   0.198  -5.806  0.00  0.00    +0.057 A 
ATOM     16  C   UNL     1      -4.869   1.248  -5.003  0.00  0.00    +0.192 A 
ATOM     17  O   UNL     1      -5.723   2.035  -5.689  0.00  0.00    -0.432 OA
BRANCH  13  18
ATOM     18  S   UNL     1      -6.982   2.188  -8.147  0.00  0.00    +0.091 S 
ATOM     19  O   UNL     1      -6.441   1.783  -9.397  0.00  0.00    -0.150 OA
ATOM     20  O   UNL     1      -7.181   3.554  -7.809  0.00  0.00    -0.150 OA
BRANCH  18  22
ATOM     21  C   UNL     1      -9.263   1.644  -6.800  0.00  0.00    +0.128 C 
ATOM     22  N   UNL     1      -8.456   1.446  -8.006  0.00  0.00    -0.190 NA
ATOM     23  H   UNL     1      -8.784   0.880  -8.722  0.00  0.00    +0.148 HD
ENDBRANCH  18  22
ENDBRANCH  13  18
ENDBRANCH   1  16
BRANCH   5  24
ATOM     24  N   UNL     1      -6.668   5.666  -3.729  0.00  0.00    +0.379 N 
ATOM     25  C   UNL     1      -6.339   7.068  -3.438  0.00  0.00    -0.096 C 
ATOM     26  C   UNL     1      -6.709   5.464  -5.184  0.00  0.00    -0.096 C 
ATOM     27  H   UNL     1      -7.569   5.443  -3.333  0.00  0.00    -0.082 HD
ENDBRANCH   5  24
TORSDOF 4
