REMARK  Name = ZINC13203175
REMARK  10 active torsions:
REMARK  status: ('A' for Active; 'I' for Inactive)
REMARK    1  A    between atoms: C_1  and  C_2
REMARK    2  A    between atoms: C_2  and  C_4
REMARK    3  A    between atoms: C_2  and  S_16
REMARK    4  A    between atoms: N_6  and  C_7
REMARK    5  A    between atoms: C_11  and  C_13
REMARK    6  A    between atoms: C_13  and  C_15
REMARK    7  A    between atoms: S_16  and  C_17
REMARK    8  A    between atoms: C_20  and  C_25
REMARK    9  A    between atoms: N_21  and  C_22
REMARK   10  A    between atoms: C_22  and  C_23
REMARK                            x       y       z     vdW  Elec       q    Type
REMARK                         _______ _______ _______ _____ _____    ______ ____
ROOT
ATOM      1  C   UNL     1      -3.409  -1.575   3.258  0.00  0.00    +0.029 C 
ATOM      2  C   UNL     1      -3.930  -0.178   3.598  0.00  0.00    +0.137 C 
ENDROOT
BRANCH   2   3
ATOM      3  C   UNL     1      -3.887   0.025   5.090  0.00  0.00    +0.230 C 
ATOM      4  O   UNL     1      -2.977   0.651   5.592  0.00  0.00    -0.274 OA
ATOM      5  N   UNL     1      -4.860  -0.490   5.869  0.00  0.00    -0.285 N 
ATOM      6  H   UNL     1      -5.626  -0.925   5.463  0.00  0.00    +0.155 HD
BRANCH   5   7
ATOM      7  C   UNL     1      -4.763  -0.398   7.262  0.00  0.00    +0.034 A 
ATOM      8  C   UNL     1      -5.914  -0.257   8.030  0.00  0.00    +0.023 A 
ATOM      9  C   UNL     1      -5.826  -0.166   9.407  0.00  0.00    +0.002 A 
ATOM     10  C   UNL     1      -4.596  -0.214  10.029  0.00  0.00    +0.011 A 
ATOM     11  C   UNL     1      -3.432  -0.356   9.267  0.00  0.00    +0.019 A 
ATOM     12  C   UNL     1      -3.523  -0.453   7.875  0.00  0.00    +0.034 A 
BRANCH  11  13
ATOM     13  C   UNL     1      -2.118  -0.408   9.927  0.00  0.00    +0.160 C 
ATOM     14  O   UNL     1      -1.110  -0.531   9.264  0.00  0.00    -0.292 OA
ATOM     15  C   UNL     1      -2.024  -0.308  11.428  0.00  0.00    +0.091 C 
ENDBRANCH  11  13
ENDBRANCH   5   7
ENDBRANCH   2   3
BRANCH   2  16
ATOM     16  S   UNL     1      -2.892   1.066   2.790  0.00  0.00    -0.073 S 
BRANCH  16  17
ATOM     17  C   UNL     1      -3.238   0.703   1.101  0.00  0.00    +0.193 A 
ATOM     18  N   UNL     1      -4.043  -0.234   0.655  0.00  0.00    -0.122 NA
ATOM     19  N   UNL     1      -4.064  -0.225  -0.630  0.00  0.00    -0.128 NA
ATOM     20  C   UNL     1      -3.276   0.725  -1.085  0.00  0.00    +0.172 A 
ATOM     21  N   UNL     1      -2.718   1.344   0.011  0.00  0.00    -0.291 N 
BRANCH  20  22
ATOM     22  C   UNL     1      -3.034   1.059  -2.498  0.00  0.00    +0.056 A 
ATOM     23  C   UNL     1      -3.320   0.326  -3.621  0.00  0.00    +0.019 A 
ATOM     24  C   UNL     1      -3.002   0.853  -4.853  0.00  0.00    +0.008 A 
ATOM     25  C   UNL     1      -2.406   2.071  -4.918  0.00  0.00    +0.046 A 
ATOM     26  S   UNL     1      -2.284   2.522  -3.195  0.00  0.00    -0.094 S 
ENDBRANCH  20  22
BRANCH  21  27
ATOM     27  C   UNL     1      -1.770   2.461   0.010  0.00  0.00    +0.250 C 
BRANCH  27  28
ATOM     28  C   UNL     1      -0.362   1.925  -0.015  0.00  0.00    +0.375 C 
ATOM     29  O   UNL     1      -0.170   0.732  -0.030  0.00  0.00    -0.244 OA
ATOM     30  O   UNL     1       0.679   2.773  -0.026  0.00  0.00    -0.244 OA
ENDBRANCH  27  28
ENDBRANCH  21  27
ENDBRANCH  16  17
ENDBRANCH   2  16
TORSDOF 8
