REMARK  Name = ZINC45725296
REMARK  6 active torsions:
REMARK  status: ('A' for Active; 'I' for Inactive)
REMARK    1  A    between atoms: C_1  and  C_2
REMARK    2  A    between atoms: C_2  and  C_4
REMARK    3  A    between atoms: C_2  and  N_14
REMARK    4  A    between atoms: N_17  and  C_18
REMARK    5  A    between atoms: C_23  and  C_24
REMARK    6  A    between atoms: C_24  and  C_25
REMARK                            x       y       z     vdW  Elec       q    Type
REMARK                         _______ _______ _______ _____ _____    ______ ____
ROOT
ATOM      1  N   UNL     1       0.423  -0.746  -0.920  0.00  0.00    -0.293 N 
ATOM      2  C   UNL     1      -0.124  -0.816  -2.150  0.00  0.00    +0.304 C 
ATOM      3  O   UNL     1      -1.263  -0.431  -2.331  0.00  0.00    -0.252 OA
ATOM      4  N   UNL     1       0.591  -1.313  -3.178  0.00  0.00    -0.269 N 
ATOM      5  H   UNL     1       1.332  -1.054  -0.775  0.00  0.00    +0.151 HD
ATOM      6  H   UNL     1       1.479  -1.672  -3.023  0.00  0.00    +0.156 HD
ENDROOT
BRANCH   4   7
ATOM      7  C   UNL     1       0.053  -1.312  -4.470  0.00  0.00    +0.038 A 
ATOM      8  C   UNL     1      -1.323  -1.363  -4.651  0.00  0.00    +0.023 A 
ATOM      9  C   UNL     1      -1.851  -1.361  -5.926  0.00  0.00    +0.002 A 
ATOM     10  C   UNL     1      -1.011  -1.309  -7.024  0.00  0.00    +0.000 A 
ATOM     11  C   UNL     1       0.360  -1.259  -6.847  0.00  0.00    +0.006 A 
ATOM     12  C   UNL     1       0.894  -1.254  -5.574  0.00  0.00    -0.017 A 
BRANCH  12  13
ATOM     13  C   UNL     1       2.387  -1.193  -5.382  0.00  0.00    +0.132 C 
BRANCH  13  14
ATOM     14  C   UNL     1       2.931  -2.589  -5.223  0.00  0.00    +0.215 C 
ATOM     15  O   UNL     1       2.179  -3.541  -5.261  0.00  0.00    -0.276 OA
ATOM     16  N   UNL     1       4.252  -2.781  -5.038  0.00  0.00    -0.329 N 
ATOM     17  H   UNL     1       4.853  -2.020  -5.007  0.00  0.00    +0.145 HD
ATOM     18  H   UNL     1       4.602  -3.680  -4.935  0.00  0.00    +0.145 HD
ENDBRANCH  13  14
ENDBRANCH  12  13
ENDBRANCH   4   7
BRANCH   1  20
ATOM     19  C   UNL     1      -0.203   1.316   0.236  0.00  0.00    +0.033 C 
ATOM     20  C   UNL     1      -0.354  -0.206   0.198  0.00  0.00    +0.102 C 
BRANCH  20  21
ATOM     21  C   UNL     1       0.150  -0.793   1.491  0.00  0.00    -0.020 A 
ATOM     22  C   UNL     1       1.443  -1.204   1.597  0.00  0.00    +0.006 A 
ATOM     23  C   UNL     1       1.927  -1.749   2.785  0.00  0.00    +0.001 A 
ATOM     24  C   UNL     1       1.121  -1.888   3.873  0.00  0.00    +0.008 A 
ATOM     25  C   UNL     1      -0.220  -1.475   3.800  0.00  0.00    -0.018 A 
ATOM     26  C   UNL     1      -0.711  -0.915   2.595  0.00  0.00    -0.013 A 
ATOM     27  C   UNL     1      -2.051  -0.496   2.525  0.00  0.00    +0.009 A 
ATOM     28  C   UNL     1      -2.856  -0.629   3.614  0.00  0.00    +0.001 A 
ATOM     29  C   UNL     1      -2.371  -1.175   4.802  0.00  0.00    +0.001 A 
ATOM     30  C   UNL     1      -1.083  -1.603   4.902  0.00  0.00    +0.008 A 
ENDBRANCH  20  21
ENDBRANCH   1  20
TORSDOF 5
