REMARK  Name = ZINC20745884
REMARK  10 active torsions:
REMARK  status: ('A' for Active; 'I' for Inactive)
REMARK    1  A    between atoms: C_1  and  O_2
REMARK    2  A    between atoms: O_2  and  C_3
REMARK    3  A    between atoms: C_3  and  C_5
REMARK    4  A    between atoms: C_5  and  C_6
REMARK    5  A    between atoms: C_6  and  C_7
REMARK    6  A    between atoms: C_7  and  C_9
REMARK    7  A    between atoms: C_7  and  N_13
REMARK    8  A    between atoms: C_9  and  O_11
REMARK    9  A    between atoms: O_11  and  C_12
REMARK   10  A    between atoms: C_25  and  C_27
REMARK                            x       y       z     vdW  Elec       q    Type
REMARK                         _______ _______ _______ _____ _____    ______ ____
ROOT
ATOM      1  N   UNL     1      -1.772  -6.392  -0.388  0.00  0.00    -0.286 N 
ATOM      2  C   UNL     1      -1.648  -5.702  -1.539  0.00  0.00    +0.304 C 
ATOM      3  O   UNL     1      -2.118  -4.584  -1.631  0.00  0.00    -0.253 OA
ATOM      4  N   UNL     1      -1.003  -6.250  -2.587  0.00  0.00    -0.273 N 
ATOM      5  C   UNL     1      -0.755  -5.473  -3.811  0.00  0.00    +0.116 C 
ATOM      6  C   UNL     1       0.757  -5.297  -3.999  0.00  0.00    +0.076 C 
ATOM      7  C   UNL     1       1.435  -6.622  -3.758  0.00  0.00    +0.066 A 
ATOM      8  C   UNL     1       0.870  -7.661  -3.107  0.00  0.00    +0.064 A 
ATOM      9  N   UNL     1       1.783  -8.669  -3.085  0.00  0.00    -0.346 N 
ATOM     10  H   UNL     1       1.666  -9.545  -2.685  0.00  0.00    +0.167 HD
ATOM     11  C   UNL     1       2.884  -8.218  -3.729  0.00  0.00    +0.197 A 
ATOM     12  N   UNL     1       2.665  -6.992  -4.128  0.00  0.00    -0.240 NA
ATOM     13  C   UNL     1      -0.522  -7.643  -2.535  0.00  0.00    +0.159 C 
ATOM     14  H   UNL     1      -1.462  -7.309  -0.337  0.00  0.00    +0.151 HD
ENDROOT
BRANCH  13  15
ATOM     15  C   UNL     1      -1.422  -8.528  -3.357  0.00  0.00    +0.014 A 
ATOM     16  C   UNL     1      -0.875  -9.431  -4.250  0.00  0.00    +0.011 A 
ATOM     17  C   UNL     1      -1.700 -10.244  -5.005  0.00  0.00    +0.039 A 
ATOM     18  C   UNL     1      -3.075 -10.154  -4.868  0.00  0.00    +0.126 A 
ATOM     19  C   UNL     1      -3.623  -9.250  -3.975  0.00  0.00    +0.077 A 
ATOM     20  C   UNL     1      -2.796  -8.441  -3.215  0.00  0.00    +0.131 A 
ATOM     21  F   UNL     1      -3.330  -7.562  -2.339  0.00  0.00    -0.205 F 
ATOM     22  F   UNL     1      -3.881 -10.948  -5.606  0.00  0.00    -0.205 F 
ENDBRANCH  13  15
BRANCH   1  23
ATOM     23  C   UNL     1      -2.375  -5.756   0.786  0.00  0.00    +0.184 C 
BRANCH  23  24
ATOM     24  C   UNL     1      -1.322  -4.979   1.534  0.00  0.00    +0.327 C 
ATOM     25  O   UNL     1      -0.184  -4.959   1.128  0.00  0.00    -0.249 OA
BRANCH  24  26
ATOM     26  O   UNL     1      -1.648  -4.310   2.651  0.00  0.00    -0.467 OA
ATOM     27  C   UNL     1      -0.600  -3.596   3.308  0.00  0.00    +0.280 C 
ENDBRANCH  24  26
ENDBRANCH  23  24
BRANCH  23  28
ATOM     28  C   UNL     1      -2.963  -6.831   1.702  0.00  0.00    +0.045 C 
BRANCH  28  29
ATOM     29  C   UNL     1      -4.117  -7.536   0.986  0.00  0.00    +0.123 C 
BRANCH  29  30
ATOM     30  C   UNL     1      -4.696  -8.595   1.889  0.00  0.00    +0.307 C 
ATOM     31  O   UNL     1      -4.234  -8.768   2.992  0.00  0.00    -0.251 OA
BRANCH  30  33
ATOM     32  C   UNL     1      -6.224 -10.331   2.375  0.00  0.00    +0.280 C 
ATOM     33  O   UNL     1      -5.726  -9.346   1.468  0.00  0.00    -0.468 OA
ENDBRANCH  30  33
ENDBRANCH  29  30
ENDBRANCH  28  29
ENDBRANCH  23  28
ENDBRANCH   1  23
TORSDOF 8
