REMARK  Name = ZINC03232432
REMARK  5 active torsions:
REMARK  status: ('A' for Active; 'I' for Inactive)
REMARK    1  A    between atoms: C_1  and  C_2
REMARK    2  A    between atoms: N_4  and  N_5
REMARK    3  A    between atoms: C_6  and  C_7
REMARK    4  A    between atoms: C_15  and  C_16
REMARK    5  A    between atoms: C_15  and  C_17
REMARK                            x       y       z     vdW  Elec       q    Type
REMARK                         _______ _______ _______ _____ _____    ______ ____
ROOT
ATOM      1  C   UNL     1      -2.233  -4.227   0.001  0.00  0.00    -0.028 C 
ATOM      2  C   UNL     1      -1.085  -4.907  -0.008  0.00  0.00    -0.021 C 
ATOM      3  C   UNL     1      -1.119  -6.417  -0.025  0.00  0.00    +0.031 C 
ATOM      4  C   UNL     1      -2.572  -6.903   0.053  0.00  0.00    -0.000 C 
ATOM      5  C   UNL     1      -3.402  -6.152   1.108  0.00  0.00    +0.013 C 
ATOM      6  C   UNL     1      -3.519  -5.037   0.009  0.00  0.00    +0.026 C 
ATOM      7  C   UNL     1      -3.446  -6.199  -1.005  0.00  0.00    -0.025 C 
ATOM      8  C   UNL     1      -2.699  -5.855  -2.295  0.00  0.00    +0.012 C 
ATOM      9  C   UNL     1      -4.790  -6.887  -1.254  0.00  0.00    +0.012 C 
ENDROOT
BRANCH   1  11
ATOM     10  N   UNL     1      -1.137  -2.095   0.002  0.00  0.00    -0.188 NA
ATOM     11  C   UNL     1      -2.253  -2.760   0.009  0.00  0.00    +0.134 C 
BRANCH  10  15
ATOM     12  C   UNL     1      -0.018   1.503   0.010  0.00  0.00    +0.111 C 
ATOM     13  C   UNL     1       0.002  -0.004   0.002  0.00  0.00    +0.229 C 
ATOM     14  O   UNL     1       1.061  -0.596  -0.011  0.00  0.00    -0.274 OA
ATOM     15  N   UNL     1      -1.156  -0.694   0.009  0.00  0.00    -0.207 N 
ATOM     16  H   UNL     1      -2.002  -0.220   0.020  0.00  0.00    +0.177 HD
ENDBRANCH  10  15
ENDBRANCH   1  11
TORSDOF 2
