REMARK  Name = ZINC13221834
REMARK  9 active torsions:
REMARK  status: ('A' for Active; 'I' for Inactive)
REMARK    1  A    between atoms: C_1  and  C_2
REMARK    2  A    between atoms: C_7  and  N_8
REMARK    3  A    between atoms: C_9  and  C_11
REMARK    4  A    between atoms: C_11  and  S_12
REMARK    5  A    between atoms: S_12  and  C_13
REMARK    6  A    between atoms: C_17  and  C_26
REMARK    7  A    between atoms: C_18  and  C_23
REMARK    8  A    between atoms: C_19  and  C_22
REMARK    9  A    between atoms: C_23  and  C_24
REMARK                            x       y       z     vdW  Elec       q    Type
REMARK                         _______ _______ _______ _____ _____    ______ ____
ROOT
ATOM      1  C   UNL     1      -5.585  -1.858   1.546  0.00  0.00    +0.211 A 
ATOM      2  N   UNL     1      -5.446  -1.732   0.229  0.00  0.00    -0.183 NA
ATOM      3  C   UNL     1      -4.463  -0.878  -0.038  0.00  0.00    +0.254 A 
ATOM      4  N   UNL     1      -3.949  -0.426  -1.188  0.00  0.00    -0.216 NA
ATOM      5  C   UNL     1      -2.959   0.438  -1.191  0.00  0.00    +0.047 A 
ATOM      6  C   UNL     1      -2.418   0.895   0.016  0.00  0.00    +0.006 A 
ATOM      7  C   UNL     1      -2.935   0.443   1.189  0.00  0.00    +0.049 A 
ATOM      8  N   UNL     1      -3.962  -0.447   1.157  0.00  0.00    -0.200 N 
ATOM      9  N   UNL     1      -4.702  -1.093   2.156  0.00  0.00    -0.137 NA
ATOM     10  C   UNL     1      -2.379   0.922   2.505  0.00  0.00    +0.066 C 
ATOM     11  C   UNL     1      -2.401   0.935  -2.499  0.00  0.00    +0.066 C 
ENDROOT
BRANCH   1  12
ATOM     12  S   UNL     1      -6.768  -2.887   2.351  0.00  0.00    -0.075 S 
BRANCH  12  13
ATOM     13  C   UNL     1      -7.672  -3.667   0.986  0.00  0.00    +0.173 C 
BRANCH  13  15
ATOM     14  N   UNL     1      -9.529  -5.277   0.707  0.00  0.00    -0.285 N 
ATOM     15  C   UNL     1      -8.729  -4.586   1.543  0.00  0.00    +0.227 C 
ATOM     16  O   UNL     1      -8.858  -4.703   2.743  0.00  0.00    -0.275 OA
ATOM     17  H   UNL     1      -9.480  -5.124  -0.249  0.00  0.00    +0.155 HD
BRANCH  14  24
ATOM     18  C   UNL     1     -11.849  -5.886  -0.823  0.00  0.00    +0.046 C 
ATOM     19  C   UNL     1     -11.576  -6.543   0.506  0.00  0.00    -0.028 A 
ATOM     20  C   UNL     1     -12.462  -7.474   1.012  0.00  0.00    +0.025 A 
ATOM     21  C   UNL     1     -12.215  -8.073   2.234  0.00  0.00    +0.041 A 
ATOM     22  C   UNL     1     -11.077  -7.746   2.950  0.00  0.00    +0.022 A 
ATOM     23  C   UNL     1     -10.185  -6.820   2.447  0.00  0.00    +0.025 A 
ATOM     24  C   UNL     1     -10.431  -6.217   1.220  0.00  0.00    +0.036 A 
ATOM     25 CL   UNL     1     -13.334  -9.238   2.870  0.00  0.00    -0.084 Cl
ENDBRANCH  14  24
ENDBRANCH  13  15
ENDBRANCH  12  13
ENDBRANCH   1  12
BRANCH   6  26
ATOM     26  C   UNL     1      -1.280   1.883   0.016  0.00  0.00    +0.163 C 
BRANCH  26  27
ATOM     27  C   UNL     1       0.031   1.138   0.012  0.00  0.00    +0.360 C 
ATOM     28  O   UNL     1       0.039  -0.070   0.010  0.00  0.00    -0.246 OA
ATOM     29  O   UNL     1       1.188   1.817   0.006  0.00  0.00    -0.246 OA
ENDBRANCH  26  27
ENDBRANCH   6  26
TORSDOF 6
