REMARK  Name = ZINC43742908
REMARK  7 active torsions:
REMARK  status: ('A' for Active; 'I' for Inactive)
REMARK    1  A    between atoms: C_1  and  C_2
REMARK    2  A    between atoms: C_2  and  O_4
REMARK    3  A    between atoms: O_4  and  C_5
REMARK    4  A    between atoms: C_11  and  C_32
REMARK    5  A    between atoms: C_19  and  O_31
REMARK    6  A    between atoms: C_23  and  C_30
REMARK    7  A    between atoms: C_26  and  O_29
REMARK                            x       y       z     vdW  Elec       q    Type
REMARK                         _______ _______ _______ _____ _____    ______ ____
ROOT
ATOM      1  C   UNL     1      -1.057  -2.114   0.001  0.00  0.00    +0.183 C 
ATOM      2  C   UNL     1      -1.097  -2.667   1.450  0.00  0.00    +0.045 C 
ATOM      3  C   UNL     1      -2.446  -3.429   1.591  0.00  0.00    +0.008 C 
ATOM      4  C   UNL     1      -3.299  -2.764   0.496  0.00  0.00    +0.002 C 
ATOM      5  C   UNL     1      -2.289  -2.724  -0.677  0.00  0.00    +0.008 C 
ATOM      6  C   UNL     1      -2.903  -1.934  -1.808  0.00  0.00    +0.011 C 
ATOM      7  C   UNL     1      -4.205  -2.603  -2.257  0.00  0.00    +0.005 C 
ATOM      8  C   UNL     1      -5.199  -2.838  -1.121  0.00  0.00    -0.001 C 
ATOM      9  C   UNL     1      -4.541  -3.507   0.078  0.00  0.00    -0.001 C 
ATOM     10  C   UNL     1      -5.510  -3.632   1.254  0.00  0.00    +0.035 C 
ATOM     11  C   UNL     1      -6.035  -2.238   1.607  0.00  0.00    +0.119 C 
ATOM     12  C   UNL     1      -6.872  -1.749   0.425  0.00  0.00    +0.026 C 
ATOM     13  C   UNL     1      -6.010  -1.583  -0.820  0.00  0.00    -0.024 C 
ATOM     14  C   UNL     1      -5.108  -0.359  -0.738  0.00  0.00    +0.010 C 
ATOM     15  C   UNL     1      -5.890   0.901  -0.368  0.00  0.00    +0.032 C 
ATOM     16  C   UNL     1      -6.598   0.678   0.970  0.00  0.00    +0.115 C 
ATOM     17  C   UNL     1      -7.600  -0.464   0.804  0.00  0.00    +0.038 C 
ATOM     18  C   UNL     1      -6.980  -1.380  -2.011  0.00  0.00    +0.012 C 
ATOM     19  C   UNL     1      -1.924  -4.129  -1.157  0.00  0.00    +0.015 C 
ENDROOT
BRANCH  16  20
ATOM     20  O   UNL     1      -7.285   1.869   1.353  0.00  0.00    -0.392 OA
ATOM     21  H   UNL     1      -6.709   2.639   1.461  0.00  0.00    +0.210 HD
ENDBRANCH  16  20
BRANCH  11  22
ATOM     22  O   UNL     1      -6.849  -2.323   2.778  0.00  0.00    -0.391 OA
ATOM     23  H   UNL     1      -6.385  -2.660   3.556  0.00  0.00    +0.210 HD
ENDBRANCH  11  22
BRANCH   1  24
ATOM     24  O   UNL     1      -1.151  -0.691   0.009  0.00  0.00    -0.461 OA
BRANCH  24  26
ATOM     25  C   UNL     1      -0.018   1.503   0.010  0.00  0.00    +0.136 C 
ATOM     26  C   UNL     1       0.002  -0.004   0.002  0.00  0.00    +0.304 C 
ATOM     27  O   UNL     1       1.056  -0.594  -0.011  0.00  0.00    -0.251 OA
ENDBRANCH  24  26
ENDBRANCH   1  24
TORSDOF 4
