REMARK  Name = ZINC39753266
REMARK  7 active torsions:
REMARK  status: ('A' for Active; 'I' for Inactive)
REMARK    1  A    between atoms: C_1  and  N_2
REMARK    2  A    between atoms: C_3  and  C_21
REMARK    3  A    between atoms: C_6  and  S_7
REMARK    4  A    between atoms: S_7  and  C_8
REMARK    5  A    between atoms: C_8  and  C_9
REMARK    6  A    between atoms: N_11  and  C_12
REMARK    7  A    between atoms: C_16  and  N_18
REMARK                            x       y       z     vdW  Elec       q    Type
REMARK                         _______ _______ _______ _____ _____    ______ ____
ROOT
ATOM      1  S   UNL     1       0.742  -0.369   2.712  0.00  0.00    -0.077 S 
ENDROOT
BRANCH   1   7
ATOM      2  C   UNL     1       0.802   1.388  -0.088  0.00  0.00    +0.153 C 
ATOM      3  N   UNL     1       0.563  -0.058  -0.062  0.00  0.00    -0.305 N 
ATOM      4  C   UNL     1       0.341  -0.883  -1.141  0.00  0.00    +0.166 A 
ATOM      5  N   UNL     1       0.175  -2.096  -0.670  0.00  0.00    -0.128 NA
ATOM      6  N   UNL     1       0.276  -2.087   0.612  0.00  0.00    -0.122 NA
ATOM      7  C   UNL     1       0.519  -0.868   1.036  0.00  0.00    +0.192 A 
BRANCH   4   8
ATOM      8  C   UNL     1       0.297  -0.478  -2.562  0.00  0.00    +0.033 A 
ATOM      9  C   UNL     1       1.304   0.330  -3.092  0.00  0.00    +0.013 A 
ATOM     10  C   UNL     1       1.258   0.704  -4.419  0.00  0.00    +0.001 A 
ATOM     11  C   UNL     1       0.216   0.280  -5.225  0.00  0.00    +0.001 A 
ATOM     12  C   UNL     1      -0.786  -0.521  -4.707  0.00  0.00    +0.016 A 
ATOM     13  C   UNL     1      -0.748  -0.908  -3.382  0.00  0.00    +0.029 A 
ATOM     14 BR   UNL     1      -2.113  -2.010  -2.677  0.00  0.00    -0.050 Br
ENDBRANCH   4   8
ENDBRANCH   1   7
BRANCH   1  15
ATOM     15  C   UNL     1       0.563  -1.908   3.655  0.00  0.00    +0.173 C 
BRANCH  15  16
ATOM     16  C   UNL     1       0.734  -1.620   5.124  0.00  0.00    +0.227 C 
ATOM     17  O   UNL     1       0.954  -0.487   5.498  0.00  0.00    -0.275 OA
ATOM     18  N   UNL     1       0.642  -2.620   6.022  0.00  0.00    -0.285 N 
ATOM     19  H   UNL     1       0.540  -3.536   5.720  0.00  0.00    +0.155 HD
BRANCH  18  20
ATOM     20  C   UNL     1       0.693  -2.338   7.392  0.00  0.00    +0.036 A 
ATOM     21  C   UNL     1       1.276  -3.244   8.268  0.00  0.00    +0.023 A 
ATOM     22  C   UNL     1       1.324  -2.962   9.619  0.00  0.00    +0.004 A 
ATOM     23  C   UNL     1       0.793  -1.779  10.100  0.00  0.00    +0.033 A 
ATOM     24  C   UNL     1       0.212  -0.875   9.230  0.00  0.00    +0.128 A 
ATOM     25  C   UNL     1       0.166  -1.149   7.877  0.00  0.00    +0.056 A 
BRANCH  24  26
ATOM     26  N   UNL     1      -0.356   0.389   9.749  0.00  0.00    +0.056 N 
ATOM     27  O   UNL     1      -0.311   0.631  10.933  0.00  0.00    -0.126 OA
ATOM     28  O   UNL     1      -0.865   1.180   8.989  0.00  0.00    -0.126 OA
ENDBRANCH  24  26
ENDBRANCH  18  20
ENDBRANCH  15  16
ENDBRANCH   1  15
TORSDOF 6
