REMARK  Name = ZINC04974496
REMARK  4 active torsions:
REMARK  status: ('A' for Active; 'I' for Inactive)
REMARK    1  A    between atoms: C_4  and  N_16
REMARK    2  A    between atoms: C_5  and  N_7
REMARK    3  A    between atoms: C_11  and  C_13
REMARK    4  A    between atoms: C_13  and  C_14
REMARK                            x       y       z     vdW  Elec       q    Type
REMARK                         _______ _______ _______ _____ _____    ______ ____
ROOT
ATOM      1  N   UNL     1      -2.453  -0.128   0.209  0.00  0.00    -0.267 N 
ATOM      2  C   UNL     1      -3.567  -0.859   0.411  0.00  0.00    +0.310 C 
ATOM      3  O   UNL     1      -3.483  -2.058   0.590  0.00  0.00    -0.252 OA
ATOM      4  N   UNL     1      -4.775  -0.260   0.415  0.00  0.00    -0.240 N 
ATOM      5  C   UNL     1      -5.889  -0.991   0.617  0.00  0.00    +0.221 C 
ATOM      6  O   UNL     1      -5.805  -2.187   0.795  0.00  0.00    -0.275 OA
ATOM      7  H   UNL     1      -2.512   0.838   0.143  0.00  0.00    +0.156 HD
ATOM      8  H   UNL     1      -4.842   0.697   0.272  0.00  0.00    +0.159 HD
ENDROOT
BRANCH   1  13
ATOM      9  C   UNL     1       0.109  -2.628  -0.631  0.00  0.00    +0.002 A 
ATOM     10  C   UNL     1       1.244  -2.016  -0.132  0.00  0.00    +0.002 A 
ATOM     11  C   UNL     1       1.156  -0.777   0.475  0.00  0.00    +0.034 A 
ATOM     12  C   UNL     1      -0.069  -0.151   0.595  0.00  0.00    +0.147 A 
ATOM     13  C   UNL     1      -1.211  -0.762   0.095  0.00  0.00    +0.065 A 
ATOM     14  C   UNL     1      -1.119  -2.005  -0.519  0.00  0.00    +0.025 A 
BRANCH  12  15
ATOM     15  N   UNL     1      -0.164   1.173   1.249  0.00  0.00    +0.058 N 
ATOM     16  O   UNL     1       0.822   1.668   1.767  0.00  0.00    -0.126 OA
ATOM     17  O   UNL     1      -1.225   1.770   1.266  0.00  0.00    -0.126 OA
ENDBRANCH  12  15
ENDBRANCH   1  13
BRANCH   5  18
ATOM     18  C   UNL     1      -7.239  -0.322   0.621  0.00  0.00    +0.107 C 
BRANCH  18  19
ATOM     19  C   UNL     1      -8.327  -1.368   0.869  0.00  0.00    +0.089 C 
ATOM     20 BR   UNL     1     -10.088  -0.495   0.874  0.00  0.00    -0.091 Br
ENDBRANCH  18  19
ENDBRANCH   5  18
TORSDOF 4
