REMARK  Name = ZINC35355698
REMARK  6 active torsions:
REMARK  status: ('A' for Active; 'I' for Inactive)
REMARK    1  A    between atoms: C_1  and  C_2
REMARK    2  A    between atoms: C_2  and  C_3
REMARK    3  A    between atoms: C_2  and  N_4
REMARK    4  A    between atoms: N_4  and  C_5
REMARK    5  A    between atoms: N_4  and  C_6
REMARK    6  A    between atoms: C_11  and  N_12
REMARK                            x       y       z     vdW  Elec       q    Type
REMARK                         _______ _______ _______ _____ _____    ______ ____
ROOT
ATOM      1  C   UNL     1      -1.829  -1.317  -1.038  0.00  0.00    +0.052 A 
ATOM      2  C   UNL     1      -1.696  -2.694  -0.965  0.00  0.00    +0.048 A 
ATOM      3  C   UNL     1      -2.150  -3.490  -2.007  0.00  0.00    +0.038 A 
ATOM      4  C   UNL     1      -2.738  -2.908  -3.122  0.00  0.00    -0.024 A 
ATOM      5  C   UNL     1      -2.872  -1.534  -3.197  0.00  0.00    +0.030 A 
ATOM      6  C   UNL     1      -2.425  -0.734  -2.156  0.00  0.00    +0.046 A 
ATOM      7  C   UNL     1      -3.231  -3.777  -4.250  0.00  0.00    +0.046 C 
ATOM      8  C   UNL     1      -2.317  -4.994  -4.394  0.00  0.00    +0.101 C 
ATOM      9  C   UNL     1      -2.099  -5.633  -3.050  0.00  0.00    +0.218 C 
ATOM     10  O   UNL     1      -1.995  -6.839  -2.969  0.00  0.00    -0.275 OA
ATOM     11  N   UNL     1      -2.017  -4.883  -1.936  0.00  0.00    -0.285 N 
ATOM     12  H   UNL     1      -1.865  -5.309  -1.078  0.00  0.00    +0.155 HD
ENDROOT
BRANCH   6  13
ATOM     13  N   UNL     1      -2.566   0.659  -2.231  0.00  0.00    -0.357 N 
ATOM     14  H   UNL     1      -2.250   1.218  -1.504  0.00  0.00    +0.142 HD
ATOM     15  H   UNL     1      -2.981   1.063  -3.009  0.00  0.00    +0.142 HD
ENDBRANCH   6  13
BRANCH   1  16
ATOM     16  N   UNL     1      -1.372  -0.511   0.012  0.00  0.00    -0.329 N 
ATOM     17  C   UNL     1      -2.269  -0.175   1.122  0.00  0.00    +0.129 C 
BRANCH  16  19
ATOM     18  C   UNL     1      -0.019   1.526   0.010  0.00  0.00    +0.027 C 
ATOM     19  C   UNL     1       0.002  -0.004   0.002  0.00  0.00    +0.067 C 
ATOM     20  C   UNL     1       0.742  -0.511   1.242  0.00  0.00    +0.027 C 
ENDBRANCH  16  19
ENDBRANCH   1  16
TORSDOF 3
