REMARK  Name = ZINC06624212
REMARK  6 active torsions:
REMARK  status: ('A' for Active; 'I' for Inactive)
REMARK    1  A    between atoms: C_1  and  C_2
REMARK    2  A    between atoms: C_9  and  C_31
REMARK    3  A    between atoms: C_10  and  C_16
REMARK    4  A    between atoms: C_16  and  C_17
REMARK    5  A    between atoms: C_17  and  C_18
REMARK    6  A    between atoms: C_18  and  N_20
REMARK                            x       y       z     vdW  Elec       q    Type
REMARK                         _______ _______ _______ _____ _____    ______ ____
ROOT
ATOM      1  C   UNL     1       0.026   1.440  -0.005  0.00  0.00    +0.047 C 
ATOM      2  C   UNL     1       0.031  -0.067  -0.007  0.00  0.00    -0.005 A 
ATOM      3  C   UNL     1       0.030  -0.870  -1.079  0.00  0.00    +0.199 A 
ATOM      4  O   UNL     1       0.036  -2.159  -0.696  0.00  0.00    -0.463 OA
ATOM      5  C   UNL     1       0.041  -2.263   0.649  0.00  0.00    +0.139 A 
ATOM      6  C   UNL     1       0.045  -0.952   1.167  0.00  0.00    +0.024 A 
ATOM      7  C   UNL     1       0.056  -0.737   2.538  0.00  0.00    +0.023 A 
ATOM      8  C   UNL     1       0.068  -1.833   3.401  0.00  0.00    +0.022 A 
ATOM      9  C   UNL     1       0.080  -1.642   4.854  0.00  0.00    -0.030 A 
ATOM     10  C   UNL     1       0.090  -2.745   5.646  0.00  0.00    +0.041 A 
ATOM     11  C   UNL     1       0.089  -4.029   5.060  0.00  0.00    +0.341 A 
ATOM     12  O   UNL     1       0.099  -5.010   5.782  0.00  0.00    -0.245 OA
ATOM     13  O   UNL     1       0.078  -4.198   3.729  0.00  0.00    -0.422 OA
ATOM     14  C   UNL     1       0.068  -3.144   2.882  0.00  0.00    +0.143 A 
ATOM     15  C   UNL     1       0.048  -3.348   1.514  0.00  0.00    +0.093 A 
ATOM     16  C   UNL     1       0.080  -0.260   5.454  0.00  0.00    +0.045 C 
ENDROOT
BRANCH  10  17
ATOM     17  C   UNL     1       0.102  -2.599   7.146  0.00  0.00    +0.052 C 
BRANCH  17  18
ATOM     18  C   UNL     1      -1.330  -2.679   7.678  0.00  0.00    +0.103 C 
BRANCH  18  19
ATOM     19  C   UNL     1      -1.317  -2.532   9.178  0.00  0.00    +0.239 C 
ATOM     20  O   UNL     1      -0.263  -2.379   9.765  0.00  0.00    -0.274 OA
BRANCH  19  21
ATOM     21  N   UNL     1      -2.458  -2.571   9.859  0.00  0.00    -0.147 NA
ATOM     22  C   UNL     1      -2.439  -2.547  11.189  0.00  0.00    +0.198 A 
ATOM     23  N   UNL     1      -1.333  -2.368  11.958  0.00  0.00    -0.326 N 
ATOM     24  H   UNL     1      -0.429  -2.238  11.631  0.00  0.00    +0.169 HD
ATOM     25  C   UNL     1      -1.720  -2.404  13.294  0.00  0.00    +0.065 A 
ATOM     26  C   UNL     1      -1.021  -2.279  14.486  0.00  0.00    +0.028 A 
ATOM     27  C   UNL     1      -1.693  -2.359  15.689  0.00  0.00    +0.002 A 
ATOM     28  C   UNL     1      -3.062  -2.565  15.711  0.00  0.00    +0.002 A 
ATOM     29  C   UNL     1      -3.767  -2.691  14.531  0.00  0.00    +0.028 A 
ATOM     30  C   UNL     1      -3.101  -2.611  13.316  0.00  0.00    +0.065 A 
ATOM     31  N   UNL     1      -3.525  -2.691  11.994  0.00  0.00    -0.326 N 
ATOM     32  H   UNL     1      -4.438  -2.829  11.697  0.00  0.00    +0.169 HD
ENDBRANCH  19  21
ENDBRANCH  18  19
ENDBRANCH  17  18
ENDBRANCH  10  17
TORSDOF 4
