REMARK  Name = ZINC35426295
REMARK  6 active torsions:
REMARK  status: ('A' for Active; 'I' for Inactive)
REMARK    1  A    between atoms: C_1  and  N_2
REMARK    2  A    between atoms: N_2  and  C_3
REMARK    3  A    between atoms: C_7  and  C_10
REMARK    4  A    between atoms: C_12  and  C_15
REMARK    5  A    between atoms: N_20  and  C_21
REMARK    6  A    between atoms: C_21  and  C_22
REMARK                            x       y       z     vdW  Elec       q    Type
REMARK                         _______ _______ _______ _____ _____    ______ ____
ROOT
ATOM      1  C   UNL     1      -0.007  -2.693  -4.906  0.00  0.00    +0.203 A 
ATOM      2  N   UNL     1      -0.016  -2.082  -6.105  0.00  0.00    -0.190 NA
ATOM      3  C   UNL     1      -0.015  -2.969  -7.058  0.00  0.00    +0.245 A 
ATOM      4  O   UNL     1      -0.005  -4.188  -6.504  0.00  0.00    -0.336 OA
ATOM      5  N   UNL     1       0.005  -3.990  -5.098  0.00  0.00    -0.056 NA
ENDROOT
BRANCH   1  12
ATOM      6  C   UNL     1      -0.018   1.461   0.010  0.00  0.00    +0.130 C 
ATOM      7  N   UNL     1       0.002  -0.004   0.002  0.00  0.00    -0.323 N 
ATOM      8  C   UNL     1       0.024  -0.743   1.267  0.00  0.00    +0.130 C 
ATOM      9  C   UNL     1       0.000  -0.692  -1.204  0.00  0.00    +0.098 A 
ATOM     10  C   UNL     1       0.013  -2.084  -1.201  0.00  0.00    +0.042 A 
ATOM     11  C   UNL     1       0.011  -2.760  -2.404  0.00  0.00    +0.016 A 
ATOM     12  C   UNL     1      -0.004  -2.013  -3.588  0.00  0.00    +0.038 A 
ATOM     13  C   UNL     1      -0.017  -0.623  -3.511  0.00  0.00    +0.095 A 
ATOM     14  N   UNL     1      -0.020  -0.015  -2.342  0.00  0.00    -0.349 N 
ATOM     15  H   UNL     1      -0.033   0.955  -2.315  0.00  0.00    +0.167 HD
ENDBRANCH   1  12
BRANCH   3  16
ATOM     16  C   UNL     1      -0.023  -2.674  -8.536  0.00  0.00    +0.146 C 
ATOM     17  C   UNL     1      -1.397  -3.031  -9.157  0.00  0.00    +0.030 C 
ATOM     18  C   UNL     1      -1.051  -3.275 -10.644  0.00  0.00    +0.017 C 
ATOM     19  C   UNL     1       0.454  -3.599 -10.659  0.00  0.00    +0.085 C 
ATOM     20  N   UNL     1       0.921  -3.567  -9.254  0.00  0.00    -0.284 NA
BRANCH  20  21
ATOM     21  C   UNL     1       2.297  -3.059  -9.165  0.00  0.00    +0.159 C 
BRANCH  21  22
ATOM     22  C   UNL     1       3.252  -4.102  -9.685  0.00  0.00    +0.120 A 
ATOM     23  C   UNL     1       3.653  -4.208 -10.960  0.00  0.00    +0.054 A 
ATOM     24  C   UNL     1       4.571  -5.352 -11.006  0.00  0.00    +0.020 A 
ATOM     25  C   UNL     1       5.310  -5.969 -12.015  0.00  0.00    +0.011 A 
ATOM     26  C   UNL     1       6.092  -7.050 -11.718  0.00  0.00    +0.001 A 
ATOM     27  C   UNL     1       6.154  -7.537 -10.420  0.00  0.00    +0.004 A 
ATOM     28  C   UNL     1       5.431  -6.940  -9.409  0.00  0.00    +0.047 A 
ATOM     29  C   UNL     1       4.630  -5.840  -9.690  0.00  0.00    +0.135 A 
ATOM     30  O   UNL     1       3.831  -5.058  -8.937  0.00  0.00    -0.458 OA
ENDBRANCH  21  22
ENDBRANCH  20  21
ENDBRANCH   3  16
TORSDOF 4
