REMARK  Name = ZINC03034335
REMARK  7 active torsions:
REMARK  status: ('A' for Active; 'I' for Inactive)
REMARK    1  A    between atoms: C_1  and  C_2
REMARK    2  A    between atoms: C_5  and  N_8
REMARK    3  A    between atoms: C_14  and  S_15
REMARK    4  A    between atoms: S_15  and  C_16
REMARK    5  A    between atoms: C_16  and  C_17
REMARK    6  A    between atoms: N_22  and  C_26
REMARK    7  A    between atoms: C_30  and  C_32
REMARK                            x       y       z     vdW  Elec       q    Type
REMARK                         _______ _______ _______ _____ _____    ______ ____
ROOT
ATOM      1  N   UNL     1       1.123   2.058   0.002  0.00  0.00    -0.255 N 
ATOM      2  C   UNL     1       2.210   1.425  -0.503  0.00  0.00    +0.275 A 
ATOM      3  O   UNL     1       3.147   2.060  -0.960  0.00  0.00    -0.266 OA
ATOM      4  C   UNL     1       2.229   0.038  -0.487  0.00  0.00    +0.122 A 
ATOM      5  C   UNL     1       1.169  -0.710   0.031  0.00  0.00    +0.161 A 
ATOM      6  N   UNL     1       0.120  -0.001   0.517  0.00  0.00    -0.204 NA
ATOM      7  C   UNL     1       0.098   1.308   0.503  0.00  0.00    +0.178 A 
ATOM      8  N   UNL     1       1.315  -2.074  -0.013  0.00  0.00    -0.282 N 
ATOM      9  C   UNL     1       2.426  -2.635  -0.531  0.00  0.00    +0.132 A 
ATOM     10  S   UNL     1       2.820  -4.294  -0.687  0.00  0.00    -0.024 S 
ATOM     11  S   UNL     1       3.383  -1.205  -1.012  0.00  0.00    -0.055 S 
ENDROOT
BRANCH   8  12
ATOM     12  C   UNL     1       0.294  -2.894   0.486  0.00  0.00    +0.050 A 
ATOM     13  C   UNL     1      -0.951  -2.908  -0.128  0.00  0.00    +0.028 A 
ATOM     14  C   UNL     1      -1.955  -3.717   0.366  0.00  0.00    +0.022 A 
ATOM     15  C   UNL     1      -1.721  -4.514   1.473  0.00  0.00    +0.044 A 
ATOM     16  C   UNL     1      -0.481  -4.502   2.087  0.00  0.00    -0.030 A 
ATOM     17  C   UNL     1       0.528  -3.699   1.593  0.00  0.00    +0.031 A 
ATOM     18  C   UNL     1      -0.230  -5.371   3.293  0.00  0.00    +0.045 C 
ATOM     19 CL   UNL     1      -2.985  -5.530   2.092  0.00  0.00    -0.083 Cl
ENDBRANCH   8  12
BRANCH   1  24
ATOM     20  C   UNL     1       0.837   7.725   0.031  0.00  0.00    +0.044 C 
ATOM     21  C   UNL     1       0.913   6.220   0.024  0.00  0.00    -0.050 A 
ATOM     22  C   UNL     1       1.464   5.552   1.102  0.00  0.00    +0.005 A 
ATOM     23  C   UNL     1       1.535   4.172   1.098  0.00  0.00    +0.026 A 
ATOM     24  C   UNL     1       1.053   3.457   0.010  0.00  0.00    +0.052 A 
ATOM     25  C   UNL     1       0.506   4.131  -1.074  0.00  0.00    +0.026 A 
ATOM     26  C   UNL     1       0.432   5.511  -1.061  0.00  0.00    +0.005 A 
ENDBRANCH   1  24
BRANCH   7  27
ATOM     27  S   UNL     1      -1.315   2.136   1.152  0.00  0.00    -0.082 S 
BRANCH  27  28
ATOM     28  C   UNL     1      -2.315   0.711   1.647  0.00  0.00    +0.138 C 
BRANCH  28  29
ATOM     29  C   UNL     1      -3.631   1.198   2.256  0.00  0.00    +0.260 C 
ATOM     30  O   UNL     1      -4.348   1.987   1.291  0.00  0.00    -0.348 OA
ATOM     31  C   UNL     1      -4.992   3.026   2.067  0.00  0.00    +0.191 C 
ATOM     32  C   UNL     1      -3.927   3.312   3.155  0.00  0.00    +0.191 C 
ATOM     33  O   UNL     1      -3.359   2.010   3.406  0.00  0.00    -0.348 OA
ENDBRANCH  28  29
ENDBRANCH  27  28
ENDBRANCH   7  27
TORSDOF 5
