REMARK  Name = ZINC25777058
REMARK  4 active torsions:
REMARK  status: ('A' for Active; 'I' for Inactive)
REMARK    1  A    between atoms: C_1  and  C_2
REMARK    2  A    between atoms: C_2  and  C_4
REMARK    3  A    between atoms: C_2  and  N_16
REMARK    4  A    between atoms: N_6  and  C_7
REMARK                            x       y       z     vdW  Elec       q    Type
REMARK                         _______ _______ _______ _____ _____    ______ ____
ROOT
ATOM      1  C   UNL     1       0.140   1.769   0.198  0.00  0.00    +0.034 C 
ATOM      2  C   UNL     1       0.126   0.246   0.051  0.00  0.00    +0.140 C 
ENDROOT
BRANCH   2   3
ATOM      3  N   UNL     1       0.757  -0.365   1.228  0.00  0.00    -0.289 NA
ATOM      4  C   UNL     1       2.102   0.182   1.448  0.00  0.00    +0.104 C 
ATOM      5  C   UNL     1       2.794  -0.604   2.567  0.00  0.00    +0.122 C 
ATOM      6  N   UNL     1       1.919  -0.600   3.750  0.00  0.00    -0.314 N 
ATOM      7  C   UNL     1       0.516  -1.006   3.580  0.00  0.00    +0.122 C 
ATOM      8  C   UNL     1      -0.086  -0.204   2.421  0.00  0.00    +0.104 C 
ATOM      9  C   UNL     1       2.406  -0.221   4.996  0.00  0.00    +0.099 A 
ATOM     10  C   UNL     1       1.594  -0.343   6.119  0.00  0.00    +0.042 A 
ATOM     11  C   UNL     1       2.092   0.037   7.353  0.00  0.00    +0.005 A 
ATOM     12  C   UNL     1       3.389   0.528   7.422  0.00  0.00    +0.018 A 
ATOM     13  C   UNL     1       4.139   0.621   6.267  0.00  0.00    +0.084 A 
ATOM     14  N   UNL     1       3.640   0.246   5.104  0.00  0.00    -0.350 N 
ATOM     15  H   UNL     1       4.190   0.318   4.308  0.00  0.00    +0.166 HD
ENDBRANCH   2   3
BRANCH   2  16
ATOM     16  C   UNL     1       0.888  -0.147  -1.188  0.00  0.00    +0.234 C 
ATOM     17  O   UNL     1       1.861  -0.865  -1.099  0.00  0.00    -0.274 OA
ATOM     18  N   UNL     1       0.488   0.300  -2.395  0.00  0.00    -0.284 N 
ATOM     19  H   UNL     1      -0.326   0.821  -2.474  0.00  0.00    +0.155 HD
BRANCH  18  20
ATOM     20  C   UNL     1       1.248   0.011  -3.536  0.00  0.00    +0.037 A 
ATOM     21  C   UNL     1       1.348   0.946  -4.558  0.00  0.00    +0.027 A 
ATOM     22  C   UNL     1       2.098   0.663  -5.684  0.00  0.00    +0.051 A 
ATOM     23  C   UNL     1       2.752  -0.554  -5.796  0.00  0.00    +0.166 A 
ATOM     24  C   UNL     1       2.653  -1.493  -4.772  0.00  0.00    +0.168 A 
ATOM     25  C   UNL     1       1.906  -1.206  -3.642  0.00  0.00    +0.072 A 
ATOM     26  O   UNL     1       3.379  -2.596  -5.121  0.00  0.00    -0.453 OA
ATOM     27  C   UNL     1       3.586  -2.487  -6.541  0.00  0.00    +0.466 C 
ATOM     28  O   UNL     1       3.539  -1.069  -6.786  0.00  0.00    -0.453 OA
ENDBRANCH  18  20
ENDBRANCH   2  16
TORSDOF 3
