REMARK  Name = ZINC36624369
REMARK  9 active torsions:
REMARK  status: ('A' for Active; 'I' for Inactive)
REMARK    1  A    between atoms: C_1  and  C_2
REMARK    2  A    between atoms: C_2  and  C_4
REMARK    3  A    between atoms: C_2  and  N_12
REMARK    4  A    between atoms: C_13  and  C_15
REMARK    5  A    between atoms: C_15  and  N_16
REMARK    6  A    between atoms: C_19  and  C_23
REMARK    7  A    between atoms: C_19  and  C_24
REMARK    8  A    between atoms: C_27  and  O_30
REMARK    9  A    between atoms: O_30  and  C_31
REMARK                            x       y       z     vdW  Elec       q    Type
REMARK                         _______ _______ _______ _____ _____    ______ ____
ROOT
ATOM      1  N   UNL     1      -3.929  -1.240   2.572  0.00  0.00    -0.215 N 
ATOM      2  C   UNL     1      -3.791  -2.314   3.375  0.00  0.00    +0.251 C 
ATOM      3  O   UNL     1      -3.260  -3.369   3.102  0.00  0.00    -0.272 OA
ATOM      4  C   UNL     1      -4.436  -1.927   4.691  0.00  0.00    +0.135 C 
ATOM      5  N   UNL     1      -4.907  -0.551   4.455  0.00  0.00    -0.281 N 
ATOM      6  C   UNL     1      -4.561  -0.238   3.193  0.00  0.00    +0.310 C 
ATOM      7  O   UNL     1      -4.799   0.835   2.674  0.00  0.00    -0.252 OA
ATOM      8  C   UNL     1      -3.407  -1.956   5.823  0.00  0.00    +0.047 C 
ATOM      9  H   UNL     1      -5.373   0.018   5.086  0.00  0.00    +0.152 HD
ENDROOT
BRANCH   4  10
ATOM     10  C   UNL     1      -5.595  -2.838   5.001  0.00  0.00    -0.015 A 
ATOM     11  C   UNL     1      -5.582  -4.148   4.557  0.00  0.00    +0.010 A 
ATOM     12  C   UNL     1      -6.643  -4.985   4.840  0.00  0.00    +0.046 A 
ATOM     13  C   UNL     1      -7.723  -4.512   5.571  0.00  0.00    +0.120 A 
ATOM     14  C   UNL     1      -7.733  -3.198   6.017  0.00  0.00    +0.046 A 
ATOM     15  C   UNL     1      -6.667  -2.366   5.735  0.00  0.00    +0.010 A 
BRANCH  13  16
ATOM     16  O   UNL     1      -8.769  -5.333   5.850  0.00  0.00    -0.495 OA
ATOM     17  C   UNL     1      -9.846  -4.778   6.608  0.00  0.00    +0.277 C 
ENDBRANCH  13  16
ENDBRANCH   4  10
BRANCH   1  18
ATOM     18  C   UNL     1      -3.442  -1.177   1.191  0.00  0.00    +0.213 C 
BRANCH  18  20
ATOM     19  N   UNL     1      -1.372  -0.511   0.012  0.00  0.00    -0.307 N 
ATOM     20  C   UNL     1      -2.029  -0.655   1.181  0.00  0.00    +0.231 C 
ATOM     21  O   UNL     1      -1.481  -0.365   2.224  0.00  0.00    -0.274 OA
ATOM     22  H   UNL     1      -1.810  -0.743  -0.822  0.00  0.00    +0.149 HD
BRANCH  19  24
ATOM     23  C   UNL     1      -0.019   1.526   0.010  0.00  0.00    +0.033 C 
ATOM     24  C   UNL     1       0.002  -0.004   0.002  0.00  0.00    +0.102 C 
BRANCH  24  25
ATOM     25  C   UNL     1       0.707  -0.490  -1.238  0.00  0.00    -0.009 A 
ATOM     26  C   UNL     1      -0.023  -0.817  -2.365  0.00  0.00    +0.008 A 
ATOM     27  C   UNL     1       0.623  -1.263  -3.502  0.00  0.00    +0.020 A 
ATOM     28  C   UNL     1       2.002  -1.382  -3.514  0.00  0.00    +0.042 A 
ATOM     29  C   UNL     1       2.733  -1.054  -2.386  0.00  0.00    +0.040 A 
ATOM     30  C   UNL     1       2.086  -0.603  -1.250  0.00  0.00    +0.047 A 
ATOM     31 CL   UNL     1       3.004  -0.186   0.164  0.00  0.00    -0.083 Cl
ATOM     32 CL   UNL     1       2.813  -1.942  -4.942  0.00  0.00    -0.083 Cl
ENDBRANCH  24  25
ENDBRANCH  19  24
ENDBRANCH  18  20
ENDBRANCH   1  18
TORSDOF 6
