REMARK  Name = ZINC39980730
REMARK  6 active torsions:
REMARK  status: ('A' for Active; 'I' for Inactive)
REMARK    1  A    between atoms: C_1  and  O_2
REMARK    2  A    between atoms: O_2  and  C_3
REMARK    3  A    between atoms: C_8  and  C_15
REMARK    4  A    between atoms: C_17  and  N_27
REMARK    5  A    between atoms: N_27  and  C_28
REMARK    6  A    between atoms: C_28  and  C_29
REMARK                            x       y       z     vdW  Elec       q    Type
REMARK                         _______ _______ _______ _____ _____    ______ ____
ROOT
ATOM      1  C   UNL     1      -5.779  -4.507  -1.143  0.00  0.00    +0.158 C 
ATOM      2  C   UNL     1      -5.700  -6.038  -1.286  0.00  0.00    +0.173 C 
ATOM      3  N   UNL     1      -4.973  -6.230  -2.552  0.00  0.00    -0.272 N 
ATOM      4  C   UNL     1      -4.607  -7.378  -3.194  0.00  0.00    +0.098 C 
ATOM      5  C   UNL     1      -3.935  -7.334  -4.363  0.00  0.00    +0.055 C 
ATOM      6  C   UNL     1      -3.602  -6.094  -4.937  0.00  0.00    +0.024 C 
ATOM      7  C   UNL     1      -3.959  -4.945  -4.312  0.00  0.00    +0.045 C 
ATOM      8  C   UNL     1      -4.668  -5.002  -3.079  0.00  0.00    +0.122 C 
ATOM      9  N   UNL     1      -5.095  -3.998  -2.336  0.00  0.00    -0.261 NA
ATOM     10 CL   UNL     1      -3.480  -8.808  -5.160  0.00  0.00    -0.082 Cl
ENDROOT
BRANCH   1  16
ATOM     11  C   UNL     1      -7.185  -1.546   3.944  0.00  0.00    +0.122 A 
ATOM     12  C   UNL     1      -7.519  -2.887   4.185  0.00  0.00    +0.046 A 
ATOM     13  C   UNL     1      -7.112  -3.874   3.352  0.00  0.00    +0.013 A 
ATOM     14  C   UNL     1      -6.309  -3.527   2.177  0.00  0.00    -0.007 A 
ATOM     15  C   UNL     1      -5.883  -4.492   1.317  0.00  0.00    -0.003 C 
ATOM     16  C   UNL     1      -5.057  -4.049   0.126  0.00  0.00    +0.126 C 
ATOM     17  C   UNL     1      -4.772  -2.571  -0.012  0.00  0.00    +0.226 C 
ATOM     18  O   UNL     1      -4.114  -2.160  -0.950  0.00  0.00    -0.275 OA
ATOM     19  N   UNL     1      -5.240  -1.726   0.890  0.00  0.00    -0.284 N 
ATOM     20  C   UNL     1      -5.969  -2.112   1.940  0.00  0.00    +0.044 A 
ATOM     21  C   UNL     1      -6.437  -1.159   2.853  0.00  0.00    +0.069 A 
ATOM     22  H   UNL     1      -5.047  -0.782   0.783  0.00  0.00    +0.155 HD
BRANCH  11  24
ATOM     23  C   UNL     1      -8.389  -1.044   5.927  0.00  0.00    +0.277 C 
ATOM     24  O   UNL     1      -7.617  -0.598   4.810  0.00  0.00    -0.495 OA
ENDBRANCH  11  24
ENDBRANCH   1  16
BRANCH   2  25
ATOM     25  N   UNL     1      -4.955  -6.624  -0.164  0.00  0.00    -0.289 NA
ATOM     26  H   UNL     1      -4.005  -6.834  -0.431  0.00  0.00    +0.124 HD
BRANCH  25  27
ATOM     27  C   UNL     1      -5.633  -7.821   0.351  0.00  0.00    +0.157 C 
BRANCH  27  28
ATOM     28  C   UNL     1      -4.841  -8.393   1.499  0.00  0.00    +0.119 A 
ATOM     29  C   UNL     1      -4.995  -8.075   2.797  0.00  0.00    +0.046 A 
ATOM     30  C   UNL     1      -4.053  -8.842   3.520  0.00  0.00    +0.041 A 
ATOM     31  C   UNL     1      -3.380  -9.583   2.621  0.00  0.00    +0.195 A 
ATOM     32  O   UNL     1      -3.866  -9.311   1.399  0.00  0.00    -0.467 OA
ENDBRANCH  27  28
ENDBRANCH  25  27
ENDBRANCH   2  25
TORSDOF 5
