REMARK  Name = ZINC01216288
REMARK  9 active torsions:
REMARK  status: ('A' for Active; 'I' for Inactive)
REMARK    1  A    between atoms: C_1  and  C_2
REMARK    2  A    between atoms: C_5  and  N_28
REMARK    3  A    between atoms: C_7  and  N_8
REMARK    4  A    between atoms: C_9  and  C_27
REMARK    5  A    between atoms: C_11  and  C_14
REMARK    6  A    between atoms: C_12  and  C_13
REMARK    7  A    between atoms: C_15  and  C_16
REMARK    8  A    between atoms: C_15  and  C_18
REMARK    9  A    between atoms: N_20  and  C_21
REMARK                            x       y       z     vdW  Elec       q    Type
REMARK                         _______ _______ _______ _____ _____    ______ ____
ROOT
ATOM      1  N   UNL     1       0.187  -0.848   1.077  0.00  0.00    -0.317 N 
ATOM      2  C   UNL     1       0.021  -2.151   0.695  0.00  0.00    +0.022 A 
ATOM      3  C   UNL     1      -0.085  -2.209  -0.642  0.00  0.00    +0.031 A 
ATOM      4  C   UNL     1       0.018  -0.826  -1.128  0.00  0.00    -0.003 A 
ATOM      5  C   UNL     1       0.192  -0.039  -0.001  0.00  0.00    +0.028 A 
ATOM      6  C   UNL     1       0.351   1.459   0.017  0.00  0.00    +0.064 C 
ATOM      7  C   UNL     1      -0.035  -3.333   1.628  0.00  0.00    +0.064 C 
ENDROOT
BRANCH   1  14
ATOM      8  C   UNL     1       2.812  -0.695   2.165  0.00  0.00    +0.046 C 
ATOM      9  C   UNL     1       1.594  -0.326   2.971  0.00  0.00    -0.026 A 
ATOM     10  C   UNL     1       1.733   0.101   4.278  0.00  0.00    +0.007 A 
ATOM     11  C   UNL     1       0.615   0.439   5.019  0.00  0.00    +0.033 A 
ATOM     12  C   UNL     1      -0.644   0.351   4.455  0.00  0.00    +0.128 A 
ATOM     13  C   UNL     1      -0.789  -0.069   3.147  0.00  0.00    +0.059 A 
ATOM     14  C   UNL     1       0.331  -0.415   2.402  0.00  0.00    +0.052 A 
BRANCH  12  15
ATOM     15  N   UNL     1      -1.838   0.714   5.251  0.00  0.00    +0.056 N 
ATOM     16  O   UNL     1      -1.711   1.090   6.402  0.00  0.00    -0.126 OA
ATOM     17  O   UNL     1      -2.948   0.637   4.755  0.00  0.00    -0.126 OA
ENDBRANCH  12  15
ENDBRANCH   1  14
BRANCH   4  18
ATOM     18  C   UNL     1      -0.043  -0.386  -2.475  0.00  0.00    +0.033 C 
ATOM     19  C   UNL     1      -0.562  -1.216  -3.450  0.00  0.00    +0.114 C 
BRANCH  19  20
ATOM     20  C   UNL     1      -0.449  -0.846  -4.867  0.00  0.00    +0.259 C 
ATOM     21  O   UNL     1       0.102   0.192  -5.182  0.00  0.00    -0.269 OA
ATOM     22  N   UNL     1      -0.955  -1.656  -5.817  0.00  0.00    -0.281 N 
ATOM     23  H   UNL     1      -1.432  -2.462  -5.564  0.00  0.00    +0.155 HD
BRANCH  22  24
ATOM     24  C   UNL     1      -0.792  -1.335  -7.169  0.00  0.00    +0.034 A 
ATOM     25  C   UNL     1      -0.831  -0.009  -7.578  0.00  0.00    +0.023 A 
ATOM     26  C   UNL     1      -0.665   0.305  -8.913  0.00  0.00    +0.002 A 
ATOM     27  C   UNL     1      -0.472  -0.700  -9.843  0.00  0.00    +0.000 A 
ATOM     28  C   UNL     1      -0.438  -2.022  -9.439  0.00  0.00    +0.002 A 
ATOM     29  C   UNL     1      -0.598  -2.343  -8.105  0.00  0.00    +0.023 A 
ENDBRANCH  22  24
ENDBRANCH  19  20
BRANCH  19  30
ATOM     30  C   UNL     1      -1.210  -2.438  -3.078  0.00  0.00    +0.104 C 
ATOM     31  N   UNL     1      -1.724  -3.407  -2.784  0.00  0.00    -0.191 NA
ENDBRANCH  19  30
ENDBRANCH   4  18
TORSDOF 6
