REMARK  Name = ZINC66589073
REMARK  7 active torsions:
REMARK  status: ('A' for Active; 'I' for Inactive)
REMARK    1  A    between atoms: C_1  and  C_2
REMARK    2  A    between atoms: C_6  and  C_8
REMARK    3  A    between atoms: N_10  and  N_11
REMARK    4  A    between atoms: N_11  and  S_12
REMARK    5  A    between atoms: S_12  and  C_15
REMARK    6  A    between atoms: C_19  and  N_22
REMARK    7  A    between atoms: C_20  and  C_21
REMARK                            x       y       z     vdW  Elec       q    Type
REMARK                         _______ _______ _______ _____ _____    ______ ____
ROOT
ATOM      1  N   UNL     1      -0.222  -4.778   3.514  0.00  0.00    -0.108 NA
ATOM      2  H   UNL     1       0.339  -4.566   4.276  0.00  0.00    +0.172 HD
ENDROOT
BRANCH   1   5
ATOM      3  C   UNL     1       0.027  -2.821   2.182  0.00  0.00    +0.259 C 
ATOM      4  O   UNL     1      -0.081  -2.140   3.183  0.00  0.00    -0.269 OA
ATOM      5  N   UNL     1       0.018  -4.165   2.277  0.00  0.00    -0.228 N 
ATOM      6  H   UNL     1       0.177  -4.708   1.489  0.00  0.00    +0.171 HD
BRANCH   3  12
ATOM      7  C   UNL     1       0.097   1.309  -0.619  0.00  0.00    +0.044 C 
ATOM      8  C   UNL     1       0.203  -0.189  -0.492  0.00  0.00    -0.050 A 
ATOM      9  C   UNL     1       0.434  -0.962  -1.616  0.00  0.00    +0.003 A 
ATOM     10  C   UNL     1       0.533  -2.338  -1.508  0.00  0.00    +0.001 A 
ATOM     11  C   UNL     1       0.402  -2.948  -0.278  0.00  0.00    +0.013 A 
ATOM     12  C   UNL     1       0.169  -2.174   0.860  0.00  0.00    +0.038 A 
ATOM     13  C   UNL     1       0.076  -0.785   0.745  0.00  0.00    +0.016 A 
ENDBRANCH   3  12
ENDBRANCH   1   5
BRANCH   1  14
ATOM     14  S   UNL     1      -1.461  -5.864   3.673  0.00  0.00    +0.074 S 
ATOM     15  O   UNL     1      -1.289  -6.495   4.934  0.00  0.00    -0.152 OA
ATOM     16  O   UNL     1      -2.653  -5.175   3.322  0.00  0.00    -0.152 OA
BRANCH  14  17
ATOM     17  C   UNL     1      -1.222  -7.111   2.450  0.00  0.00    +0.112 A 
ATOM     18  C   UNL     1      -2.142  -7.262   1.429  0.00  0.00    +0.029 A 
ATOM     19  C   UNL     1      -1.954  -8.240   0.470  0.00  0.00    +0.004 A 
ATOM     20  C   UNL     1      -0.847  -9.065   0.531  0.00  0.00    +0.033 A 
ATOM     21  C   UNL     1       0.072  -8.913   1.552  0.00  0.00    +0.131 A 
ATOM     22  C   UNL     1      -0.113  -7.933   2.509  0.00  0.00    +0.006 A 
ATOM     23  C   UNL     1       0.893  -7.763   3.618  0.00  0.00    +0.048 C 
BRANCH  21  24
ATOM     24  N   UNL     1       1.258  -9.797   1.618  0.00  0.00    +0.057 N 
ATOM     25  O   UNL     1       1.482 -10.575   0.720  0.00  0.00    -0.126 OA
ATOM     26  O   UNL     1       2.001  -9.742   2.570  0.00  0.00    -0.126 OA
ENDBRANCH  21  24
ENDBRANCH  14  17
ENDBRANCH   1  14
TORSDOF 5
