REMARK  Name = ZINC13060330
REMARK  11 active torsions:
REMARK  status: ('A' for Active; 'I' for Inactive)
REMARK    1  A    between atoms: C_1  and  C_2
REMARK    2  A    between atoms: C_3  and  C_28
REMARK    3  A    between atoms: C_4  and  C_18
REMARK    4  A    between atoms: N_9  and  C_10
REMARK    5  A    between atoms: C_13  and  C_16
REMARK    6  A    between atoms: C_23  and  C_24
REMARK    7  A    between atoms: C_28  and  O_30
REMARK    8  A    between atoms: O_30  and  C_31
REMARK    9  A    between atoms: C_31  and  C_32
REMARK   10  A    between atoms: C_32  and  O_33
REMARK   11  A    between atoms: O_33  and  C_34
REMARK                            x       y       z     vdW  Elec       q    Type
REMARK                         _______ _______ _______ _____ _____    ______ ____
ROOT
ATOM      1  C   UNL     1      -5.690  -2.819  -2.399  0.00  0.00    +0.062 C 
ATOM      2  C   UNL     1      -5.091  -1.804  -3.338  0.00  0.00    +0.029 C 
ATOM      3  C   UNL     1      -3.999  -1.109  -2.956  0.00  0.00    +0.078 C 
ATOM      4  C   UNL     1      -3.425  -0.103  -3.933  0.00  0.00    +0.144 C 
ATOM      5  N   UNL     1      -4.113   0.038  -5.227  0.00  0.00    -0.288 N 
ATOM      6  C   UNL     1      -5.199  -0.724  -5.463  0.00  0.00    +0.311 C 
ATOM      7  O   UNL     1      -5.774  -0.615  -6.529  0.00  0.00    -0.252 OA
ATOM      8  N   UNL     1      -5.664  -1.599  -4.563  0.00  0.00    -0.228 N 
ATOM      9  H   UNL     1      -3.793   0.666  -5.894  0.00  0.00    +0.151 HD
ENDROOT
BRANCH   8  10
ATOM     10  C   UNL     1      -6.795  -2.348  -4.895  0.00  0.00    +0.043 A 
ATOM     11  C   UNL     1      -8.025  -2.038  -4.323  0.00  0.00    +0.025 A 
ATOM     12  C   UNL     1      -9.143  -2.770  -4.652  0.00  0.00    +0.017 A 
ATOM     13  C   UNL     1      -9.040  -3.834  -5.553  0.00  0.00    +0.063 A 
ATOM     14  C   UNL     1      -7.801  -4.146  -6.122  0.00  0.00    +0.017 A 
ATOM     15  C   UNL     1      -6.688  -3.405  -5.792  0.00  0.00    +0.025 A 
BRANCH  13  16
ATOM     16  C   UNL     1     -10.234  -4.624  -5.904  0.00  0.00    +0.387 C 
ATOM     17  O   UNL     1     -10.143  -5.548  -6.688  0.00  0.00    -0.241 OA
ATOM     18  O   UNL     1     -11.427  -4.322  -5.356  0.00  0.00    -0.241 OA
ENDBRANCH  13  16
ENDBRANCH   8  10
BRANCH   4  19
ATOM     19  C   UNL     1      -3.418   1.246  -3.262  0.00  0.00    -0.011 A 
ATOM     20  C   UNL     1      -4.596   1.783  -2.777  0.00  0.00    +0.006 A 
ATOM     21  C   UNL     1      -4.590   3.020  -2.161  0.00  0.00    +0.000 A 
ATOM     22  C   UNL     1      -3.405   3.720  -2.029  0.00  0.00    +0.001 A 
ATOM     23  C   UNL     1      -2.227   3.183  -2.513  0.00  0.00    +0.013 A 
ATOM     24  C   UNL     1      -2.233   1.944  -3.125  0.00  0.00    +0.060 A 
BRANCH  24  25
ATOM     25  C   UNL     1      -0.947   1.356  -3.647  0.00  0.00    +0.418 C 
ATOM     26  F   UNL     1       0.099   2.260  -3.435  0.00  0.00    -0.166 F 
ATOM     27  F   UNL     1      -0.674   0.160  -2.975  0.00  0.00    -0.166 F 
ATOM     28  F   UNL     1      -1.073   1.103  -5.017  0.00  0.00    -0.166 F 
ENDBRANCH  24  25
ENDBRANCH   4  19
BRANCH   3  29
ATOM     29  C   UNL     1      -3.407  -1.316  -1.687  0.00  0.00    +0.339 C 
ATOM     30  O   UNL     1      -3.945  -2.046  -0.877  0.00  0.00    -0.245 OA
BRANCH  29  31
ATOM     31  O   UNL     1      -2.245  -0.704  -1.377  0.00  0.00    -0.459 OA
BRANCH  31  32
ATOM     32  C   UNL     1      -1.647  -1.043  -0.124  0.00  0.00    +0.260 C 
BRANCH  32  33
ATOM     33  C   UNL     1      -0.300  -0.330   0.009  0.00  0.00    +0.200 C 
BRANCH  33  34
ATOM     34  O   UNL     1      -0.515   1.080   0.105  0.00  0.00    -0.380 OA
ATOM     35  C   UNL     1       0.675   1.834   0.344  0.00  0.00    +0.194 C 
ENDBRANCH  33  34
ENDBRANCH  32  33
ENDBRANCH  31  32
ENDBRANCH  29  31
ENDBRANCH   3  29
TORSDOF 9
