REMARK  Name = ZINC39991356
REMARK  8 active torsions:
REMARK  status: ('A' for Active; 'I' for Inactive)
REMARK    1  A    between atoms: C_1  and  C_2
REMARK    2  A    between atoms: C_2  and  C_3
REMARK    3  A    between atoms: C_2  and  C_4
REMARK    4  A    between atoms: C_7  and  C_10
REMARK    5  A    between atoms: C_10  and  N_11
REMARK    6  A    between atoms: N_11  and  C_12
REMARK    7  A    between atoms: N_11  and  S_15
REMARK    8  A    between atoms: S_15  and  C_18
REMARK                            x       y       z     vdW  Elec       q    Type
REMARK                         _______ _______ _______ _____ _____    ______ ____
ROOT
ATOM      1  S   UNL     1      -7.022   0.136   0.446  0.00  0.00    +0.061 S 
ATOM      2  O   UNL     1      -8.272   0.499  -0.124  0.00  0.00    -0.153 OA
ATOM      3  O   UNL     1      -6.909  -0.391   1.761  0.00  0.00    -0.153 OA
ENDROOT
BRANCH   1   4
ATOM      4  C   UNL     1      -6.006   1.575   0.392  0.00  0.00    +0.107 A 
ATOM      5  C   UNL     1      -4.995   1.766   1.424  0.00  0.00    +0.030 A 
ATOM      6  C   UNL     1      -4.184   2.846   1.441  0.00  0.00    +0.027 A 
ATOM      7  C   UNL     1      -4.314   3.861   0.397  0.00  0.00    +0.056 A 
ATOM      8  N   UNL     1      -3.708   4.990   0.127  0.00  0.00    -0.268 N 
ATOM      9  C   UNL     1      -4.272   5.523  -1.008  0.00  0.00    +0.308 C 
ATOM     10  O   UNL     1      -3.938   6.567  -1.528  0.00  0.00    -0.252 OA
ATOM     11  N   UNL     1      -5.269   4.695  -1.467  0.00  0.00    -0.267 N 
ATOM     12  C   UNL     1      -5.353   3.665  -0.663  0.00  0.00    +0.058 A 
ATOM     13  C   UNL     1      -6.185   2.465  -0.609  0.00  0.00    +0.053 A 
ATOM     14  H   UNL     1      -5.818   4.848  -2.252  0.00  0.00    +0.156 HD
ATOM     15  H   UNL     1      -2.986   5.384   0.640  0.00  0.00    +0.156 HD
ENDBRANCH   1   4
BRANCH   1  16
ATOM     16  N   UNL     1      -6.344  -0.981  -0.572  0.00  0.00    -0.169 NA
BRANCH  16  17
ATOM     17  C   UNL     1      -6.613  -0.919  -2.010  0.00  0.00    +0.080 C 
ATOM     18  C   UNL     1      -6.128  -2.087  -2.870  0.00  0.00    +0.022 C 
ATOM     19  C   UNL     1      -5.417  -0.735  -2.946  0.00  0.00    +0.022 C 
ENDBRANCH  16  17
BRANCH  16  20
ATOM     20  C   UNL     1      -5.475  -2.030  -0.033  0.00  0.00    +0.144 C 
BRANCH  20  24
ATOM     21  C   UNL     1      -1.398  -0.784  -0.303  0.00  0.00    -0.045 A 
ATOM     22  C   UNL     1      -2.171  -0.391   0.773  0.00  0.00    +0.004 A 
ATOM     23  C   UNL     1      -3.491  -0.793   0.860  0.00  0.00    +0.005 A 
ATOM     24  C   UNL     1      -4.037  -1.590  -0.129  0.00  0.00    -0.032 A 
ATOM     25  C   UNL     1      -3.264  -1.983  -1.205  0.00  0.00    +0.005 A 
ATOM     26  C   UNL     1      -1.946  -1.577  -1.295  0.00  0.00    +0.004 A 
BRANCH  21  28
ATOM     27  C   UNL     1       0.106   1.183  -0.429  0.00  0.00    +0.012 C 
ATOM     28  C   UNL     1       0.040  -0.345  -0.399  0.00  0.00    +0.013 C 
ATOM     29  C   UNL     1       0.813  -0.864   0.815  0.00  0.00    +0.012 C 
ENDBRANCH  21  28
ENDBRANCH  20  24
ENDBRANCH  16  20
ENDBRANCH   1  16
TORSDOF 6
