REMARK  Name = ZINC67244492
REMARK  6 active torsions:
REMARK  status: ('A' for Active; 'I' for Inactive)
REMARK    1  A    between atoms: C_1  and  N_2
REMARK    2  A    between atoms: N_2  and  C_3
REMARK    3  A    between atoms: N_2  and  C_4
REMARK    4  A    between atoms: N_13  and  S_15
REMARK    5  A    between atoms: S_15  and  C_18
REMARK    6  A    between atoms: C_23  and  N_24
REMARK                            x       y       z     vdW  Elec       q    Type
REMARK                         _______ _______ _______ _____ _____    ______ ____
ROOT
ATOM      1  C   UNL     1      -2.329  -1.740   0.423  0.00  0.00    -0.046 C 
ATOM      2  C   UNL     1      -2.827  -3.173   0.229  0.00  0.00    +0.023 C 
ATOM      3  C   UNL     1      -4.248  -3.174  -0.269  0.00  0.00    -0.026 A 
ATOM      4  C   UNL     1      -5.016  -4.314  -0.101  0.00  0.00    +0.005 A 
ATOM      5  C   UNL     1      -6.322  -4.348  -0.549  0.00  0.00    +0.000 A 
ATOM      6  C   UNL     1      -6.872  -3.241  -1.171  0.00  0.00    +0.002 A 
ATOM      7  C   UNL     1      -6.114  -2.100  -1.342  0.00  0.00    +0.025 A 
ATOM      8  C   UNL     1      -4.799  -2.064  -0.889  0.00  0.00    +0.054 A 
ATOM      9  N   UNL     1      -4.050  -0.895  -1.064  0.00  0.00    -0.204 N 
ATOM     10  C   UNL     1      -2.596  -0.943  -0.860  0.00  0.00    +0.117 C 
ENDROOT
BRANCH   1  12
ATOM     11  C   UNL     1      -0.410  -0.377   0.882  0.00  0.00    -0.096 C 
ATOM     12  N   UNL     1      -0.887  -1.754   0.703  0.00  0.00    +0.379 N 
ATOM     13  C   UNL     1      -0.633  -2.524   1.928  0.00  0.00    -0.096 C 
ATOM     14  H   UNL     1      -0.399  -2.181  -0.070  0.00  0.00    -0.082 HD
ENDBRANCH   1  12
BRANCH   9  15
ATOM     15  S   UNL     1      -4.792   0.523  -1.493  0.00  0.00    +0.077 S 
ATOM     16  O   UNL     1      -6.090   0.493  -0.917  0.00  0.00    -0.150 OA
ATOM     17  O   UNL     1      -3.863   1.564  -1.224  0.00  0.00    -0.150 OA
BRANCH  15  18
ATOM     18  C   UNL     1      -5.015   0.486  -3.240  0.00  0.00    +0.140 A 
ATOM     19  C   UNL     1      -4.527  -0.577  -3.977  0.00  0.00    +0.051 A 
ATOM     20  C   UNL     1      -4.703  -0.606  -5.349  0.00  0.00    +0.043 A 
ATOM     21  C   UNL     1      -5.368   0.429  -5.983  0.00  0.00    +0.022 A 
ATOM     22  C   UNL     1      -5.855   1.491  -5.245  0.00  0.00    +0.036 A 
ATOM     23  C   UNL     1      -5.683   1.517  -3.873  0.00  0.00    +0.153 A 
ATOM     24 CL   UNL     1      -4.090  -1.940  -6.275  0.00  0.00    -0.083 Cl
BRANCH  23  25
ATOM     25  N   UNL     1      -6.211   2.652  -3.083  0.00  0.00    +0.058 N 
ATOM     26  O   UNL     1      -6.883   3.501  -3.620  0.00  0.00    -0.126 OA
ATOM     27  O   UNL     1      -5.969   2.729  -1.901  0.00  0.00    -0.126 OA
ENDBRANCH  23  25
ENDBRANCH  15  18
ENDBRANCH   9  15
TORSDOF 4
