REMARK  Name = ZINC12814040
REMARK  4 active torsions:
REMARK  status: ('A' for Active; 'I' for Inactive)
REMARK    1  A    between atoms: C_1  and  C_2
REMARK    2  A    between atoms: C_5  and  N_11
REMARK    3  A    between atoms: C_7  and  N_8
REMARK    4  A    between atoms: C_12  and  C_14
REMARK                            x       y       z     vdW  Elec       q    Type
REMARK                         _______ _______ _______ _____ _____    ______ ____
ROOT
ATOM      1  N   UNL     1       1.364   3.601  -0.009  0.00  0.00    -0.285 N 
ATOM      2  C   UNL     1       0.326   4.359   0.398  0.00  0.00    +0.225 C 
ATOM      3  O   UNL     1      -0.728   3.836   0.691  0.00  0.00    -0.275 OA
ATOM      4  H   UNL     1       2.186   4.023  -0.304  0.00  0.00    +0.155 HD
ENDROOT
BRANCH   2   5
ATOM      5  C   UNL     1       0.477   5.856   0.491  0.00  0.00    +0.116 C 
ATOM      6  C   UNL     1       0.827   6.418  -0.887  0.00  0.00    +0.113 C 
ATOM      7  C   UNL     1      -0.373   6.340  -1.793  0.00  0.00    +0.218 C 
ATOM      8  O   UNL     1      -0.218   6.109  -2.974  0.00  0.00    -0.275 OA
ATOM      9  N   UNL     1      -1.615   6.523  -1.308  0.00  0.00    -0.285 N 
ATOM     10  C   UNL     1      -1.814   6.772   0.053  0.00  0.00    +0.037 A 
ATOM     11  C   UNL     1      -0.817   6.462   0.969  0.00  0.00    -0.014 A 
ATOM     12  C   UNL     1      -1.013   6.708   2.313  0.00  0.00    +0.006 A 
ATOM     13  C   UNL     1      -2.203   7.264   2.748  0.00  0.00    +0.000 A 
ATOM     14  C   UNL     1      -3.198   7.574   1.839  0.00  0.00    +0.002 A 
ATOM     15  C   UNL     1      -3.007   7.330   0.493  0.00  0.00    +0.023 A 
ATOM     16  H   UNL     1      -2.376   6.481  -1.907  0.00  0.00    +0.155 HD
ENDBRANCH   2   5
BRANCH   1  21
ATOM     17  C   UNL     1       0.920  -2.055  -0.007  0.00  0.00    +0.046 C 
ATOM     18  C   UNL     1       1.038  -0.552  -0.007  0.00  0.00    -0.020 A 
ATOM     19  C   UNL     1      -0.063   0.226  -0.315  0.00  0.00    +0.007 A 
ATOM     20  C   UNL     1       0.042   1.603  -0.316  0.00  0.00    +0.024 A 
ATOM     21  C   UNL     1       1.254   2.206  -0.008  0.00  0.00    +0.036 A 
ATOM     22  C   UNL     1       2.358   1.422   0.301  0.00  0.00    +0.056 A 
ATOM     23  C   UNL     1       2.246   0.045   0.300  0.00  0.00    +0.131 A 
BRANCH  23  24
ATOM     24  N   UNL     1       3.422  -0.792   0.629  0.00  0.00    +0.057 N 
ATOM     25  O   UNL     1       4.447  -0.271   1.032  0.00  0.00    -0.126 OA
ATOM     26  O   UNL     1       3.365  -2.001   0.496  0.00  0.00    -0.126 OA
ENDBRANCH  23  24
ENDBRANCH   1  21
TORSDOF 3
