REMARK  Name = ZINC40860633
REMARK  4 active torsions:
REMARK  status: ('A' for Active; 'I' for Inactive)
REMARK    1  A    between atoms: C_4  and  N_10
REMARK    2  A    between atoms: C_6  and  N_7
REMARK    3  A    between atoms: N_10  and  S_11
REMARK    4  A    between atoms: S_11  and  N_14
REMARK                            x       y       z     vdW  Elec       q    Type
REMARK                         _______ _______ _______ _____ _____    ______ ____
ROOT
ATOM      1  N   UNL     1       3.620  -0.652  -0.037  0.00  0.00    -0.086 NA
ENDROOT
BRANCH   1   5
ATOM      2  C   UNL     1      -0.014   1.382   0.060  0.00  0.00    +0.034 A 
ATOM      3  C   UNL     1       0.002  -0.000   0.005  0.00  0.00    +0.024 A 
ATOM      4  C   UNL     1       1.205  -0.678  -0.027  0.00  0.00    +0.066 A 
ATOM      5  C   UNL     1       2.401   0.030  -0.005  0.00  0.00    +0.096 A 
ATOM      6  C   UNL     1       2.381   1.418   0.049  0.00  0.00    +0.061 A 
ATOM      7  C   UNL     1       1.174   2.089   0.081  0.00  0.00    +0.128 A 
ATOM      8 CL   UNL     1       1.224  -2.413  -0.094  0.00  0.00    -0.082 Cl
BRANCH   7   9
ATOM      9  N   UNL     1       1.152   3.568   0.139  0.00  0.00    +0.056 N 
ATOM     10  O   UNL     1       0.097   4.156   0.167  0.00  0.00    -0.126 OA
ATOM     11  O   UNL     1       2.190   4.187   0.158  0.00  0.00    -0.126 OA
ENDBRANCH   7   9
ENDBRANCH   1   5
BRANCH   1  12
ATOM     12  S   UNL     1       5.038   0.193  -0.172  0.00  0.00    +0.131 S 
ATOM     13  O   UNL     1       4.985   0.879  -1.416  0.00  0.00    -0.136 OA
ATOM     14  O   UNL     1       5.228   0.868   1.063  0.00  0.00    -0.136 OA
BRANCH  12  15
ATOM     15  N   UNL     1       6.260  -0.918  -0.296  0.00  0.00    -0.166 NA
ATOM     16  C   UNL     1       6.936  -1.436   0.903  0.00  0.00    +0.092 C 
ATOM     17  C   UNL     1       6.952  -2.966   0.830  0.00  0.00    -0.065 C 
ATOM     18  N   UNL     1       7.559  -3.389  -0.439  0.00  0.00    +0.381 N 
ATOM     19  C   UNL     1       6.725  -2.948  -1.564  0.00  0.00    -0.065 C 
ATOM     20  C   UNL     1       6.695  -1.421  -1.609  0.00  0.00    +0.092 C 
ATOM     21  H   UNL     1       8.478  -2.981  -0.522  0.00  0.00    -0.086 HD
ATOM     22  H   UNL     1       7.638  -4.395  -0.454  0.00  0.00    -0.086 HD
ENDBRANCH  12  15
ENDBRANCH   1  12
TORSDOF 4
