REMARK  Name = ZINC38975644
REMARK  7 active torsions:
REMARK  status: ('A' for Active; 'I' for Inactive)
REMARK    1  A    between atoms: C_1  and  C_2
REMARK    2  A    between atoms: C_4  and  C_8
REMARK    3  A    between atoms: N_14  and  N_15
REMARK    4  A    between atoms: C_16  and  C_17
REMARK    5  A    between atoms: C_19  and  O_25
REMARK    6  A    between atoms: C_20  and  O_24
REMARK    7  A    between atoms: O_25  and  C_26
REMARK                            x       y       z     vdW  Elec       q    Type
REMARK                         _______ _______ _______ _____ _____    ______ ____
ROOT
ATOM      1  N   UNL     1       0.864  -4.776   1.172  0.00  0.00    -0.184 NA
ATOM      2  C   UNL     1       1.134  -6.044   1.241  0.00  0.00    +0.138 C 
ENDROOT
BRANCH   2   3
ATOM      3  C   UNL     1       2.534  -6.497   1.311  0.00  0.00    -0.001 A 
ATOM      4  C   UNL     1       2.827  -7.862   1.379  0.00  0.00    +0.059 A 
ATOM      5  C   UNL     1       4.143  -8.281   1.444  0.00  0.00    +0.163 A 
ATOM      6  C   UNL     1       5.174  -7.344   1.442  0.00  0.00    +0.173 A 
ATOM      7  C   UNL     1       4.884  -5.988   1.375  0.00  0.00    +0.063 A 
ATOM      8  C   UNL     1       3.573  -5.562   1.304  0.00  0.00    +0.028 A 
ATOM      9 BR   UNL     1       6.289  -4.722   1.375  0.00  0.00    -0.046 Br
BRANCH   6  10
ATOM     10  O   UNL     1       6.467  -7.758   1.507  0.00  0.00    -0.503 OA
ATOM     11  H   UNL     1       6.873  -7.915   0.644  0.00  0.00    +0.292 HD
ENDBRANCH   6  10
BRANCH   5  12
ATOM     12  O   UNL     1       4.431  -9.608   1.511  0.00  0.00    -0.491 OA
ATOM     13  C   UNL     1       3.325 -10.513   1.509  0.00  0.00    +0.277 C 
ENDBRANCH   5  12
ENDBRANCH   2   3
BRANCH   1  19
ATOM     14  C   UNL     1      -0.975  -2.966   1.027  0.00  0.00    +0.265 C 
ATOM     15  N   UNL     1      -2.433  -3.114   1.170  0.00  0.00    -0.169 NA
ATOM     16  N   UNL     1      -2.674  -4.306   1.382  0.00  0.00    -0.096 NA
ATOM     17  C   UNL     1      -1.583  -5.080   1.418  0.00  0.00    +0.198 C 
ATOM     18  S   UNL     1      -1.594  -6.771   1.690  0.00  0.00    -0.013 S 
ATOM     19  N   UNL     1      -0.467  -4.340   1.209  0.00  0.00    -0.173 N 
BRANCH  14  23
ATOM     20  C   UNL     1      -0.146   1.197  -1.032  0.00  0.00    +0.067 C 
ATOM     21  C   UNL     1      -0.111  -0.288  -0.774  0.00  0.00    +0.058 C 
ATOM     22  C   UNL     1      -1.190  -1.048  -0.574  0.00  0.00    +0.030 C 
ATOM     23  C   UNL     1      -0.622  -2.441  -0.365  0.00  0.00    +0.198 C 
ATOM     24  N   UNL     1       0.830  -2.228  -0.493  0.00  0.00    -0.176 NA
ATOM     25  N   UNL     1       1.017  -1.030  -0.720  0.00  0.00    -0.159 NA
ENDBRANCH  14  23
ENDBRANCH   1  19
TORSDOF 5
