REMARK  Name = ZINC61360390
REMARK  4 active torsions:
REMARK  status: ('A' for Active; 'I' for Inactive)
REMARK    1  A    between atoms: C_3  and  S_9
REMARK    2  A    between atoms: C_4  and  N_8
REMARK    3  A    between atoms: S_9  and  N_12
REMARK    4  A    between atoms: N_12  and  C_13
REMARK                            x       y       z     vdW  Elec       q    Type
REMARK                         _______ _______ _______ _____ _____    ______ ____
ROOT
ATOM      1  S   UNL     1       3.742   2.382   0.066  0.00  0.00    +0.061 S 
ATOM      2  O   UNL     1       4.537   1.858  -0.990  0.00  0.00    -0.153 OA
ATOM      3  O   UNL     1       3.260   3.719   0.066  0.00  0.00    -0.153 OA
ENDROOT
BRANCH   1   6
ATOM      4  C   UNL     1       1.054  -0.534  -0.580  0.00  0.00    +0.040 A 
ATOM      5  C   UNL     1       2.161   0.287  -0.683  0.00  0.00    +0.033 A 
ATOM      6  C   UNL     1       2.329   1.337   0.198  0.00  0.00    +0.126 A 
ATOM      7  C   UNL     1       1.384   1.569   1.190  0.00  0.00    +0.054 A 
ATOM      8  C   UNL     1       0.272   0.744   1.292  0.00  0.00    +0.063 A 
ATOM      9  C   UNL     1       0.109  -0.306   0.406  0.00  0.00    +0.125 A 
ATOM     10  F   UNL     1      -0.973  -1.110   0.504  0.00  0.00    -0.205 F 
BRANCH   7  11
ATOM     11  N   UNL     1       1.552   2.631   2.082  0.00  0.00    -0.356 N 
ATOM     12  H   UNL     1       2.301   3.238   1.978  0.00  0.00    +0.142 HD
ATOM     13  H   UNL     1       0.919   2.760   2.806  0.00  0.00    +0.142 HD
ENDBRANCH   7  11
ENDBRANCH   1   6
BRANCH   1  14
ATOM     14  N   UNL     1       4.621   2.195   1.457  0.00  0.00    -0.182 NA
ATOM     15  H   UNL     1       4.741   2.946   2.059  0.00  0.00    +0.149 HD
BRANCH  14  16
ATOM     16  C   UNL     1       5.216   0.896   1.779  0.00  0.00    +0.107 C 
ATOM     17  C   UNL     1       5.143   0.658   3.288  0.00  0.00    +0.025 C 
ATOM     18  C   UNL     1       6.047   1.654   4.020  0.00  0.00    +0.007 C 
ATOM     19  C   UNL     1       7.512   1.288   3.739  0.00  0.00    +0.043 C 
ATOM     20  C   UNL     1       7.667   1.064   2.270  0.00  0.00    -0.005 A 
ATOM     21  C   UNL     1       6.680   0.883   1.346  0.00  0.00    -0.019 A 
ATOM     22  C   UNL     1       7.083   0.692   0.025  0.00  0.00    +0.013 A 
ATOM     23  C   UNL     1       8.399   0.691  -0.288  0.00  0.00    +0.046 A 
ATOM     24  S   UNL     1       9.158   0.968   1.315  0.00  0.00    -0.101 S 
ENDBRANCH  14  16
ENDBRANCH   1  14
TORSDOF 4
