REMARK  Name = ZINC20477672
REMARK  8 active torsions:
REMARK  status: ('A' for Active; 'I' for Inactive)
REMARK    1  A    between atoms: C_1  and  C_2
REMARK    2  A    between atoms: C_3  and  C_40
REMARK    3  A    between atoms: C_5  and  N_11
REMARK    4  A    between atoms: C_6  and  C_7
REMARK    5  A    between atoms: C_7  and  O_9
REMARK    6  A    between atoms: O_9  and  C_10
REMARK    7  A    between atoms: C_27  and  C_33
REMARK    8  A    between atoms: C_33  and  C_35
REMARK                            x       y       z     vdW  Elec       q    Type
REMARK                         _______ _______ _______ _____ _____    ______ ____
ROOT
ATOM      1  N   UNL     1       0.054  -3.119   2.085  0.00  0.00    -0.203 N 
ATOM      2  C   UNL     1      -0.022  -4.436   1.836  0.00  0.00    +0.233 C 
ATOM      3  O   UNL     1      -0.249  -4.943   0.758  0.00  0.00    -0.274 OA
ATOM      4  C   UNL     1       0.225  -5.180   3.131  0.00  0.00    +0.115 C 
ATOM      5  C   UNL     1      -0.846  -6.244   3.359  0.00  0.00    +0.117 C 
ATOM      6  C   UNL     1      -1.362  -6.804   2.060  0.00  0.00    -0.019 A 
ATOM      7  C   UNL     1      -0.534  -6.960   0.972  0.00  0.00    +0.006 A 
ATOM      8  C   UNL     1      -1.037  -7.472  -0.212  0.00  0.00    +0.000 A 
ATOM      9  C   UNL     1      -2.370  -7.830  -0.307  0.00  0.00    +0.001 A 
ATOM     10  C   UNL     1      -3.210  -7.681   0.778  0.00  0.00    +0.008 A 
ATOM     11  C   UNL     1      -2.712  -7.167   1.976  0.00  0.00    -0.019 A 
ATOM     12  C   UNL     1      -3.599  -7.014   3.147  0.00  0.00    +0.023 C 
ATOM     13  C   UNL     1      -3.222  -6.211   4.162  0.00  0.00    +0.072 C 
ATOM     14  N   UNL     1      -1.979  -5.595   4.045  0.00  0.00    -0.317 N 
ATOM     15  C   UNL     1      -1.599  -4.247   4.452  0.00  0.00    +0.158 C 
ATOM     16  C   UNL     1      -0.070  -4.081   4.197  0.00  0.00    +0.118 C 
ATOM     17  C   UNL     1       0.154  -2.812   3.388  0.00  0.00    +0.233 C 
ATOM     18  O   UNL     1       0.382  -1.711   3.841  0.00  0.00    -0.274 OA
ENDROOT
BRANCH   1  23
ATOM     19  C   UNL     1       1.899   0.151  -1.317  0.00  0.00    +0.045 C 
ATOM     20  C   UNL     1       0.818  -0.579  -0.562  0.00  0.00    -0.025 A 
ATOM     21  C   UNL     1      -0.489  -0.361  -0.797  0.00  0.00    -0.008 A 
ATOM     22  S   UNL     1      -1.299  -1.459   0.345  0.00  0.00    -0.077 S 
ATOM     23  C   UNL     1       0.037  -2.158   1.081  0.00  0.00    +0.096 A 
ATOM     24  C   UNL     1       1.120  -1.559   0.455  0.00  0.00    +0.091 A 
ATOM     25  C   UNL     1      -1.117   0.586  -1.788  0.00  0.00    +0.052 C 
BRANCH  24  26
ATOM     26  C   UNL     1       2.501  -1.901   0.810  0.00  0.00    +0.342 C 
ATOM     27  O   UNL     1       3.073  -1.285   1.689  0.00  0.00    -0.245 OA
BRANCH  26  28
ATOM     28  O   UNL     1       3.137  -2.898   0.162  0.00  0.00    -0.464 OA
ATOM     29  C   UNL     1       4.481  -3.177   0.559  0.00  0.00    +0.280 C 
ENDBRANCH  26  28
ENDBRANCH  24  26
ENDBRANCH   1  23
BRANCH  15  30
ATOM     30  C   UNL     1      -2.366  -3.234   3.641  0.00  0.00    +0.191 C 
ATOM     31  O   UNL     1      -2.965  -3.582   2.644  0.00  0.00    -0.289 OA
BRANCH  30  32
ATOM     32  C   UNL     1      -2.387  -1.879   4.041  0.00  0.00    +0.056 A 
ATOM     33  C   UNL     1      -3.029  -0.798   3.444  0.00  0.00    +0.019 A 
ATOM     34  C   UNL     1      -2.864   0.410   4.071  0.00  0.00    +0.008 A 
ATOM     35  C   UNL     1      -2.108   0.474   5.197  0.00  0.00    +0.046 A 
ATOM     36  S   UNL     1      -1.604  -1.110   5.445  0.00  0.00    -0.094 S 
ENDBRANCH  30  32
ENDBRANCH  15  30
TORSDOF 5
