REMARK  Name = ZINC61680224
REMARK  3 active torsions:
REMARK  status: ('A' for Active; 'I' for Inactive)
REMARK    1  A    between atoms: C_3  and  N_16
REMARK    2  A    between atoms: C_6  and  N_7
REMARK    3  A    between atoms: C_8  and  C_10
REMARK                            x       y       z     vdW  Elec       q    Type
REMARK                         _______ _______ _______ _____ _____    ______ ____
ROOT
ATOM      1  N   UNL     1      -1.197  -0.730   0.010  0.00  0.00    -0.280 N 
ATOM      2  C   UNL     1      -1.172  -2.073  -0.100  0.00  0.00    +0.255 C 
ATOM      3  O   UNL     1      -0.107  -2.663  -0.113  0.00  0.00    -0.269 OA
ATOM      4  H   UNL     1      -2.044  -0.266   0.097  0.00  0.00    +0.155 HD
ENDROOT
BRANCH   1  10
ATOM      5  C   UNL     1       1.088  -0.448  -0.756  0.00  0.00    +0.028 A 
ATOM      6  C   UNL     1       2.251   0.300  -0.740  0.00  0.00    +0.045 A 
ATOM      7  C   UNL     1       2.298   1.463   0.022  0.00  0.00    +0.116 A 
ATOM      8  N   UNL     1       1.247   1.855   0.725  0.00  0.00    -0.239 NA
ATOM      9  C   UNL     1       0.122   1.166   0.732  0.00  0.00    +0.136 A 
ATOM     10  C   UNL     1       0.002  -0.004  -0.004  0.00  0.00    +0.052 A 
BRANCH   7  11
ATOM     11  N   UNL     1       3.464   2.223   0.045  0.00  0.00    -0.343 N 
ATOM     12  H   UNL     1       4.238   1.941  -0.468  0.00  0.00    +0.144 HD
ATOM     13  H   UNL     1       3.503   3.035   0.574  0.00  0.00    +0.144 HD
ENDBRANCH   7  11
ENDBRANCH   1  10
BRANCH   2  14
ATOM     14  C   UNL     1      -2.426  -2.822  -0.202  0.00  0.00    +0.076 A 
ATOM     15  C   UNL     1      -2.620  -4.191  -0.315  0.00  0.00    +0.022 A 
ATOM     16  C   UNL     1      -3.927  -4.605  -0.393  0.00  0.00    +0.028 A 
ATOM     17  C   UNL     1      -4.916  -3.675  -0.355  0.00  0.00    +0.079 A 
ATOM     18  S   UNL     1      -4.101  -2.213  -0.206  0.00  0.00    -0.072 S 
ATOM     19 CL   UNL     1      -6.630  -3.937  -0.436  0.00  0.00    -0.076 Cl
ENDBRANCH   2  14
TORSDOF 3
