REMARK  Name = ZINC13205105
REMARK  11 active torsions:
REMARK  status: ('A' for Active; 'I' for Inactive)
REMARK    1  A    between atoms: C_1  and  C_2
REMARK    2  A    between atoms: C_6  and  C_8
REMARK    3  A    between atoms: C_11  and  S_16
REMARK    4  A    between atoms: N_12  and  C_13
REMARK    5  A    between atoms: C_13  and  C_14
REMARK    6  A    between atoms: S_16  and  C_17
REMARK    7  A    between atoms: C_17  and  C_19
REMARK    8  A    between atoms: C_17  and  C_20
REMARK    9  A    between atoms: N_22  and  C_23
REMARK   10  A    between atoms: C_27  and  C_29
REMARK   11  A    between atoms: C_29  and  C_31
REMARK                            x       y       z     vdW  Elec       q    Type
REMARK                         _______ _______ _______ _____ _____    ______ ____
ROOT
ATOM      1  C   UNL     1       1.105   3.118  -0.084  0.00  0.00    +0.165 A 
ATOM      2  N   UNL     1       2.239   3.763  -0.227  0.00  0.00    -0.128 NA
ATOM      3  N   UNL     1       2.032   5.031  -0.183  0.00  0.00    -0.122 NA
ATOM      4  C   UNL     1       0.753   5.273  -0.001  0.00  0.00    +0.193 A 
ATOM      5  N   UNL     1       0.118   4.065   0.069  0.00  0.00    -0.291 N 
ENDROOT
BRANCH   1  11
ATOM      6  C   UNL     1       2.761  -1.440  -1.258  0.00  0.00    +0.044 C 
ATOM      7  C   UNL     1       1.715  -0.545  -0.645  0.00  0.00    -0.050 A 
ATOM      8  C   UNL     1       0.579  -1.097  -0.079  0.00  0.00    +0.003 A 
ATOM      9  C   UNL     1      -0.386  -0.282   0.485  0.00  0.00    +0.001 A 
ATOM     10  C   UNL     1      -0.222   1.088   0.486  0.00  0.00    +0.011 A 
ATOM     11  C   UNL     1       0.922   1.651  -0.082  0.00  0.00    +0.020 A 
ATOM     12  C   UNL     1       1.892   0.823  -0.649  0.00  0.00    +0.015 A 
ENDBRANCH   1  11
BRANCH   5  13
ATOM     13  C   UNL     1      -1.314   3.828   0.265  0.00  0.00    +0.250 C 
BRANCH  13  14
ATOM     14  C   UNL     1      -1.627   3.833   1.739  0.00  0.00    +0.375 C 
ATOM     15  O   UNL     1      -0.744   4.016   2.543  0.00  0.00    -0.244 OA
ATOM     16  O   UNL     1      -2.886   3.634   2.159  0.00  0.00    -0.244 OA
ENDBRANCH  13  14
ENDBRANCH   5  13
BRANCH   4  17
ATOM     17  S   UNL     1      -0.002   6.859   0.130  0.00  0.00    -0.073 S 
BRANCH  17  18
ATOM     18  C   UNL     1       1.455   7.917  -0.057  0.00  0.00    +0.137 C 
ATOM     19  C   UNL     1       2.397   7.700   1.128  0.00  0.00    +0.029 C 
BRANCH  18  20
ATOM     20  C   UNL     1       1.025   9.361  -0.099  0.00  0.00    +0.230 C 
ATOM     21  O   UNL     1      -0.018   9.699   0.420  0.00  0.00    -0.274 OA
ATOM     22  N   UNL     1       1.799  10.277  -0.714  0.00  0.00    -0.285 N 
ATOM     23  H   UNL     1       2.601   9.998  -1.184  0.00  0.00    +0.155 HD
BRANCH  22  24
ATOM     24  C   UNL     1       1.448  11.631  -0.674  0.00  0.00    +0.034 A 
ATOM     25  C   UNL     1       2.438  12.604  -0.608  0.00  0.00    +0.023 A 
ATOM     26  C   UNL     1       2.097  13.944  -0.569  0.00  0.00    +0.002 A 
ATOM     27  C   UNL     1       0.772  14.325  -0.595  0.00  0.00    +0.011 A 
ATOM     28  C   UNL     1      -0.233  13.354  -0.662  0.00  0.00    +0.019 A 
ATOM     29  C   UNL     1       0.113  12.001  -0.707  0.00  0.00    +0.034 A 
BRANCH  28  30
ATOM     30  C   UNL     1      -1.649  13.757  -0.690  0.00  0.00    +0.160 C 
ATOM     31  O   UNL     1      -2.518  12.913  -0.748  0.00  0.00    -0.292 OA
ATOM     32  C   UNL     1      -2.018  15.217  -0.647  0.00  0.00    +0.091 C 
ENDBRANCH  28  30
ENDBRANCH  22  24
ENDBRANCH  18  20
ENDBRANCH  17  18
ENDBRANCH   4  17
TORSDOF 8
