REMARK  Name = ZINC64540665
REMARK  9 active torsions:
REMARK  status: ('A' for Active; 'I' for Inactive)
REMARK    1  A    between atoms: C_1  and  C_2
REMARK    2  A    between atoms: C_2  and  C_4
REMARK    3  A    between atoms: C_2  and  C_22
REMARK    4  A    between atoms: C_10  and  C_12
REMARK    5  A    between atoms: N_24  and  C_25
REMARK    6  A    between atoms: C_25  and  C_26
REMARK    7  A    between atoms: C_26  and  N_27
REMARK    8  A    between atoms: N_27  and  C_28
REMARK    9  A    between atoms: N_27  and  C_29
REMARK                            x       y       z     vdW  Elec       q    Type
REMARK                         _______ _______ _______ _____ _____    ______ ____
ROOT
ATOM      1  C   UNL     1       0.742  -0.511   1.242  0.00  0.00    +0.004 C 
ATOM      2  C   UNL     1       0.026  -0.016   2.501  0.00  0.00    +0.023 C 
ATOM      3  C   UNL     1       0.790  -0.496   3.739  0.00  0.00    +0.108 C 
ATOM      4  N   UNL     1       0.940  -1.956   3.665  0.00  0.00    -0.300 N 
ATOM      5  C   UNL     1       1.534  -2.544   2.457  0.00  0.00    +0.108 C 
ATOM      6  C   UNL     1       0.763  -2.041   1.233  0.00  0.00    +0.023 C 
ATOM      7  C   UNL     1       0.541  -2.740   4.686  0.00  0.00    +0.242 C 
ATOM      8  O   UNL     1       0.053  -2.242   5.678  0.00  0.00    -0.273 OA
ENDROOT
BRANCH   7   9
ATOM      9  C   UNL     1       0.703  -4.235   4.595  0.00  0.00    +0.190 C 
ATOM     10  C   UNL     1       2.167  -4.596   4.483  0.00  0.00    +0.016 C 
ATOM     11  C   UNL     1       2.449  -5.359   5.563  0.00  0.00    -0.004 A 
ATOM     12  C   UNL     1       3.679  -6.013   6.025  0.00  0.00    +0.010 A 
ATOM     13  C   UNL     1       3.651  -6.728   7.172  0.00  0.00    +0.001 A 
ATOM     14  C   UNL     1       2.480  -6.860   7.930  0.00  0.00    +0.002 A 
ATOM     15  C   UNL     1       1.311  -6.289   7.571  0.00  0.00    +0.026 A 
ATOM     16  C   UNL     1       1.225  -5.514   6.381  0.00  0.00    +0.043 A 
ATOM     17  N   UNL     1       0.224  -4.872   5.828  0.00  0.00    -0.370 N 
ATOM     18  H   UNL     1      -0.681  -4.824   6.174  0.00  0.00    +0.161 HD
ENDBRANCH   7   9
BRANCH   1  20
ATOM     19  C   UNL     1      -0.019   1.526   0.010  0.00  0.00    +0.017 C 
ATOM     20  C   UNL     1       0.002  -0.004   0.002  0.00  0.00    +0.075 C 
BRANCH  20  21
ATOM     21  C   UNL     1       0.707  -0.490  -1.238  0.00  0.00    +0.216 C 
ATOM     22  O   UNL     1       1.704  -1.174  -1.140  0.00  0.00    -0.276 OA
ATOM     23  N   UNL     1       0.231  -0.164  -2.456  0.00  0.00    -0.317 N 
ATOM     24  H   UNL     1      -0.566   0.383  -2.534  0.00  0.00    +0.149 HD
BRANCH  23  25
ATOM     25  C   UNL     1       0.917  -0.637  -3.661  0.00  0.00    +0.085 C 
BRANCH  25  26
ATOM     26  C   UNL     1       0.177  -0.130  -4.901  0.00  0.00    -0.060 C 
BRANCH  26  27
ATOM     27  N   UNL     1       0.864  -0.604  -6.109  0.00  0.00    +0.381 N 
ATOM     28  C   UNL     1       2.201   0.001  -6.181  0.00  0.00    -0.096 C 
ATOM     29  H   UNL     1       0.951  -1.608  -6.075  0.00  0.00    -0.082 HD
BRANCH  27  30
ATOM     30  C   UNL     1       0.089  -0.219  -7.296  0.00  0.00    -0.069 C 
ATOM     31  C   UNL     1      -1.304  -0.848  -7.222  0.00  0.00    -0.015 C 
ATOM     32  C   UNL     1      -2.111  -0.448  -8.458  0.00  0.00    -0.002 C 
ATOM     33  C   UNL     1      -1.395  -0.941  -9.717  0.00  0.00    -0.000 C 
ATOM     34  C   UNL     1      -0.002  -0.312  -9.791  0.00  0.00    -0.002 C 
ATOM     35  C   UNL     1       0.805  -0.712  -8.555  0.00  0.00    -0.015 C 
ENDBRANCH  27  30
ENDBRANCH  26  27
ENDBRANCH  25  26
ENDBRANCH  23  25
ENDBRANCH  20  21
ENDBRANCH   1  20
TORSDOF 7
