REMARK  Name = ZINC38980814
REMARK  8 active torsions:
REMARK  status: ('A' for Active; 'I' for Inactive)
REMARK    1  A    between atoms: C_1  and  O_2
REMARK    2  A    between atoms: O_2  and  C_3
REMARK    3  A    between atoms: C_6  and  S_9
REMARK    4  A    between atoms: S_9  and  N_12
REMARK    5  A    between atoms: C_14  and  N_24
REMARK    6  A    between atoms: N_24  and  C_25
REMARK    7  A    between atoms: C_25  and  C_26
REMARK    8  A    between atoms: C_26  and  C_27
REMARK                            x       y       z     vdW  Elec       q    Type
REMARK                         _______ _______ _______ _____ _____    ______ ____
ROOT
ATOM      1  N   UNL     1      -5.651  -2.974  -1.542  0.00  0.00    -0.112 NA
ATOM      2  C   UNL     1      -6.775  -3.565  -1.823  0.00  0.00    +0.167 C 
ATOM      3  C   UNL     1      -7.189  -3.783  -3.261  0.00  0.00    +0.217 C 
ATOM      4  N   UNL     1      -8.473  -4.458  -3.512  0.00  0.00    -0.362 N 
ATOM      5  C   UNL     1      -9.188  -4.834  -2.489  0.00  0.00    +0.060 A 
ATOM      6  C   UNL     1     -10.478  -5.513  -2.685  0.00  0.00    +0.027 A 
ATOM      7  C   UNL     1     -11.191  -5.888  -1.600  0.00  0.00    +0.002 A 
ATOM      8  C   UNL     1     -10.731  -5.646  -0.295  0.00  0.00    +0.002 A 
ATOM      9  C   UNL     1      -9.558  -5.029  -0.036  0.00  0.00    +0.028 A 
ATOM     10  C   UNL     1      -8.727  -4.592  -1.099  0.00  0.00    +0.064 A 
ATOM     11  N   UNL     1      -7.583  -3.995  -0.841  0.00  0.00    -0.338 N 
ATOM     12  H   UNL     1      -8.779  -4.620  -4.418  0.00  0.00    +0.162 HD
ATOM     13  H   UNL     1      -7.318  -3.860   0.083  0.00  0.00    +0.167 HD
ENDROOT
BRANCH   1  14
ATOM     14  S   UNL     1      -5.207  -2.748   0.036  0.00  0.00    +0.100 S 
ATOM     15  O   UNL     1      -4.982  -4.040   0.584  0.00  0.00    -0.146 OA
ATOM     16  O   UNL     1      -6.142  -1.836   0.595  0.00  0.00    -0.146 OA
BRANCH  14  20
ATOM     17  C   UNL     1      -1.200  -0.637   0.010  0.00  0.00    +0.120 A 
ATOM     18  C   UNL     1      -2.375   0.101   0.019  0.00  0.00    +0.047 A 
ATOM     19  C   UNL     1      -3.596  -0.545   0.027  0.00  0.00    +0.032 A 
ATOM     20  C   UNL     1      -3.648  -1.927   0.026  0.00  0.00    +0.113 A 
ATOM     21  C   UNL     1      -2.479  -2.665   0.017  0.00  0.00    +0.032 A 
ATOM     22  C   UNL     1      -1.255  -2.024   0.003  0.00  0.00    +0.047 A 
BRANCH  17  24
ATOM     23  C   UNL     1      -0.017   1.425   0.010  0.00  0.00    +0.277 C 
ATOM     24  O   UNL     1       0.002  -0.004   0.002  0.00  0.00    -0.495 OA
ENDBRANCH  17  24
ENDBRANCH  14  20
ENDBRANCH   1  14
BRANCH   3  25
ATOM     25  N   UNL     1      -6.135  -4.568  -3.917  0.00  0.00    -0.290 NA
ATOM     26  H   UNL     1      -5.313  -4.627  -3.335  0.00  0.00    +0.124 HD
BRANCH  25  27
ATOM     27  C   UNL     1      -5.807  -4.011  -5.236  0.00  0.00    +0.088 C 
BRANCH  27  28
ATOM     28  C   UNL     1      -4.708  -4.853  -5.887  0.00  0.00    +0.050 C 
BRANCH  28  29
ATOM     29  C   UNL     1      -4.372  -4.282  -7.240  0.00  0.00    -0.046 A 
ATOM     30  C   UNL     1      -5.054  -4.714  -8.362  0.00  0.00    +0.003 A 
ATOM     31  C   UNL     1      -4.745  -4.189  -9.603  0.00  0.00    +0.000 A 
ATOM     32  C   UNL     1      -3.755  -3.232  -9.722  0.00  0.00    +0.000 A 
ATOM     33  C   UNL     1      -3.074  -2.800  -8.600  0.00  0.00    +0.000 A 
ATOM     34  C   UNL     1      -3.385  -3.321  -7.358  0.00  0.00    +0.003 A 
ENDBRANCH  28  29
ENDBRANCH  27  28
ENDBRANCH  25  27
ENDBRANCH   3  25
TORSDOF 7
