REMARK  Name = ZINC40308082
REMARK  7 active torsions:
REMARK  status: ('A' for Active; 'I' for Inactive)
REMARK    1  A    between atoms: C_1  and  N_2
REMARK    2  A    between atoms: N_2  and  C_3
REMARK    3  A    between atoms: N_2  and  C_4
REMARK    4  A    between atoms: C_7  and  N_11
REMARK    5  A    between atoms: C_12  and  C_14
REMARK    6  A    between atoms: C_16  and  N_21
REMARK    7  A    between atoms: C_18  and  N_20
REMARK                            x       y       z     vdW  Elec       q    Type
REMARK                         _______ _______ _______ _____ _____    ______ ____
ROOT
ATOM      1  N   UNL     1      -4.783  -2.855   0.031  0.00  0.00    -0.281 N 
ATOM      2  C   UNL     1      -5.303  -3.289   1.197  0.00  0.00    +0.248 C 
ATOM      3  O   UNL     1      -4.776  -2.982   2.249  0.00  0.00    -0.270 OA
ATOM      4  H   UNL     1      -5.245  -3.035  -0.802  0.00  0.00    +0.155 HD
ENDROOT
BRANCH   1   8
ATOM      5  C   UNL     1      -1.192  -0.735   0.009  0.00  0.00    +0.048 A 
ATOM      6  C   UNL     1      -2.177  -0.443  -0.925  0.00  0.00    +0.026 A 
ATOM      7  C   UNL     1      -3.366  -1.145  -0.918  0.00  0.00    +0.025 A 
ATOM      8  C   UNL     1      -3.577  -2.143   0.024  0.00  0.00    +0.035 A 
ATOM      9  C   UNL     1      -2.592  -2.437   0.958  0.00  0.00    +0.045 A 
ATOM     10  C   UNL     1      -1.400  -1.738   0.947  0.00  0.00    +0.064 A 
ATOM     11 CL   UNL     1      -0.166  -2.109   2.111  0.00  0.00    -0.082 Cl
BRANCH   5  13
ATOM     12  C   UNL     1       0.147   1.200   0.795  0.00  0.00    +0.129 C 
ATOM     13  N   UNL     1       0.014  -0.024   0.001  0.00  0.00    -0.335 N 
ATOM     14  C   UNL     1       1.141  -0.502  -0.803  0.00  0.00    +0.129 C 
ENDBRANCH   5  13
ENDBRANCH   1   8
BRANCH   2  15
ATOM     15  C   UNL     1      -6.512  -4.139   1.196  0.00  0.00    +0.040 A 
ATOM     16  C   UNL     1      -7.114  -4.498  -0.010  0.00  0.00    +0.036 A 
ATOM     17  C   UNL     1      -8.249  -5.295  -0.007  0.00  0.00    +0.027 A 
ATOM     18  C   UNL     1      -8.786  -5.737   1.195  0.00  0.00    +0.045 A 
ATOM     19  C   UNL     1      -8.190  -5.381   2.398  0.00  0.00    +0.027 A 
ATOM     20  C   UNL     1      -7.051  -4.589   2.402  0.00  0.00    +0.036 A 
BRANCH  19  21
ATOM     21  N   UNL     1      -8.734  -5.827   3.605  0.00  0.00    -0.358 N 
ATOM     22  H   UNL     1      -9.528  -6.384   3.603  0.00  0.00    +0.142 HD
ATOM     23  H   UNL     1      -8.318  -5.579   4.445  0.00  0.00    +0.142 HD
ENDBRANCH  19  21
BRANCH  17  24
ATOM     24  N   UNL     1      -8.852  -5.655  -1.214  0.00  0.00    -0.358 N 
ATOM     25  H   UNL     1      -8.478  -5.347  -2.054  0.00  0.00    +0.142 HD
ATOM     26  H   UNL     1      -9.646  -6.213  -1.213  0.00  0.00    +0.142 HD
ENDBRANCH  17  24
ENDBRANCH   2  15
TORSDOF 5
