REMARK  Name = ZINC20175736
REMARK  15 active torsions:
REMARK  status: ('A' for Active; 'I' for Inactive)
REMARK    1  A    between atoms: C_1  and  C_2
REMARK    2  A    between atoms: C_2  and  O_3
REMARK    3  A    between atoms: O_3  and  C_4
REMARK    4  A    between atoms: C_6  and  C_11
REMARK    5  A    between atoms: C_9  and  O_10
REMARK    6  A    between atoms: C_12  and  C_13
REMARK    7  A    between atoms: C_12  and  C_15
REMARK    8  A    between atoms: N_17  and  C_18
REMARK    9  A    between atoms: C_19  and  C_29
REMARK   10  A    between atoms: C_20  and  C_28
REMARK   11  A    between atoms: C_21  and  C_23
REMARK   12  A    between atoms: N_25  and  C_26
REMARK   13  A    between atoms: N_25  and  C_27
REMARK   14  A    between atoms: C_29  and  O_31
REMARK   15  A    between atoms: O_31  and  C_32
REMARK                            x       y       z     vdW  Elec       q    Type
REMARK                         _______ _______ _______ _____ _____    ______ ____
ROOT
ATOM      1  C   UNL     1      -3.130  -2.379  -2.907  0.00  0.00    +0.259 C 
ATOM      2  O   UNL     1      -4.083  -1.883  -2.338  0.00  0.00    -0.269 OA
ATOM      3  N   UNL     1      -3.113  -3.701  -3.168  0.00  0.00    -0.275 N 
ATOM      4  H   UNL     1      -2.250  -4.149  -3.682  0.00  0.00    +0.156 HD
ENDROOT
BRANCH   3   5
ATOM      5  C   UNL     1      -4.178  -4.492  -2.789  0.00  0.00    +0.087 A 
ATOM      6  C   UNL     1      -4.347  -5.870  -2.968  0.00  0.00    +0.091 A 
ATOM      7  C   UNL     1      -5.519  -6.442  -2.494  0.00  0.00    -0.015 A 
ATOM      8  C   UNL     1      -6.427  -5.620  -1.886  0.00  0.00    +0.079 A 
ATOM      9  S   UNL     1      -5.631  -4.026  -1.968  0.00  0.00    -0.068 S 
ATOM     10  C   UNL     1      -5.782  -7.918  -2.646  0.00  0.00    +0.046 C 
BRANCH   8  11
ATOM     11  C   UNL     1      -7.726  -5.964  -1.304  0.00  0.00    +0.253 C 
ATOM     12  O   UNL     1      -8.146  -7.104  -1.384  0.00  0.00    -0.269 OA
ATOM     13  N   UNL     1      -8.457  -5.018  -0.681  0.00  0.00    -0.303 N 
ATOM     14  C   UNL     1      -9.773  -5.354  -0.132  0.00  0.00    +0.132 C 
ATOM     15  C   UNL     1      -7.936  -3.655  -0.554  0.00  0.00    +0.132 C 
ENDBRANCH   8  11
BRANCH   6  16
ATOM     16  C   UNL     1      -3.322  -6.681  -3.633  0.00  0.00    +0.342 C 
ATOM     17  O   UNL     1      -2.434  -7.194  -2.980  0.00  0.00    -0.245 OA
BRANCH  16  18
ATOM     18  O   UNL     1      -3.363  -6.856  -4.970  0.00  0.00    -0.464 OA
ATOM     19  C   UNL     1      -2.316  -7.670  -5.560  0.00  0.00    +0.280 C 
ENDBRANCH  16  18
ENDBRANCH   6  16
ENDBRANCH   3   5
BRANCH   1  21
ATOM     20  C   UNL     1      -2.012  -0.183  -3.044  0.00  0.00    +0.032 C 
ATOM     21  C   UNL     1      -1.994  -1.535  -3.310  0.00  0.00    +0.114 C 
BRANCH  20  24
ATOM     22  C   UNL     1       0.175   2.729  -3.926  0.00  0.00    +0.162 A 
ATOM     23  C   UNL     1      -0.952   1.970  -3.687  0.00  0.00    +0.057 A 
ATOM     24  C   UNL     1      -0.820   0.629  -3.299  0.00  0.00    -0.020 A 
ATOM     25  C   UNL     1       0.457   0.068  -3.157  0.00  0.00    +0.012 A 
ATOM     26  C   UNL     1       1.575   0.833  -3.399  0.00  0.00    +0.050 A 
ATOM     27  C   UNL     1       1.442   2.162  -3.782  0.00  0.00    +0.158 A 
BRANCH  27  28
ATOM     28  O   UNL     1       2.549   2.912  -4.019  0.00  0.00    -0.503 OA
ATOM     29  H   UNL     1       3.549   2.467  -3.906  0.00  0.00    +0.292 HD
ENDBRANCH  27  28
BRANCH  22  30
ATOM     30  O   UNL     1       0.051   4.030  -4.303  0.00  0.00    -0.489 OA
BRANCH  30  32
ATOM     31  C   UNL     1      -1.215   6.012  -4.859  0.00  0.00    +0.048 C 
ATOM     32  C   UNL     1      -1.276   4.544  -4.431  0.00  0.00    +0.226 C 
ENDBRANCH  30  32
ENDBRANCH  22  30
ENDBRANCH  20  24
BRANCH  21  33
ATOM     33  C   UNL     1      -0.871  -2.119  -3.980  0.00  0.00    +0.104 C 
ATOM     34  N   UNL     1       0.019  -2.582  -4.512  0.00  0.00    -0.191 NA
ENDBRANCH  21  33
ENDBRANCH   1  21
TORSDOF 10
