REMARK  Name = ZINC19794914
REMARK  5 active torsions:
REMARK  status: ('A' for Active; 'I' for Inactive)
REMARK    1  A    between atoms: C_1  and  C_2
REMARK    2  A    between atoms: C_2  and  C_3
REMARK    3  A    between atoms: C_2  and  C_4
REMARK    4  A    between atoms: C_10  and  C_11
REMARK    5  A    between atoms: C_14  and  C_16
REMARK                            x       y       z     vdW  Elec       q    Type
REMARK                         _______ _______ _______ _____ _____    ______ ____
ROOT
ATOM      1  C   UNL     1      -0.503  -2.730   0.148  0.00  0.00    +0.102 C 
ATOM      2  N   UNL     1      -1.383  -2.603   1.099  0.00  0.00    -0.169 NA
ATOM      3  N   UNL     1      -2.735  -2.652   0.835  0.00  0.00    -0.154 N 
ATOM      4  C   UNL     1      -3.768  -2.437   1.772  0.00  0.00    +0.132 C 
ATOM      5  N   UNL     1      -3.603  -1.768   2.883  0.00  0.00    -0.385 N 
ATOM      6  C   UNL     1      -5.064  -3.047   1.371  0.00  0.00    +0.082 C 
ATOM      7  C   UNL     1      -5.955  -3.551   2.308  0.00  0.00    +0.062 C 
ATOM      8  C   UNL     1      -5.354  -3.087  -0.080  0.00  0.00    +0.273 C 
ATOM      9  O   UNL     1      -6.504  -3.126  -0.490  0.00  0.00    -0.268 OA
ATOM     10  N   UNL     1      -4.313  -3.079  -0.937  0.00  0.00    -0.152 NA
ATOM     11  C   UNL     1      -3.103  -2.906  -0.470  0.00  0.00    +0.181 C 
ATOM     12  S   UNL     1      -1.534  -2.945  -1.296  0.00  0.00    -0.038 S 
ATOM     13  H   UNL     1      -2.735  -1.389   3.097  0.00  0.00    +0.157 HD
ATOM     14  H   UNL     1      -4.347  -1.649   3.494  0.00  0.00    +0.157 HD
ENDROOT
BRANCH   7  15
ATOM     15  C   UNL     1      -7.045  -4.332   1.891  0.00  0.00    +0.129 A 
ATOM     16  C   UNL     1      -8.085  -4.774   2.697  0.00  0.00    +0.050 A 
ATOM     17  C   UNL     1      -8.941  -5.510   1.880  0.00  0.00    +0.050 A 
ATOM     18  C   UNL     1      -8.402  -5.496   0.611  0.00  0.00    +0.136 A 
ATOM     19  O   UNL     1      -7.265  -4.779   0.636  0.00  0.00    -0.455 OA
BRANCH  18  20
ATOM     20  C   UNL     1      -8.979  -6.153  -0.577  0.00  0.00    +0.019 A 
ATOM     21  C   UNL     1     -10.178  -6.863  -0.472  0.00  0.00    +0.014 A 
ATOM     22  C   UNL     1     -10.714  -7.475  -1.586  0.00  0.00    +0.040 A 
ATOM     23  C   UNL     1     -10.065  -7.388  -2.808  0.00  0.00    +0.142 A 
ATOM     24  C   UNL     1      -8.874  -6.685  -2.918  0.00  0.00    +0.077 A 
ATOM     25  C   UNL     1      -8.331  -6.064  -1.812  0.00  0.00    +0.034 A 
ATOM     26 CL   UNL     1      -8.067  -6.582  -4.452  0.00  0.00    -0.081 Cl
ATOM     27  F   UNL     1     -10.594  -7.990  -3.895  0.00  0.00    -0.204 F 
ENDBRANCH  18  20
ENDBRANCH   7  15
BRANCH   1  29
ATOM     28  C   UNL     1       1.500  -1.282  -0.053  0.00  0.00    +0.014 C 
ATOM     29  C   UNL     1       1.001  -2.698   0.240  0.00  0.00    +0.040 C 
ATOM     30  C   UNL     1       1.434  -3.111   1.648  0.00  0.00    +0.014 C 
ENDBRANCH   1  29
TORSDOF 3
