REMARK  Name = ZINC21943307
REMARK  10 active torsions:
REMARK  status: ('A' for Active; 'I' for Inactive)
REMARK    1  A    between atoms: C_1  and  C_2
REMARK    2  A    between atoms: C_2  and  C_3
REMARK    3  A    between atoms: C_3  and  C_5
REMARK    4  A    between atoms: C_3  and  N_16
REMARK    5  A    between atoms: N_7  and  C_8
REMARK    6  A    between atoms: C_10  and  C_15
REMARK    7  A    between atoms: C_12  and  C_14
REMARK    8  A    between atoms: C_20  and  C_33
REMARK    9  A    between atoms: N_21  and  C_27
REMARK   10  A    between atoms: C_24  and  C_26
REMARK                            x       y       z     vdW  Elec       q    Type
REMARK                         _______ _______ _______ _____ _____    ______ ____
ROOT
ATOM      1  N   UNL     1      -2.815   5.720   0.141  0.00  0.00    -0.217 N 
ATOM      2  C   UNL     1      -3.077   6.331   1.315  0.00  0.00    +0.279 A 
ATOM      3  O   UNL     1      -3.670   5.744   2.202  0.00  0.00    -0.265 OA
ATOM      4  C   UNL     1      -2.634   7.716   1.501  0.00  0.00    +0.091 A 
ATOM      5  C   UNL     1      -2.707   8.645   2.510  0.00  0.00    +0.055 A 
ATOM      6  N   UNL     1      -2.104   9.767   2.079  0.00  0.00    -0.236 N 
ATOM      7  N   UNL     1      -1.629   9.580   0.775  0.00  0.00    -0.164 NA
ATOM      8  C   UNL     1      -1.923   8.362   0.385  0.00  0.00    +0.121 A 
ATOM      9  C   UNL     1      -1.708   7.576  -0.834  0.00  0.00    +0.086 A 
ATOM     10  N   UNL     1      -2.136   6.353  -0.898  0.00  0.00    -0.171 NA
ATOM     11  C   UNL     1      -0.987   8.185  -2.008  0.00  0.00    +0.070 C 
ATOM     12  C   UNL     1      -3.349   8.443   3.858  0.00  0.00    +0.066 C 
ENDROOT
BRANCH   6  13
ATOM     13  C   UNL     1      -1.973  10.947   2.823  0.00  0.00    +0.066 A 
ATOM     14  C   UNL     1      -2.173  12.179   2.214  0.00  0.00    +0.028 A 
ATOM     15  C   UNL     1      -2.047  13.340   2.951  0.00  0.00    +0.002 A 
ATOM     16  C   UNL     1      -1.712  13.277   4.291  0.00  0.00    +0.000 A 
ATOM     17  C   UNL     1      -1.506  12.052   4.899  0.00  0.00    +0.002 A 
ATOM     18  C   UNL     1      -1.635  10.887   4.168  0.00  0.00    +0.028 A 
ENDBRANCH   6  13
BRANCH   1  19
ATOM     19  C   UNL     1      -3.257   4.336  -0.047  0.00  0.00    +0.196 C 
BRANCH  19  20
ATOM     20  C   UNL     1      -2.062   3.459  -0.317  0.00  0.00    +0.242 C 
ATOM     21  O   UNL     1      -0.950   3.943  -0.350  0.00  0.00    -0.273 OA
ATOM     22  N   UNL     1      -2.228   2.137  -0.522  0.00  0.00    -0.284 N 
ATOM     23  H   UNL     1      -3.241   1.712  -0.574  0.00  0.00    +0.155 HD
BRANCH  22  24
ATOM     24  C   UNL     1      -1.112   1.306  -0.670  0.00  0.00    +0.034 A 
ATOM     25  C   UNL     1      -1.173   0.201  -1.508  0.00  0.00    +0.026 A 
ATOM     26  C   UNL     1      -0.071  -0.620  -1.648  0.00  0.00    -0.048 A 
ATOM     27  C   UNL     1       1.092  -0.343  -0.952  0.00  0.00    +0.006 A 
ATOM     28  C   UNL     1       1.156   0.757  -0.116  0.00  0.00    -0.048 A 
ATOM     29  C   UNL     1       0.058   1.582   0.027  0.00  0.00    +0.026 A 
ATOM     30  C   UNL     1       2.425   1.055   0.639  0.00  0.00    +0.044 C 
ATOM     31  C   UNL     1      -0.136  -1.819  -2.558  0.00  0.00    +0.044 C 
ENDBRANCH  22  24
ENDBRANCH  19  20
BRANCH  19  33
ATOM     32  C   UNL     1      -5.490   5.054  -0.907  0.00  0.00    +0.006 C 
ATOM     33  C   UNL     1      -4.221   4.264  -1.233  0.00  0.00    +0.033 C 
ENDBRANCH  19  33
ENDBRANCH   1  19
TORSDOF 5
