REMARK  Name = ZINC38971013
REMARK  6 active torsions:
REMARK  status: ('A' for Active; 'I' for Inactive)
REMARK    1  A    between atoms: C_1  and  C_2
REMARK    2  A    between atoms: C_3  and  N_9
REMARK    3  A    between atoms: N_9  and  C_10
REMARK    4  A    between atoms: C_12  and  C_21
REMARK    5  A    between atoms: C_26  and  O_33
REMARK    6  A    between atoms: O_33  and  C_34
REMARK                            x       y       z     vdW  Elec       q    Type
REMARK                         _______ _______ _______ _____ _____    ______ ____
ROOT
ATOM      1  C   UNL     1       0.321  -0.514  -3.797  0.00  0.00    +0.188 C 
ATOM      2  C   UNL     1      -0.800  -0.063  -4.751  0.00  0.00    +0.135 C 
ATOM      3  N   UNL     1      -0.093   0.325  -5.975  0.00  0.00    -0.366 N 
ATOM      4  C   UNL     1       1.204   0.155  -5.828  0.00  0.00    +0.100 C 
ATOM      5  N   UNL     1       1.548  -0.333  -4.591  0.00  0.00    -0.272 N 
ATOM      6  C   UNL     1       2.852  -0.571  -4.266  0.00  0.00    +0.078 C 
ATOM      7  C   UNL     1       3.841  -0.335  -5.152  0.00  0.00    +0.015 C 
ATOM      8  C   UNL     1       3.537   0.164  -6.430  0.00  0.00    +0.005 C 
ATOM      9  C   UNL     1       2.240   0.411  -6.772  0.00  0.00    +0.042 C 
ATOM     10  H   UNL     1      -0.520   0.658  -6.780  0.00  0.00    +0.161 HD
ENDROOT
BRANCH   2  11
ATOM     11  C   UNL     1      -1.556   1.131  -4.164  0.00  0.00    +0.124 C 
ATOM     12  C   UNL     1      -2.147   0.700  -2.836  0.00  0.00    -0.002 C 
ATOM     13  C   UNL     1      -3.499   0.802  -2.691  0.00  0.00    -0.003 A 
ATOM     14  C   UNL     1      -4.151   0.407  -1.443  0.00  0.00    +0.055 A 
ATOM     15  C   UNL     1      -5.504   0.526  -1.343  0.00  0.00    +0.121 A 
ATOM     16  C   UNL     1      -6.271   1.016  -2.407  0.00  0.00    +0.047 A 
ATOM     17  C   UNL     1      -5.723   1.397  -3.589  0.00  0.00    +0.027 A 
ATOM     18  C   UNL     1      -4.332   1.313  -3.793  0.00  0.00    +0.041 A 
ATOM     19  N   UNL     1      -3.808   1.692  -4.959  0.00  0.00    -0.284 N 
ATOM     20  C   UNL     1      -2.513   1.638  -5.218  0.00  0.00    +0.226 C 
ATOM     21  O   UNL     1      -2.093   1.998  -6.302  0.00  0.00    -0.275 OA
ATOM     22  H   UNL     1      -4.404   2.022  -5.649  0.00  0.00    +0.155 HD
BRANCH  15  23
ATOM     23  O   UNL     1      -6.122   0.162  -0.188  0.00  0.00    -0.495 OA
ATOM     24  C   UNL     1      -7.543   0.308  -0.139  0.00  0.00    +0.277 C 
ENDBRANCH  15  23
ENDBRANCH   2  11
BRANCH   1  25
ATOM     25  N   UNL     1       0.351   0.331  -2.601  0.00  0.00    -0.324 N 
ATOM     26  H   UNL     1       0.188   1.284  -2.676  0.00  0.00    +0.148 HD
BRANCH  25  29
ATOM     27  C   UNL     1       0.141   1.994  -0.302  0.00  0.00    +0.047 C 
ATOM     28  C   UNL     1       0.525   0.540  -0.203  0.00  0.00    -0.011 A 
ATOM     29  C   UNL     1       0.616  -0.235  -1.352  0.00  0.00    +0.033 A 
ATOM     30  C   UNL     1       0.970  -1.575  -1.256  0.00  0.00    +0.023 A 
ATOM     31  C   UNL     1       1.231  -2.133  -0.020  0.00  0.00    +0.003 A 
ATOM     32  C   UNL     1       1.139  -1.359   1.122  0.00  0.00    +0.020 A 
ATOM     33  C   UNL     1       0.792  -0.022   1.031  0.00  0.00    +0.046 A 
ATOM     34 CL   UNL     1       0.686   0.947   2.467  0.00  0.00    -0.083 Cl
ENDBRANCH  25  29
ENDBRANCH   1  25
TORSDOF 4
