REMARK  Name = ZINC13052001
REMARK  12 active torsions:
REMARK  status: ('A' for Active; 'I' for Inactive)
REMARK    1  A    between atoms: C_1  and  C_2
REMARK    2  A    between atoms: C_7  and  C_8
REMARK    3  A    between atoms: C_8  and  N_9
REMARK    4  A    between atoms: N_9  and  C_10
REMARK    5  A    between atoms: C_11  and  C_13
REMARK    6  A    between atoms: C_13  and  S_14
REMARK    7  A    between atoms: S_14  and  C_15
REMARK    8  A    between atoms: C_19  and  C_31
REMARK    9  A    between atoms: N_25  and  C_26
REMARK   10  A    between atoms: C_26  and  C_27
REMARK   11  A    between atoms: C_27  and  C_29
REMARK   12  A    between atoms: C_27  and  O_30
REMARK                            x       y       z     vdW  Elec       q    Type
REMARK                         _______ _______ _______ _____ _____    ______ ____
ROOT
ATOM      1  C   UNL     1       1.183   1.635   3.392  0.00  0.00    +0.173 A 
ATOM      2  N   UNL     1       1.937   1.361   4.428  0.00  0.00    -0.223 NA
ATOM      3  C   UNL     1       1.783   0.215   5.133  0.00  0.00    +0.080 A 
ATOM      4  C   UNL     1       2.588  -0.075   6.238  0.00  0.00    +0.043 A 
ATOM      5  C   UNL     1       2.393  -1.263   6.931  0.00  0.00    +0.065 A 
ATOM      6  C   UNL     1       1.399  -2.165   6.530  0.00  0.00    +0.016 A 
ATOM      7  C   UNL     1       0.607  -1.892   5.452  0.00  0.00    +0.016 A 
ATOM      8  C   UNL     1       0.785  -0.706   4.742  0.00  0.00    +0.065 A 
ATOM      9  C   UNL     1      -0.051  -0.369   3.578  0.00  0.00    +0.262 A 
ATOM     10  O   UNL     1      -0.930  -1.118   3.195  0.00  0.00    -0.267 OA
ATOM     11  N   UNL     1       0.197   0.802   2.947  0.00  0.00    -0.285 N 
ENDROOT
BRANCH   5  12
ATOM     12  C   UNL     1       3.241  -1.578   8.102  0.00  0.00    +0.387 C 
ATOM     13  O   UNL     1       4.104  -0.799   8.453  0.00  0.00    -0.241 OA
ATOM     14  O   UNL     1       3.057  -2.728   8.778  0.00  0.00    -0.241 OA
ENDBRANCH   5  12
BRANCH   1  15
ATOM     15  S   UNL     1       1.454   3.150   2.534  0.00  0.00    -0.078 S 
BRANCH  15  16
ATOM     16  C   UNL     1       2.818   3.826   3.512  0.00  0.00    +0.173 C 
BRANCH  16  19
ATOM     17  N   UNL     1       4.234   5.854   3.517  0.00  0.00    -0.300 N 
ATOM     18  C   UNL     1       4.926   5.311   4.689  0.00  0.00    +0.132 C 
ATOM     19  C   UNL     1       3.230   5.160   2.946  0.00  0.00    +0.226 C 
ATOM     20  O   UNL     1       2.657   5.610   1.976  0.00  0.00    -0.275 OA
BRANCH  17  21
ATOM     21  C   UNL     1       4.634   7.151   2.966  0.00  0.00    +0.142 C 
BRANCH  21  28
ATOM     22  C   UNL     1       4.921   9.893   2.101  0.00  0.00    +0.044 C 
ATOM     23  C   UNL     1       4.050   9.564   3.285  0.00  0.00    -0.046 A 
ATOM     24  C   UNL     1       3.388  10.574   3.958  0.00  0.00    +0.003 A 
ATOM     25  C   UNL     1       2.588  10.273   5.044  0.00  0.00    +0.000 A 
ATOM     26  C   UNL     1       2.451   8.961   5.459  0.00  0.00    +0.000 A 
ATOM     27  C   UNL     1       3.109   7.950   4.783  0.00  0.00    +0.005 A 
ATOM     28  C   UNL     1       3.913   8.253   3.700  0.00  0.00    -0.027 A 
ENDBRANCH  21  28
ENDBRANCH  17  21
ENDBRANCH  16  19
ENDBRANCH  15  16
ENDBRANCH   1  15
BRANCH  11  29
ATOM     29  C   UNL     1      -0.603   1.182   1.780  0.00  0.00    +0.158 C 
BRANCH  29  30
ATOM     30  C   UNL     1       0.066   0.654   0.509  0.00  0.00    +0.131 C 
ATOM     31  C   UNL     1      -0.770   1.051  -0.709  0.00  0.00    +0.039 C 
BRANCH  30  32
ATOM     32  O   UNL     1       1.375   1.215   0.392  0.00  0.00    -0.390 OA
ATOM     33  H   UNL     1       1.386   2.181   0.341  0.00  0.00    +0.210 HD
ENDBRANCH  30  32
ENDBRANCH  29  30
ENDBRANCH  11  29
TORSDOF 9
