REMARK  Name = ZINC36204996
REMARK  14 active torsions:
REMARK  status: ('A' for Active; 'I' for Inactive)
REMARK    1  A    between atoms: C_1  and  C_2
REMARK    2  A    between atoms: C_2  and  C_3
REMARK    3  A    between atoms: C_3  and  C_4
REMARK    4  A    between atoms: C_4  and  O_6
REMARK    5  A    between atoms: O_6  and  C_7
REMARK    6  A    between atoms: C_7  and  C_8
REMARK    7  A    between atoms: C_8  and  C_10
REMARK    8  A    between atoms: C_8  and  O_36
REMARK    9  A    between atoms: C_10  and  N_11
REMARK   10  A    between atoms: N_11  and  C_12
REMARK   11  A    between atoms: N_11  and  C_18
REMARK   12  A    between atoms: C_12  and  C_13
REMARK   13  A    between atoms: C_18  and  C_19
REMARK   14  A    between atoms: C_31  and  C_35
REMARK                            x       y       z     vdW  Elec       q    Type
REMARK                         _______ _______ _______ _____ _____    ______ ____
ROOT
ATOM      1  N   UNL     1      -5.411  -6.691  -0.367  0.00  0.00    +0.391 N 
ATOM      2  H   UNL     1      -5.921  -6.171  -1.066  0.00  0.00    -0.080 HD
ENDROOT
BRANCH   1   3
ATOM      3  C   UNL     1      -3.986  -6.341  -0.439  0.00  0.00    -0.043 C 
BRANCH   3   4
ATOM      4  C   UNL     1      -3.481  -6.554  -1.867  0.00  0.00    +0.136 C 
BRANCH   4   5
ATOM      5  O   UNL     1      -4.196  -5.697  -2.759  0.00  0.00    -0.390 OA
ATOM      6  H   UNL     1      -4.046  -4.754  -2.603  0.00  0.00    +0.210 HD
ENDBRANCH   4   5
BRANCH   4   7
ATOM      7  C   UNL     1      -1.988  -6.228  -1.934  0.00  0.00    +0.261 C 
BRANCH   7   8
ATOM      8  O   UNL     1      -1.490  -6.538  -3.238  0.00  0.00    -0.462 OA
BRANCH   8   9
ATOM      9  C   UNL     1      -0.187  -6.307  -3.463  0.00  0.00    +0.307 C 
ATOM     10  O   UNL     1       0.508  -5.858  -2.583  0.00  0.00    -0.251 OA
BRANCH   9  11
ATOM     11  C   UNL     1       0.409  -6.610  -4.814  0.00  0.00    +0.120 C 
BRANCH  11  13
ATOM     12  C   UNL     1       2.503  -6.566  -6.176  0.00  0.00    +0.004 C 
ATOM     13  C   UNL     1       1.898  -6.259  -4.804  0.00  0.00    +0.008 C 
ENDBRANCH  11  13
ENDBRANCH   9  11
ENDBRANCH   8   9
ENDBRANCH   7   8
ENDBRANCH   4   7
ENDBRANCH   3   4
ENDBRANCH   1   3
BRANCH   1  14
ATOM     14  C   UNL     1      -5.930  -6.356   0.966  0.00  0.00    -0.002 C 
BRANCH  14  15
ATOM     15  C   UNL     1      -5.895  -4.862   1.159  0.00  0.00    +0.089 A 
ATOM     16  C   UNL     1      -6.839  -3.994   0.753  0.00  0.00    +0.042 A 
ATOM     17  C   UNL     1      -6.402  -2.705   1.137  0.00  0.00    +0.041 A 
ATOM     18  C   UNL     1      -5.218  -2.863   1.755  0.00  0.00    +0.195 A 
ATOM     19  O   UNL     1      -4.918  -4.172   1.771  0.00  0.00    -0.470 OA
ENDBRANCH  14  15
ENDBRANCH   1  14
BRANCH   1  20
ATOM     20  C   UNL     1      -5.575  -8.130  -0.609  0.00  0.00    -0.003 C 
BRANCH  20  21
ATOM     21  C   UNL     1      -7.043  -8.467  -0.657  0.00  0.00    +0.094 A 
ATOM     22  N   UNL     1      -7.426  -9.753  -0.866  0.00  0.00    -0.312 N 
ATOM     23  H   UNL     1      -6.748 -10.438  -0.982  0.00  0.00    +0.170 HD
ATOM     24  C   UNL     1      -8.726 -10.098  -0.915  0.00  0.00    +0.260 A 
ATOM     25  O   UNL     1      -9.053 -11.258  -1.103  0.00  0.00    -0.267 OA
ATOM     26  C   UNL     1      -9.720  -9.080  -0.743  0.00  0.00    +0.075 A 
ATOM     27  C   UNL     1     -11.175  -9.219  -0.758  0.00  0.00    -0.023 A 
ATOM     28  C   UNL     1     -11.899  -8.096  -0.569  0.00  0.00    -0.004 A 
ATOM     29  S   UNL     1     -10.701  -6.806  -0.362  0.00  0.00    -0.073 S 
ATOM     30  C   UNL     1      -9.228  -7.782  -0.531  0.00  0.00    +0.116 A 
ATOM     31  N   UNL     1      -7.925  -7.519  -0.490  0.00  0.00    -0.229 NA
ATOM     32  C   UNL     1     -13.392  -7.972  -0.543  0.00  0.00    +0.046 C 
ATOM     33  C   UNL     1     -13.995  -9.255  -1.134  0.00  0.00    -0.009 C 
ATOM     34  C   UNL     1     -13.309 -10.462  -0.487  0.00  0.00    +0.008 C 
ATOM     35  C   UNL     1     -11.864 -10.563  -0.977  0.00  0.00    +0.037 C 
ATOM     36  C   UNL     1     -15.497  -9.297  -0.844  0.00  0.00    +0.008 C 
ENDBRANCH  20  21
ENDBRANCH   1  20
TORSDOF 12
