REMARK  Name = ZINC64788332
REMARK  6 active torsions:
REMARK  status: ('A' for Active; 'I' for Inactive)
REMARK    1  A    between atoms: C_1  and  N_2
REMARK    2  A    between atoms: N_2  and  C_3
REMARK    3  A    between atoms: N_2  and  C_4
REMARK    4  A    between atoms: C_7  and  C_10
REMARK    5  A    between atoms: N_22  and  C_25
REMARK    6  A    between atoms: C_25  and  C_26
REMARK                            x       y       z     vdW  Elec       q    Type
REMARK                         _______ _______ _______ _____ _____    ______ ____
ROOT
ATOM      1  C   UNL     1      -4.870  -2.906   0.033  0.00  0.00    +0.108 C 
ATOM      2  C   UNL     1      -5.522  -2.907  -1.371  0.00  0.00    +0.077 C 
ATOM      3  C   UNL     1      -6.998  -2.787  -1.040  0.00  0.00    +0.038 C 
ATOM      4  N   UNL     1      -7.105  -2.406   0.247  0.00  0.00    -0.283 N 
ATOM      5  N   UNL     1      -5.895  -2.211   0.846  0.00  0.00    -0.235 NA
ATOM      6  C   UNL     1      -8.049  -3.027  -1.907  0.00  0.00    +0.117 C 
ATOM      7  C   UNL     1      -7.815  -3.447  -3.300  0.00  0.00    +0.258 C 
ATOM      8  N   UNL     1      -8.888  -3.663  -4.089  0.00  0.00    -0.235 N 
ATOM      9  H   UNL     1      -8.751  -3.940  -5.009  0.00  0.00    +0.159 HD
ATOM     10  C   UNL     1     -10.137  -3.503  -3.632  0.00  0.00    +0.316 C 
ATOM     11  O   UNL     1     -11.060  -3.713  -4.394  0.00  0.00    -0.252 OA
ATOM     12  N   UNL     1     -10.423  -3.124  -2.378  0.00  0.00    -0.218 N 
ATOM     13  C   UNL     1      -9.450  -2.879  -1.476  0.00  0.00    +0.261 C 
ATOM     14  O   UNL     1      -9.723  -2.540  -0.340  0.00  0.00    -0.269 OA
ATOM     15  O   UNL     1      -6.686  -3.595  -3.727  0.00  0.00    -0.270 OA
ATOM     16  H   UNL     1      -5.901  -2.557   1.794  0.00  0.00    +0.145 HD
ATOM     17  H   UNL     1      -7.953  -2.283   0.701  0.00  0.00    +0.166 HD
ENDROOT
BRANCH   1  21
ATOM     18  C   UNL     1      -1.198  -0.719   0.010  0.00  0.00    +0.029 A 
ATOM     19  C   UNL     1      -1.181  -2.108   0.008  0.00  0.00    +0.023 A 
ATOM     20  C   UNL     1      -2.369  -2.812   0.016  0.00  0.00    +0.007 A 
ATOM     21  C   UNL     1      -3.575  -2.135   0.025  0.00  0.00    -0.028 A 
ATOM     22  C   UNL     1      -3.596  -0.752   0.027  0.00  0.00    +0.007 A 
ATOM     23  C   UNL     1      -2.411  -0.042   0.025  0.00  0.00    +0.023 A 
BRANCH  18  25
ATOM     24  C   UNL     1      -0.018   1.461   0.010  0.00  0.00    +0.129 C 
ATOM     25  N   UNL     1       0.002  -0.004   0.002  0.00  0.00    -0.336 N 
ATOM     26  C   UNL     1       1.281  -0.719  -0.014  0.00  0.00    +0.129 C 
ENDBRANCH  18  25
ENDBRANCH   1  21
BRANCH  12  27
ATOM     27  C   UNL     1     -11.825  -2.978  -1.976  0.00  0.00    +0.145 C 
BRANCH  27  28
ATOM     28  C   UNL     1     -12.330  -4.289  -1.433  0.00  0.00    -0.015 C 
ATOM     29  C   UNL     1     -12.863  -4.341  -0.237  0.00  0.00    +0.005 C 
ENDBRANCH  27  28
ENDBRANCH  12  27
TORSDOF 4
