REMARK  Name = ZINC07800019
REMARK  10 active torsions:
REMARK  status: ('A' for Active; 'I' for Inactive)
REMARK    1  A    between atoms: C_1  and  C_2
REMARK    2  A    between atoms: C_5  and  C_30
REMARK    3  A    between atoms: C_6  and  O_8
REMARK    4  A    between atoms: O_8  and  C_9
REMARK    5  A    between atoms: C_9  and  C_10
REMARK    6  A    between atoms: C_10  and  O_12
REMARK    7  A    between atoms: O_12  and  C_13
REMARK    8  A    between atoms: C_13  and  C_14
REMARK    9  A    between atoms: N_16  and  N_17
REMARK   10  A    between atoms: C_23  and  C_26
REMARK                            x       y       z     vdW  Elec       q    Type
REMARK                         _______ _______ _______ _____ _____    ______ ____
ROOT
ATOM      1  C   UNL     1       5.104   9.234   0.004  0.00  0.00    +0.267 C 
ATOM      2  O   UNL     1       4.045   9.824   0.017  0.00  0.00    -0.271 OA
ATOM      3  N   UNL     1       6.261   9.925  -0.002  0.00  0.00    -0.221 N 
ATOM      4  H   UNL     1       7.108   9.453  -0.013  0.00  0.00    +0.174 HD
ENDROOT
BRANCH   3   5
ATOM      5  N   UNL     1       6.240  11.326   0.005  0.00  0.00    -0.137 N 
ATOM      6  C   UNL     1       6.527  12.082   1.085  0.00  0.00    +0.263 C 
ATOM      7  O   UNL     1       6.841  11.695   2.190  0.00  0.00    -0.271 OA
ATOM      8  C   UNL     1       6.376  13.515   0.625  0.00  0.00    +0.114 C 
ATOM      9  C   UNL     1       7.702  14.256   0.754  0.00  0.00    +0.035 C 
ATOM     10  C   UNL     1       7.536  15.695   0.258  0.00  0.00    +0.006 C 
ATOM     11  C   UNL     1       6.458  16.397   1.086  0.00  0.00    -0.014 C 
ATOM     12  C   UNL     1       5.128  15.656   0.927  0.00  0.00    +0.006 C 
ATOM     13  C   UNL     1       5.285  14.217   1.425  0.00  0.00    +0.035 C 
ATOM     14  C   UNL     1       6.299  17.839   0.599  0.00  0.00    +0.007 C 
ATOM     15  N   UNL     1       5.987  13.398  -0.786  0.00  0.00    -0.284 N 
ATOM     16  C   UNL     1       5.938  12.080  -1.059  0.00  0.00    +0.326 C 
ATOM     17  O   UNL     1       5.649  11.626  -2.149  0.00  0.00    -0.251 OA
ATOM     18  H   UNL     1       5.805  14.125  -1.400  0.00  0.00    +0.151 HD
ENDBRANCH   3   5
BRANCH   1  19
ATOM     19  C   UNL     1       5.127   7.727  -0.004  0.00  0.00    +0.329 C 
BRANCH  19  20
ATOM     20  O   UNL     1       3.765   7.222   0.006  0.00  0.00    -0.453 OA
BRANCH  20  21
ATOM     21  C   UNL     1       3.609   5.889   0.000  0.00  0.00    +0.346 C 
ATOM     22  O   UNL     1       4.578   5.168  -0.013  0.00  0.00    -0.247 OA
BRANCH  21  23
ATOM     23  C   UNL     1       2.226   5.292   0.010  0.00  0.00    +0.349 C 
BRANCH  23  24
ATOM     24  O   UNL     1       2.322   3.866   0.001  0.00  0.00    -0.481 OA
BRANCH  24  30
ATOM     25  C   UNL     1      -2.559   3.865   0.047  0.00  0.00    +0.044 C 
ATOM     26  C   UNL     1      -1.242   3.133   0.031  0.00  0.00    -0.047 A 
ATOM     27  C   UNL     1      -1.219   1.750   0.017  0.00  0.00    +0.004 A 
ATOM     28  C   UNL     1      -0.013   1.076   0.008  0.00  0.00    +0.007 A 
ATOM     29  C   UNL     1       1.175   1.782   0.000  0.00  0.00    -0.009 A 
ATOM     30  C   UNL     1       1.155   3.169   0.008  0.00  0.00    +0.124 A 
ATOM     31  C   UNL     1      -0.057   3.844   0.023  0.00  0.00    +0.049 A 
ATOM     32  C   UNL     1       2.490   1.047  -0.017  0.00  0.00    +0.047 C 
ENDBRANCH  24  30
ENDBRANCH  23  24
ENDBRANCH  21  23
ENDBRANCH  20  21
ENDBRANCH  19  20
ENDBRANCH   1  19
TORSDOF 7
