REMARK  Name = ZINC66662419
REMARK  5 active torsions:
REMARK  status: ('A' for Active; 'I' for Inactive)
REMARK    1  A    between atoms: C_4  and  N_7
REMARK    2  A    between atoms: C_8  and  N_15
REMARK    3  A    between atoms: C_10  and  C_12
REMARK    4  A    between atoms: C_16  and  C_18
REMARK    5  A    between atoms: C_21  and  N_23
REMARK                            x       y       z     vdW  Elec       q    Type
REMARK                         _______ _______ _______ _____ _____    ______ ____
ROOT
ATOM      1  N   UNL     1       3.623  -0.652  -0.037  0.00  0.00    -0.218 N 
ATOM      2  C   UNL     1       3.890  -1.835   0.581  0.00  0.00    +0.129 A 
ATOM      3  C   UNL     1       5.188  -2.149   0.318  0.00  0.00    +0.069 A 
ATOM      4  C   UNL     1       5.723  -1.132  -0.478  0.00  0.00    +0.068 A 
ATOM      5  N   UNL     1       4.789  -0.241  -0.696  0.00  0.00    -0.169 NA
ENDROOT
BRANCH   1   9
ATOM      6  C   UNL     1      -0.017   1.379   0.010  0.00  0.00    +0.000 A 
ATOM      7  C   UNL     1       1.170   2.089   0.002  0.00  0.00    +0.002 A 
ATOM      8  C   UNL     1       2.377   1.419  -0.013  0.00  0.00    +0.028 A 
ATOM      9  C   UNL     1       2.400   0.031  -0.021  0.00  0.00    +0.067 A 
ATOM     10  C   UNL     1       1.207  -0.680  -0.013  0.00  0.00    +0.028 A 
ATOM     11  C   UNL     1       0.002  -0.004   0.002  0.00  0.00    +0.002 A 
ENDBRANCH   1   9
BRANCH   2  12
ATOM     12  N   UNL     1       2.997  -2.588   1.343  0.00  0.00    -0.270 N 
ATOM     13  C   UNL     1       3.397  -3.748   1.899  0.00  0.00    +0.224 C 
ATOM     14  O   UNL     1       4.535  -4.138   1.737  0.00  0.00    -0.275 OA
ATOM     15  H   UNL     1       2.087  -2.276   1.472  0.00  0.00    +0.156 HD
BRANCH  13  16
ATOM     16  C   UNL     1       2.432  -4.561   2.723  0.00  0.00    +0.107 C 
ATOM     17  C   UNL     1       1.969  -5.902   2.149  0.00  0.00    +0.047 C 
ATOM     18  C   UNL     1       2.947  -5.870   3.326  0.00  0.00    +0.182 C 
BRANCH  18  19
ATOM     19  N   UNL     1       2.433  -6.255   4.643  0.00  0.00    +0.026 N 
ATOM     20  O   UNL     1       1.248  -6.432   4.801  0.00  0.00    -0.131 OA
ATOM     21  O   UNL     1       3.195  -6.397   5.571  0.00  0.00    -0.131 OA
ENDBRANCH  18  19
ENDBRANCH  13  16
ENDBRANCH   2  12
BRANCH   4  22
ATOM     22  C   UNL     1       7.134  -1.075  -1.002  0.00  0.00    +0.040 C 
ATOM     23  C   UNL     1       7.951  -2.368  -0.976  0.00  0.00    +0.010 C 
ATOM     24  C   UNL     1       7.434  -1.817  -2.306  0.00  0.00    +0.010 C 
ENDBRANCH   4  22
TORSDOF 5
