REMARK  Name = ZINC22215045
REMARK  3 active torsions:
REMARK  status: ('A' for Active; 'I' for Inactive)
REMARK    1  A    between atoms: C_1  and  C_2
REMARK    2  A    between atoms: C_6  and  N_16
REMARK    3  A    between atoms: C_7  and  C_8
REMARK                            x       y       z     vdW  Elec       q    Type
REMARK                         _______ _______ _______ _____ _____    ______ ____
ROOT
ATOM      1  C   UNL     1      -1.250   1.895   2.534  0.00  0.00    +0.044 C 
ATOM      2  C   UNL     1      -1.909   2.268   1.231  0.00  0.00    -0.037 A 
ATOM      3  C   UNL     1      -3.111   2.941   1.233  0.00  0.00    +0.004 A 
ATOM      4  C   UNL     1      -3.722   3.287   0.039  0.00  0.00    +0.002 A 
ATOM      5  C   UNL     1      -3.135   2.961  -1.167  0.00  0.00    +0.023 A 
ATOM      6  C   UNL     1      -1.920   2.288  -1.190  0.00  0.00    +0.037 A 
ATOM      7  C   UNL     1      -1.301   1.931   0.019  0.00  0.00    +0.061 A 
ENDROOT
BRANCH   7   8
ATOM      8  C   UNL     1      -0.014   1.212   0.009  0.00  0.00    +0.252 C 
ATOM      9  O   UNL     1       0.002  -0.004   0.002  0.00  0.00    -0.270 OA
ATOM     10  N   UNL     1       1.143   1.902   0.001  0.00  0.00    -0.261 N 
ATOM     11  C   UNL     1       2.356   1.224  -0.014  0.00  0.00    +0.165 A 
ATOM     12  N   UNL     1       2.578  -0.076  -0.017  0.00  0.00    -0.233 NA
ATOM     13  C   UNL     1       3.805  -0.560  -0.036  0.00  0.00    +0.120 A 
ATOM     14  C   UNL     1       4.843   0.312  -0.041  0.00  0.00    +0.068 A 
ATOM     15  S   UNL     1       3.967   1.870  -0.026  0.00  0.00    -0.061 S 
ATOM     16  H   UNL     1       1.129   3.002   0.008  0.00  0.00    +0.157 HD
ENDBRANCH   7   8
BRANCH   6  17
ATOM     17  N   UNL     1      -1.324   1.965  -2.402  0.00  0.00    -0.357 N 
ATOM     18  H   UNL     1      -0.362   1.431  -2.417  0.00  0.00    +0.142 HD
ATOM     19  H   UNL     1      -1.814   2.242  -3.347  0.00  0.00    +0.142 HD
ENDBRANCH   6  17
TORSDOF 2
