REMARK  Name = ZINC12974846
REMARK  8 active torsions:
REMARK  status: ('A' for Active; 'I' for Inactive)
REMARK    1  A    between atoms: C_1  and  C_2
REMARK    2  A    between atoms: C_2  and  C_4
REMARK    3  A    between atoms: C_2  and  N_13
REMARK    4  A    between atoms: C_14  and  C_16
REMARK    5  A    between atoms: C_16  and  O_17
REMARK    6  A    between atoms: O_17  and  N_18
REMARK    7  A    between atoms: C_19  and  C_20
REMARK    8  A    between atoms: C_24  and  N_26
REMARK                            x       y       z     vdW  Elec       q    Type
REMARK                         _______ _______ _______ _____ _____    ______ ____
ROOT
ATOM      1  N   UNL     1       4.017   1.973  -0.913  0.00  0.00    -0.303 N 
ATOM      2  C   UNL     1       5.238   1.962  -1.485  0.00  0.00    +0.254 C 
ATOM      3  O   UNL     1       6.002   1.046  -1.266  0.00  0.00    -0.272 OA
ATOM      4  H   UNL     1       3.407   2.706  -1.089  0.00  0.00    +0.149 HD
ENDROOT
BRANCH   1   6
ATOM      5  C   UNL     1       4.118   1.157   1.390  0.00  0.00    +0.036 C 
ATOM      6  C   UNL     1       3.613   0.879  -0.028  0.00  0.00    +0.136 C 
BRANCH   6   7
ATOM      7  C   UNL     1       2.110   0.773  -0.014  0.00  0.00    +0.126 A 
ATOM      8  C   UNL     1       1.422  -0.377  -0.013  0.00  0.00    +0.055 A 
ATOM      9  C   UNL     1       0.002  -0.004   0.002  0.00  0.00    +0.020 A 
ATOM     10  C   UNL     1      -1.194  -0.720   0.010  0.00  0.00    +0.011 A 
ATOM     11  C   UNL     1      -2.385  -0.050   0.025  0.00  0.00    +0.001 A 
ATOM     12  C   UNL     1      -2.411   1.337   0.034  0.00  0.00    +0.004 A 
ATOM     13  C   UNL     1      -1.238   2.062   0.030  0.00  0.00    +0.047 A 
ATOM     14  C   UNL     1      -0.017   1.401   0.010  0.00  0.00    +0.135 A 
ATOM     15  O   UNL     1       1.265   1.819  -0.000  0.00  0.00    -0.458 OA
ENDBRANCH   6   7
ENDBRANCH   1   6
BRANCH   2  16
ATOM     16  C   UNL     1       5.654   3.088  -2.396  0.00  0.00    +0.358 C 
BRANCH  16  17
ATOM     17  O   UNL     1       6.980   2.849  -2.873  0.00  0.00    -0.384 OA
BRANCH  17  18
ATOM     18  N   UNL     1       7.468   3.855  -3.743  0.00  0.00    -0.092 NA
ATOM     19  C   UNL     1       8.657   3.755  -4.243  0.00  0.00    +0.161 C 
BRANCH  19  20
ATOM     20  C   UNL     1       9.166   4.803  -5.149  0.00  0.00    -0.002 A 
ATOM     21  C   UNL     1       8.368   5.903  -5.468  0.00  0.00    +0.009 A 
ATOM     22  C   UNL     1       8.851   6.879  -6.315  0.00  0.00    +0.003 A 
ATOM     23  C   UNL     1      10.123   6.770  -6.848  0.00  0.00    +0.033 A 
ATOM     24  C   UNL     1      10.919   5.683  -6.536  0.00  0.00    +0.127 A 
ATOM     25  C   UNL     1      10.451   4.702  -5.686  0.00  0.00    +0.042 A 
BRANCH  24  26
ATOM     26  N   UNL     1      12.279   5.575  -7.111  0.00  0.00    +0.056 N 
ATOM     27  O   UNL     1      12.695   6.442  -7.857  0.00  0.00    -0.126 OA
ATOM     28  O   UNL     1      12.982   4.618  -6.836  0.00  0.00    -0.126 OA
ENDBRANCH  24  26
ENDBRANCH  19  20
ENDBRANCH  17  18
ENDBRANCH  16  17
ENDBRANCH   2  16
TORSDOF 7
