REMARK  Name = ZINC04716253
REMARK  5 active torsions:
REMARK  status: ('A' for Active; 'I' for Inactive)
REMARK    1  A    between atoms: C_4  and  O_26
REMARK    2  A    between atoms: C_5  and  C_7
REMARK    3  A    between atoms: C_10  and  C_17
REMARK    4  A    between atoms: C_21  and  N_23
REMARK    5  A    between atoms: O_26  and  C_27
REMARK                            x       y       z     vdW  Elec       q    Type
REMARK                         _______ _______ _______ _____ _____    ______ ____
ROOT
ATOM      1  C   UNL     1       1.227  -2.187  -0.022  0.00  0.00    +0.150 C 
ATOM      2  C   UNL     1       0.484  -2.708  -1.258  0.00  0.00    +0.088 C 
ATOM      3  C   UNL     1      -1.004  -2.615  -1.074  0.00  0.00    +0.055 C 
ATOM      4  N   UNL     1      -1.581  -2.777   0.086  0.00  0.00    -0.215 NA
ATOM      5  C   UNL     1      -0.800  -2.966   1.184  0.00  0.00    +0.249 A 
ATOM      6  N   UNL     1       0.542  -2.697   1.166  0.00  0.00    -0.222 N 
ATOM      7  N   UNL     1       1.028  -3.000   2.433  0.00  0.00    -0.156 NA
ATOM      8  C   UNL     1       0.002  -3.405   3.145  0.00  0.00    +0.247 A 
ATOM      9  N   UNL     1      -1.101  -3.377   2.391  0.00  0.00    -0.198 NA
ENDROOT
BRANCH   1  14
ATOM     10  C   UNL     1      -0.017   1.378   0.010  0.00  0.00    +0.001 A 
ATOM     11  C   UNL     1       1.170   2.088   0.002  0.00  0.00    +0.004 A 
ATOM     12  C   UNL     1       2.377   1.417  -0.013  0.00  0.00    +0.046 A 
ATOM     13  C   UNL     1       2.399   0.030  -0.021  0.00  0.00    +0.132 A 
ATOM     14  C   UNL     1       1.207  -0.680  -0.013  0.00  0.00    +0.019 A 
ATOM     15  C   UNL     1       0.002  -0.004   0.002  0.00  0.00    +0.009 A 
BRANCH  13  16
ATOM     16  O   UNL     1       3.586  -0.632  -0.037  0.00  0.00    -0.434 OA
BRANCH  16  17
ATOM     17  C   UNL     1       4.772   0.164  -0.045  0.00  0.00    +0.541 C 
ATOM     18  F   UNL     1       4.781   0.977  -1.183  0.00  0.00    -0.166 F 
ATOM     19  F   UNL     1       4.804   0.965   1.101  0.00  0.00    -0.166 F 
ENDBRANCH  16  17
ENDBRANCH  13  16
ENDBRANCH   1  14
BRANCH   3  20
ATOM     20  C   UNL     1      -1.845  -2.329  -2.247  0.00  0.00    -0.001 A 
ATOM     21  C   UNL     1      -1.260  -2.154  -3.505  0.00  0.00    +0.010 A 
ATOM     22  C   UNL     1      -2.054  -1.887  -4.600  0.00  0.00    +0.003 A 
ATOM     23  C   UNL     1      -3.428  -1.790  -4.455  0.00  0.00    +0.033 A 
ATOM     24  C   UNL     1      -4.014  -1.961  -3.214  0.00  0.00    +0.127 A 
ATOM     25  C   UNL     1      -3.233  -2.236  -2.110  0.00  0.00    +0.042 A 
BRANCH  24  26
ATOM     26  N   UNL     1      -5.484  -1.855  -3.070  0.00  0.00    +0.056 N 
ATOM     27  O   UNL     1      -6.170  -1.620  -4.037  0.00  0.00    -0.126 OA
ATOM     28  O   UNL     1      -5.997  -2.004  -1.986  0.00  0.00    -0.126 OA
ENDBRANCH  24  26
ENDBRANCH   3  20
TORSDOF 5
