REMARK  Name = ZINC05056809
REMARK  7 active torsions:
REMARK  status: ('A' for Active; 'I' for Inactive)
REMARK    1  A    between atoms: C_1  and  C_2
REMARK    2  A    between atoms: C_2  and  C_3
REMARK    3  A    between atoms: C_2  and  C_4
REMARK    4  A    between atoms: C_2  and  N_5
REMARK    5  A    between atoms: C_6  and  C_8
REMARK    6  A    between atoms: C_8  and  N_9
REMARK    7  A    between atoms: N_18  and  C_19
REMARK                            x       y       z     vdW  Elec       q    Type
REMARK                         _______ _______ _______ _____ _____    ______ ____
ROOT
ATOM      1  N   UNL     1      -1.212   1.708   0.017  0.00  0.00    -0.288 N 
ATOM      2  C   UNL     1      -0.013   1.076   0.008  0.00  0.00    +0.205 A 
ATOM      3  N   UNL     1       1.122   1.714   0.001  0.00  0.00    -0.216 NA
ATOM      4  C   UNL     1       1.181   3.053   0.007  0.00  0.00    +0.190 A 
ATOM      5  C   UNL     1      -0.006   3.796   0.022  0.00  0.00    +0.196 A 
ATOM      6  C   UNL     1      -1.273   3.060   0.030  0.00  0.00    +0.284 A 
ATOM      7  O   UNL     1      -2.342   3.643   0.043  0.00  0.00    -0.265 OA
ATOM      8  N   UNL     1       0.317   5.096   0.025  0.00  0.00    -0.122 NA
ATOM      9  N   UNL     1       1.597   5.233   0.013  0.00  0.00    -0.058 NA
ATOM     10  N   UNL     1       2.197   3.964   0.001  0.00  0.00    -0.194 N 
ENDROOT
BRANCH  10  11
ATOM     11  C   UNL     1       3.571   3.687  -0.013  0.00  0.00    +0.069 A 
ATOM     12  C   UNL     1       4.065   2.585   0.670  0.00  0.00    +0.029 A 
ATOM     13  C   UNL     1       5.419   2.311   0.650  0.00  0.00    +0.017 A 
ATOM     14  C   UNL     1       6.283   3.141  -0.042  0.00  0.00    +0.018 A 
ATOM     15  C   UNL     1       5.793   4.243  -0.720  0.00  0.00    +0.017 A 
ATOM     16  C   UNL     1       4.440   4.518  -0.707  0.00  0.00    +0.029 A 
ATOM     17 BR   UNL     1       8.137   2.768  -0.061  0.00  0.00    -0.050 Br
ENDBRANCH  10  11
BRANCH   1  18
ATOM     18  C   UNL     1      -2.450   0.923   0.019  0.00  0.00    +0.222 C 
BRANCH  18  20
ATOM     19  N   UNL     1      -3.984  -0.064   1.689  0.00  0.00    -0.309 N 
ATOM     20  C   UNL     1      -2.867   0.647   1.441  0.00  0.00    +0.233 C 
ATOM     21  O   UNL     1      -2.196   1.065   2.362  0.00  0.00    -0.274 OA
ATOM     22  H   UNL     1      -4.520  -0.398   0.953  0.00  0.00    +0.149 HD
BRANCH  19  24
ATOM     23  C   UNL     1      -4.625   0.992   3.800  0.00  0.00    +0.031 C 
ATOM     24  C   UNL     1      -4.390  -0.333   3.071  0.00  0.00    +0.026 C 
ATOM     25  C   UNL     1      -5.682  -1.152   3.074  0.00  0.00    +0.031 C 
ATOM     26  C   UNL     1      -3.286  -1.118   3.783  0.00  0.00    +0.031 C 
ENDBRANCH  19  24
ENDBRANCH  18  20
ENDBRANCH   1  18
TORSDOF 4
