REMARK  Name = ZINC11027302
REMARK  3 active torsions:
REMARK  status: ('A' for Active; 'I' for Inactive)
REMARK    1  A    between atoms: C_3  and  N_10
REMARK    2  A    between atoms: C_5  and  N_7
REMARK    3  A    between atoms: N_13  and  C_14
REMARK                            x       y       z     vdW  Elec       q    Type
REMARK                         _______ _______ _______ _____ _____    ______ ____
ROOT
ATOM      1  N   UNL     1       2.402   1.106  -0.015  0.00  0.00    -0.269 N 
ATOM      2  C   UNL     1       2.426  -0.238   0.078  0.00  0.00    +0.304 C 
ATOM      3  O   UNL     1       1.385  -0.866   0.085  0.00  0.00    -0.252 OA
ATOM      4  N   UNL     1       3.604  -0.887   0.165  0.00  0.00    -0.293 N 
ATOM      5  H   UNL     1       3.232   1.601  -0.099  0.00  0.00    +0.156 HD
ATOM      6  H   UNL     1       4.435  -0.386   0.159  0.00  0.00    +0.151 HD
ENDROOT
BRANCH   4   7
ATOM      7  C   UNL     1       3.631  -2.348   0.267  0.00  0.00    +0.115 C 
ATOM      8  C   UNL     1       4.940  -2.791   0.962  0.00  0.00    +0.189 C 
ATOM      9  S   UNL     1       5.285  -4.417   0.175  0.00  0.00    -0.028 S 
ATOM     10  O   UNL     1       6.513  -4.335  -0.536  0.00  0.00    -0.174 OA
ATOM     11  O   UNL     1       5.102  -5.446   1.138  0.00  0.00    -0.174 OA
ATOM     12  C   UNL     1       3.895  -4.473  -1.033  0.00  0.00    +0.187 C 
ATOM     13  C   UNL     1       3.552  -2.959  -1.142  0.00  0.00    +0.123 C 
ATOM     14 CL   UNL     1       1.886  -2.759  -1.801  0.00  0.00    -0.118 Cl
ENDBRANCH   4   7
BRANCH   1  17
ATOM     15  C   UNL     1      -0.185   3.628  -0.699  0.00  0.00    +0.004 A 
ATOM     16  C   UNL     1       1.021   2.955  -0.728  0.00  0.00    +0.023 A 
ATOM     17  C   UNL     1       1.180   1.788   0.007  0.00  0.00    +0.037 A 
ATOM     18  C   UNL     1       0.124   1.298   0.765  0.00  0.00    +0.056 A 
ATOM     19  C   UNL     1      -1.080   1.973   0.786  0.00  0.00    +0.128 A 
ATOM     20  C   UNL     1      -1.236   3.135   0.053  0.00  0.00    +0.033 A 
BRANCH  19  21
ATOM     21  N   UNL     1      -2.206   1.452   1.593  0.00  0.00    +0.056 N 
ATOM     22  O   UNL     1      -2.070   0.429   2.239  0.00  0.00    -0.126 OA
ATOM     23  O   UNL     1      -3.269   2.047   1.612  0.00  0.00    -0.126 OA
ENDBRANCH  19  21
ENDBRANCH   1  17
TORSDOF 3
