REMARK  Name = ZINC04221961
REMARK  12 active torsions:
REMARK  status: ('A' for Active; 'I' for Inactive)
REMARK    1  A    between atoms: C_1  and  C_2
REMARK    2  A    between atoms: C_7  and  C_9
REMARK    3  A    between atoms: C_9  and  S_10
REMARK    4  A    between atoms: S_10  and  C_13
REMARK    5  A    between atoms: C_21  and  C_41
REMARK    6  A    between atoms: C_24  and  O_40
REMARK    7  A    between atoms: C_26  and  C_30
REMARK    8  A    between atoms: C_30  and  C_32
REMARK    9  A    between atoms: C_30  and  C_33
REMARK   10  A    between atoms: N_35  and  C_36
REMARK   11  A    between atoms: N_35  and  C_37
REMARK   12  A    between atoms: C_37  and  C_38
REMARK                            x       y       z     vdW  Elec       q    Type
REMARK                         _______ _______ _______ _____ _____    ______ ____
ROOT
ATOM      1  C   UNL     1       2.437  -3.477   5.121  0.00  0.00    +0.014 C 
ATOM      2  C   UNL     1       1.061  -3.756   4.514  0.00  0.00    +0.042 C 
ATOM      3  C   UNL     1      -0.007  -3.047   5.332  0.00  0.00    +0.055 A 
ATOM      4  C   UNL     1      -1.183  -3.673   5.606  0.00  0.00    +0.014 A 
ATOM      5  S   UNL     1      -2.055  -2.456   6.556  0.00  0.00    -0.075 S 
ATOM      6  C   UNL     1      -0.822  -1.231   6.512  0.00  0.00    +0.100 A 
ATOM      7  N   UNL     1       0.122  -1.816   5.816  0.00  0.00    -0.247 NA
ATOM      8  C   UNL     1      -1.600  -5.042   5.202  0.00  0.00    +0.051 C 
ATOM      9  C   UNL     1      -0.649  -5.553   4.102  0.00  0.00    -0.022 C 
ATOM     10  C   UNL     1       0.795  -5.267   4.522  0.00  0.00    +0.033 C 
ATOM     11  C   UNL     1       1.770  -5.910   3.529  0.00  0.00    +0.123 C 
ATOM     12  C   UNL     1       1.530  -7.416   3.448  0.00  0.00    +0.029 C 
ATOM     13  C   UNL     1       0.099  -7.661   2.961  0.00  0.00    +0.007 C 
ATOM     14  C   UNL     1      -0.874  -7.062   3.975  0.00  0.00    +0.008 C 
ATOM     15  C   UNL     1      -0.966  -4.862   2.774  0.00  0.00    +0.012 C 
ENDROOT
BRANCH  12  16
ATOM     16  C   UNL     1       1.715  -8.040   4.832  0.00  0.00    +0.078 C 
ATOM     17  C   UNL     1       3.181  -7.921   5.254  0.00  0.00    +0.017 C 
BRANCH  16  18
ATOM     18  C   UNL     1       1.322  -9.494   4.784  0.00  0.00    +0.219 C 
ATOM     19  O   UNL     1       1.375 -10.102   3.736  0.00  0.00    -0.275 OA
ATOM     20  N   UNL     1       0.912 -10.119   5.905  0.00  0.00    -0.301 N 
ATOM     21  C   UNL     1       0.930  -9.410   7.187  0.00  0.00    +0.132 C 
BRANCH  20  22
ATOM     22  C   UNL     1       0.450 -11.508   5.843  0.00  0.00    +0.134 C 
BRANCH  22  23
ATOM     23  C   UNL     1       1.617 -12.437   6.054  0.00  0.00    -0.016 C 
ATOM     24  C   UNL     1       1.572 -13.342   6.999  0.00  0.00    +0.005 C 
ENDBRANCH  22  23
ENDBRANCH  20  22
ENDBRANCH  16  18
ENDBRANCH  12  16
BRANCH  11  25
ATOM     25  O   UNL     1       3.109  -5.667   3.963  0.00  0.00    -0.391 OA
ATOM     26  H   UNL     1       3.785  -6.033   3.377  0.00  0.00    +0.210 HD
ENDBRANCH  11  25
BRANCH   6  27
ATOM     27  C   UNL     1      -0.833   0.146   7.124  0.00  0.00    +0.234 C 
BRANCH  27  28
ATOM     28  S   UNL     1      -1.508   1.333   5.929  0.00  0.00    +0.003 S 
ATOM     29  O   UNL     1      -2.888   1.076   5.710  0.00  0.00    -0.169 OA
ATOM     30  O   UNL     1      -0.616   1.484   4.833  0.00  0.00    -0.169 OA
BRANCH  28  31
ATOM     31  C   UNL     1      -1.466   2.886   6.760  0.00  0.00    +0.089 A 
ATOM     32  C   UNL     1      -2.553   3.300   7.507  0.00  0.00    +0.028 A 
ATOM     33  C   UNL     1      -2.518   4.515   8.163  0.00  0.00    +0.022 A 
ATOM     34  C   UNL     1      -1.400   5.323   8.064  0.00  0.00    +0.041 A 
ATOM     35  C   UNL     1      -0.314   4.911   7.312  0.00  0.00    +0.022 A 
ATOM     36  C   UNL     1      -0.348   3.693   6.660  0.00  0.00    +0.028 A 
ATOM     37 CL   UNL     1      -1.358   6.854   8.883  0.00  0.00    -0.084 Cl
ENDBRANCH  28  31
ENDBRANCH  27  28
ENDBRANCH   6  27
TORSDOF 8
