REMARK  Name = ZINC13397518
REMARK  3 active torsions:
REMARK  status: ('A' for Active; 'I' for Inactive)
REMARK    1  A    between atoms: C_1  and  O_2
REMARK    2  A    between atoms: O_2  and  C_3
REMARK    3  A    between atoms: C_7  and  O_9
REMARK                            x       y       z     vdW  Elec       q    Type
REMARK                         _______ _______ _______ _____ _____    ______ ____
ROOT
ATOM      1  C   UNL     1      -1.025  -2.150  -0.280  0.00  0.00    +0.124 A 
ATOM      2  C   UNL     1      -1.135  -0.772  -0.216  0.00  0.00    +0.061 A 
ATOM      3  C   UNL     1       0.002  -0.004   0.002  0.00  0.00    +0.072 A 
ATOM      4  C   UNL     1       1.247  -0.631   0.254  0.00  0.00    +0.120 A 
ATOM      5  C   UNL     1       1.351  -2.020   0.114  0.00  0.00    +0.146 A 
ATOM      6  C   UNL     1       0.216  -2.766  -0.137  0.00  0.00    +0.093 A 
ATOM      7  N   UNL     1       2.275   0.129   0.696  0.00  0.00    -0.228 NA
ATOM      8  C   UNL     1       2.213   1.440   0.703  0.00  0.00    +0.138 A 
ATOM      9  N   UNL     1       1.221   2.043   0.001  0.00  0.00    -0.262 N 
ATOM     10  C   UNL     1      -0.018   1.468   0.010  0.00  0.00    +0.267 A 
ATOM     11  O   UNL     1      -1.048   2.116   0.019  0.00  0.00    -0.267 OA
ATOM     12  C   UNL     1       1.397   3.025  -0.973  0.00  0.00    +0.063 A 
ATOM     13  C   UNL     1       0.472   2.979  -2.026  0.00  0.00    +0.027 A 
ATOM     14  C   UNL     1       0.513   3.896  -3.050  0.00  0.00    +0.002 A 
ATOM     15  C   UNL     1       1.482   4.886  -3.052  0.00  0.00    +0.001 A 
ATOM     16  C   UNL     1       2.400   4.946  -2.034  0.00  0.00    +0.015 A 
ATOM     17  C   UNL     1       2.372   4.015  -0.975  0.00  0.00    +0.061 A 
ATOM     18  C   UNL     1       3.399   4.168   0.048  0.00  0.00    +0.249 C 
ATOM     19  O   UNL     1       4.231   5.027  -0.172  0.00  0.00    -0.270 OA
ATOM     20  N   UNL     1       3.552   3.506   1.177  0.00  0.00    -0.287 N 
ATOM     21  C   UNL     1       3.170   2.163   1.585  0.00  0.00    +0.143 C 
ATOM     22  C   UNL     1       2.599   2.333   3.010  0.00  0.00    +0.032 C 
ATOM     23  C   UNL     1       3.541   3.406   3.610  0.00  0.00    +0.021 C 
ATOM     24  C   UNL     1       4.168   4.110   2.392  0.00  0.00    +0.109 C 
ENDROOT
BRANCH   1  26
ATOM     25  C   UNL     1      -1.952  -4.324  -0.540  0.00  0.00    +0.277 C 
ATOM     26  O   UNL     1      -2.135  -2.908  -0.484  0.00  0.00    -0.495 OA
ENDBRANCH   1  26
BRANCH   5  27
ATOM     27  O   UNL     1       2.560  -2.630   0.224  0.00  0.00    -0.504 OA
ATOM     28  H   UNL     1       3.038  -2.709  -0.613  0.00  0.00    +0.292 HD
ENDBRANCH   5  27
TORSDOF 2
