REMARK  Name = ZINC45145104
REMARK  3 active torsions:
REMARK  status: ('A' for Active; 'I' for Inactive)
REMARK    1  A    between atoms: C_4  and  N_7
REMARK    2  A    between atoms: C_16  and  C_18
REMARK    3  A    between atoms: C_18  and  N_19
REMARK                            x       y       z     vdW  Elec       q    Type
REMARK                         _______ _______ _______ _____ _____    ______ ____
ROOT
ATOM      1  N   UNL     1       2.835  -0.442  -2.474  0.00  0.00    -0.296 N 
ATOM      2  C   UNL     1       3.424  -1.655  -2.483  0.00  0.00    +0.303 C 
ATOM      3  O   UNL     1       3.466  -2.318  -1.465  0.00  0.00    -0.253 OA
ATOM      4  N   UNL     1       3.967  -2.131  -3.621  0.00  0.00    -0.283 N 
ATOM      5  C   UNL     1       4.032  -1.294  -4.827  0.00  0.00    +0.128 C 
ATOM      6  C   UNL     1       5.489  -1.227  -5.300  0.00  0.00    +0.127 C 
ATOM      7  N   UNL     1       6.028  -2.594  -5.357  0.00  0.00    -0.297 N 
ATOM      8  C   UNL     1       5.963  -3.431  -4.150  0.00  0.00    +0.127 C 
ATOM      9  C   UNL     1       4.511  -3.496  -3.676  0.00  0.00    +0.128 C 
ATOM     10  C   UNL     1       6.570  -3.071  -6.494  0.00  0.00    +0.233 C 
ATOM     11  O   UNL     1       6.618  -2.370  -7.484  0.00  0.00    -0.274 OA
ATOM     12  H   UNL     1       2.865   0.117  -3.266  0.00  0.00    +0.151 HD
ENDROOT
BRANCH   1  16
ATOM     13  C   UNL     1      -0.025   1.518   0.010  0.00  0.00    +0.000 C 
ATOM     14  C   UNL     1       1.408   2.053  -0.004  0.00  0.00    +0.002 C 
ATOM     15  C   UNL     1       2.124   1.560  -1.262  0.00  0.00    +0.022 C 
ATOM     16  C   UNL     1       2.150   0.030  -1.268  0.00  0.00    +0.074 C 
ATOM     17  C   UNL     1       0.716  -0.504  -1.255  0.00  0.00    +0.022 C 
ATOM     18  C   UNL     1       0.000  -0.011   0.004  0.00  0.00    +0.002 C 
ENDBRANCH   1  16
BRANCH  10  19
ATOM     19  C   UNL     1       7.119  -4.474  -6.537  0.00  0.00    +0.203 C 
BRANCH  19  20
ATOM     20  N   UNL     1       7.648  -4.750  -7.875  0.00  0.00    -0.293 N 
ATOM     21  C   UNL     1       6.861  -5.314  -8.977  0.00  0.00    +0.109 C 
ATOM     22  C   UNL     1       7.675  -5.022 -10.257  0.00  0.00    +0.028 C 
ATOM     23  C   UNL     1       9.113  -4.912  -9.698  0.00  0.00    +0.097 C 
ATOM     24  C   UNL     1       8.917  -4.514  -8.252  0.00  0.00    +0.216 C 
ATOM     25  O   UNL     1       9.780  -4.052  -7.536  0.00  0.00    -0.276 OA
ENDBRANCH  19  20
ENDBRANCH  10  19
TORSDOF 3
