REMARK  Name = ZINC13205095
REMARK  11 active torsions:
REMARK  status: ('A' for Active; 'I' for Inactive)
REMARK    1  A    between atoms: C_1  and  C_2
REMARK    2  A    between atoms: C_5  and  C_8
REMARK    3  A    between atoms: C_11  and  S_16
REMARK    4  A    between atoms: N_12  and  C_13
REMARK    5  A    between atoms: C_13  and  C_14
REMARK    6  A    between atoms: S_16  and  C_17
REMARK    7  A    between atoms: C_17  and  C_19
REMARK    8  A    between atoms: C_17  and  C_20
REMARK    9  A    between atoms: N_22  and  C_23
REMARK   10  A    between atoms: C_27  and  C_29
REMARK   11  A    between atoms: C_29  and  C_31
REMARK                            x       y       z     vdW  Elec       q    Type
REMARK                         _______ _______ _______ _____ _____    ______ ____
ROOT
ATOM      1  C   UNL     1      -3.025   0.340   1.123  0.00  0.00    +0.165 A 
ATOM      2  N   UNL     1      -3.874  -0.544   0.652  0.00  0.00    -0.128 NA
ATOM      3  N   UNL     1      -3.980  -0.416  -0.622  0.00  0.00    -0.122 NA
ATOM      4  C   UNL     1      -3.209   0.562  -1.043  0.00  0.00    +0.193 A 
ATOM      5  N   UNL     1      -2.571   1.073   0.051  0.00  0.00    -0.291 N 
ENDROOT
BRANCH   1  10
ATOM      6  C   UNL     1      -1.494   1.021   6.628  0.00  0.00    +0.044 C 
ATOM      7  C   UNL     1      -1.895   0.843   5.186  0.00  0.00    -0.050 A 
ATOM      8  C   UNL     1      -3.055   0.157   4.874  0.00  0.00    +0.004 A 
ATOM      9  C   UNL     1      -3.428  -0.010   3.556  0.00  0.00    +0.012 A 
ATOM     10  C   UNL     1      -2.632   0.515   2.537  0.00  0.00    +0.019 A 
ATOM     11  C   UNL     1      -1.460   1.201   2.859  0.00  0.00    +0.012 A 
ATOM     12  C   UNL     1      -1.101   1.366   4.181  0.00  0.00    +0.004 A 
ENDBRANCH   1  10
BRANCH   5  13
ATOM     13  C   UNL     1      -1.608   2.177   0.078  0.00  0.00    +0.250 C 
BRANCH  13  14
ATOM     14  C   UNL     1      -0.216   1.634  -0.120  0.00  0.00    +0.375 C 
ATOM     15  O   UNL     1      -0.046   0.447  -0.268  0.00  0.00    -0.244 OA
ATOM     16  O   UNL     1       0.834   2.470  -0.137  0.00  0.00    -0.244 OA
ENDBRANCH  13  14
ENDBRANCH   5  13
BRANCH   4  17
ATOM     17  S   UNL     1      -3.031   1.109  -2.708  0.00  0.00    -0.073 S 
BRANCH  17  18
ATOM     18  C   UNL     1      -4.167  -0.030  -3.537  0.00  0.00    +0.137 C 
ATOM     19  C   UNL     1      -3.639  -1.461  -3.409  0.00  0.00    +0.029 C 
BRANCH  18  20
ATOM     20  C   UNL     1      -4.273   0.337  -4.995  0.00  0.00    +0.230 C 
ATOM     21  O   UNL     1      -3.366   0.932  -5.537  0.00  0.00    -0.274 OA
ATOM     22  N   UNL     1      -5.375   0.005  -5.695  0.00  0.00    -0.285 N 
ATOM     23  H   UNL     1      -6.128  -0.410  -5.246  0.00  0.00    +0.155 HD
BRANCH  22  24
ATOM     24  C   UNL     1      -5.434   0.259  -7.070  0.00  0.00    +0.034 A 
ATOM     25  C   UNL     1      -6.094  -0.628  -7.913  0.00  0.00    +0.023 A 
ATOM     26  C   UNL     1      -6.155  -0.383  -9.273  0.00  0.00    +0.002 A 
ATOM     27  C   UNL     1      -5.562   0.744  -9.803  0.00  0.00    +0.011 A 
ATOM     28  C   UNL     1      -4.895   1.643  -8.965  0.00  0.00    +0.019 A 
ATOM     29  C   UNL     1      -4.838   1.396  -7.590  0.00  0.00    +0.034 A 
BRANCH  28  30
ATOM     30  C   UNL     1      -4.260   2.846  -9.527  0.00  0.00    +0.160 C 
ATOM     31  O   UNL     1      -3.683   3.623  -8.798  0.00  0.00    -0.292 OA
ATOM     32  C   UNL     1      -4.329   3.111 -11.009  0.00  0.00    +0.091 C 
ENDBRANCH  28  30
ENDBRANCH  22  24
ENDBRANCH  18  20
ENDBRANCH  17  18
ENDBRANCH   4  17
TORSDOF 8
