REMARK  Name = ZINC34958577
REMARK  3 active torsions:
REMARK  status: ('A' for Active; 'I' for Inactive)
REMARK    1  A    between atoms: C_3  and  N_9
REMARK    2  A    between atoms: C_4  and  N_8
REMARK    3  A    between atoms: C_10  and  C_12
REMARK                            x       y       z     vdW  Elec       q    Type
REMARK                         _______ _______ _______ _____ _____    ______ ____
ROOT
ATOM      1  N   UNL     1       3.583   2.137  -0.021  0.00  0.00    -0.280 N 
ATOM      2  C   UNL     1       3.564   3.482  -0.116  0.00  0.00    +0.250 C 
ATOM      3  O   UNL     1       2.504   4.077  -0.103  0.00  0.00    -0.270 OA
ATOM      4  H   UNL     1       4.430   1.669   0.049  0.00  0.00    +0.155 HD
ENDROOT
BRANCH   1   7
ATOM      5  C   UNL     1       0.065   1.243  -0.620  0.00  0.00    +0.017 A 
ATOM      6  C   UNL     1       1.250   1.956  -0.618  0.00  0.00    +0.026 A 
ATOM      7  C   UNL     1       2.382   1.417  -0.024  0.00  0.00    +0.055 A 
ATOM      8  C   UNL     1       2.320   0.156   0.570  0.00  0.00    +0.047 A 
ATOM      9  C   UNL     1       1.128  -0.552   0.563  0.00  0.00    +0.039 A 
ATOM     10  C   UNL     1       0.004  -0.007  -0.032  0.00  0.00    +0.020 A 
ATOM     11 BR   UNL     1      -1.621  -0.974  -0.039  0.00  0.00    -0.050 Br
BRANCH   8  12
ATOM     12  N   UNL     1       3.458  -0.393   1.170  0.00  0.00    -0.357 N 
ATOM     13  H   UNL     1       4.292   0.104   1.173  0.00  0.00    +0.142 HD
ATOM     14  H   UNL     1       3.414  -1.270   1.582  0.00  0.00    +0.142 HD
ENDBRANCH   8  12
ENDBRANCH   1   7
BRANCH   2  15
ATOM     15  C   UNL     1       4.831   4.233  -0.236  0.00  0.00    +0.056 A 
ATOM     16  C   UNL     1       4.825   5.630  -0.329  0.00  0.00    +0.031 A 
ATOM     17  C   UNL     1       6.039   6.285  -0.440  0.00  0.00    +0.037 A 
ATOM     18  C   UNL     1       7.209   5.546  -0.455  0.00  0.00    +0.126 A 
ATOM     19  N   UNL     1       7.184   4.230  -0.365  0.00  0.00    -0.261 NA
ATOM     20  C   UNL     1       6.055   3.562  -0.252  0.00  0.00    +0.123 A 
ATOM     21 BR   UNL     1       6.099   8.171  -0.570  0.00  0.00    -0.049 Br
ENDBRANCH   2  15
TORSDOF 3
