REMARK  Name = ZINC00797198
REMARK  3 active torsions:
REMARK  status: ('A' for Active; 'I' for Inactive)
REMARK    1  A    between atoms: C_4  and  C_7
REMARK    2  A    between atoms: C_10  and  C_24
REMARK    3  A    between atoms: C_28  and  N_30
REMARK                            x       y       z     vdW  Elec       q    Type
REMARK                         _______ _______ _______ _____ _____    ______ ____
ROOT
ATOM      1  C   UNL     1      -4.221   7.184   0.501  0.00  0.00    +0.172 C 
ATOM      2  C   UNL     1      -3.465   6.022   1.168  0.00  0.00    +0.136 C 
ATOM      3  C   UNL     1      -2.552   5.500   0.046  0.00  0.00    +0.091 C 
ATOM      4  C   UNL     1      -3.207   6.040  -1.237  0.00  0.00    +0.202 C 
ATOM      5  O   UNL     1      -4.403   6.733  -0.862  0.00  0.00    -0.348 OA
ATOM      6  C   UNL     1      -3.514   4.913  -2.187  0.00  0.00    +0.204 C 
ATOM      7  O   UNL     1      -4.245   3.970  -1.973  0.00  0.00    -0.288 OA
ATOM      8  C   UNL     1      -2.758   5.173  -3.427  0.00  0.00    +0.031 A 
ATOM      9  C   UNL     1      -2.681   4.446  -4.617  0.00  0.00    +0.012 A 
ATOM     10  C   UNL     1      -1.889   4.897  -5.655  0.00  0.00    +0.001 A 
ATOM     11  C   UNL     1      -1.167   6.071  -5.526  0.00  0.00    +0.001 A 
ATOM     12  C   UNL     1      -1.229   6.806  -4.358  0.00  0.00    +0.012 A 
ATOM     13  C   UNL     1      -2.024   6.368  -3.296  0.00  0.00    +0.031 A 
ATOM     14  C   UNL     1      -2.260   6.957  -1.965  0.00  0.00    +0.204 C 
ATOM     15  O   UNL     1      -1.783   7.986  -1.537  0.00  0.00    -0.288 OA
ATOM     16  C   UNL     1      -2.672   6.487   2.354  0.00  0.00    +0.181 C 
ATOM     17  O   UNL     1      -1.812   7.341   2.359  0.00  0.00    -0.291 OA
ATOM     18  C   UNL     1      -3.142   5.703   3.514  0.00  0.00    +0.029 A 
ATOM     19  C   UNL     1      -2.746   5.731   4.852  0.00  0.00    +0.012 A 
ATOM     20  C   UNL     1      -3.341   4.885   5.769  0.00  0.00    +0.001 A 
ATOM     21  C   UNL     1      -4.333   4.006   5.370  0.00  0.00    +0.001 A 
ATOM     22  C   UNL     1      -4.741   3.963   4.050  0.00  0.00    +0.012 A 
ATOM     23  C   UNL     1      -4.152   4.808   3.108  0.00  0.00    +0.029 A 
ATOM     24  C   UNL     1      -4.401   4.960   1.660  0.00  0.00    +0.181 C 
ATOM     25  O   UNL     1      -5.208   4.343   0.997  0.00  0.00    -0.291 OA
ENDROOT
BRANCH   1  29
ATOM     26  C   UNL     1      -8.000   7.812   2.393  0.00  0.00    +0.000 A 
ATOM     27  C   UNL     1      -6.951   8.679   2.639  0.00  0.00    +0.000 A 
ATOM     28  C   UNL     1      -5.728   8.476   2.027  0.00  0.00    +0.006 A 
ATOM     29  C   UNL     1      -5.554   7.406   1.169  0.00  0.00    -0.017 A 
ATOM     30  C   UNL     1      -6.605   6.543   0.919  0.00  0.00    +0.006 A 
ATOM     31  C   UNL     1      -7.826   6.743   1.534  0.00  0.00    +0.000 A 
ENDBRANCH   1  29
BRANCH   3  32
ATOM     32  C   UNL     1      -2.531   3.994   0.037  0.00  0.00    -0.037 A 
ATOM     33  C   UNL     1      -2.802   3.291   1.196  0.00  0.00    +0.004 A 
ATOM     34  C   UNL     1      -2.783   1.909   1.188  0.00  0.00    +0.002 A 
ATOM     35  C   UNL     1      -2.493   1.229   0.020  0.00  0.00    +0.033 A 
ATOM     36  C   UNL     1      -2.222   1.931  -1.139  0.00  0.00    +0.126 A 
ATOM     37  C   UNL     1      -2.236   3.313  -1.130  0.00  0.00    +0.036 A 
BRANCH  36  38
ATOM     38  N   UNL     1      -1.911   1.203  -2.390  0.00  0.00    +0.056 N 
ATOM     39  O   UNL     1      -1.894  -0.015  -2.397  0.00  0.00    -0.126 OA
ATOM     40  O   UNL     1      -1.677   1.821  -3.413  0.00  0.00    -0.126 OA
ENDBRANCH  36  38
ENDBRANCH   3  32
TORSDOF 3
