REMARK  Name = ZINC67544516
REMARK  9 active torsions:
REMARK  status: ('A' for Active; 'I' for Inactive)
REMARK    1  A    between atoms: C_1  and  C_2
REMARK    2  A    between atoms: C_6  and  C_24
REMARK    3  A    between atoms: C_7  and  N_8
REMARK    4  A    between atoms: N_11  and  C_12
REMARK    5  A    between atoms: C_12  and  C_13
REMARK    6  A    between atoms: C_13  and  C_15
REMARK    7  A    between atoms: C_13  and  O_23
REMARK    8  A    between atoms: C_15  and  N_16
REMARK    9  A    between atoms: C_19  and  C_22
REMARK                            x       y       z     vdW  Elec       q    Type
REMARK                         _______ _______ _______ _____ _____    ______ ____
ROOT
ATOM      1  N   UNL     1      -0.186  -0.087   2.449  0.00  0.00    -0.269 N 
ATOM      2  C   UNL     1      -0.286  -0.772   3.606  0.00  0.00    +0.304 C 
ATOM      3  O   UNL     1      -0.282  -1.988   3.594  0.00  0.00    -0.253 OA
ATOM      4  N   UNL     1      -0.392  -0.110   4.774  0.00  0.00    -0.297 N 
ATOM      5  H   UNL     1      -0.246   0.881   2.453  0.00  0.00    +0.156 HD
ATOM      6  H   UNL     1      -0.396   0.860   4.784  0.00  0.00    +0.150 HD
ENDROOT
BRANCH   1  13
ATOM      7  C   UNL     1       1.998  -1.901   2.265  0.00  0.00    +0.046 C 
ATOM      8  C   UNL     1       1.058  -1.667   1.111  0.00  0.00    -0.028 A 
ATOM      9  C   UNL     1       1.240  -2.346  -0.078  0.00  0.00    +0.020 A 
ATOM     10  C   UNL     1       0.377  -2.131  -1.138  0.00  0.00    +0.018 A 
ATOM     11  C   UNL     1      -0.670  -1.236  -1.010  0.00  0.00    +0.020 A 
ATOM     12  C   UNL     1      -0.857  -0.554   0.176  0.00  0.00    -0.028 A 
ATOM     13  C   UNL     1       0.004  -0.772   1.244  0.00  0.00    +0.041 A 
ATOM     14  C   UNL     1      -1.997   0.422   0.314  0.00  0.00    +0.046 C 
ATOM     15 BR   UNL     1       0.629  -3.063  -2.764  0.00  0.00    -0.050 Br
ENDBRANCH   1  13
BRANCH   4  16
ATOM     16  C   UNL     1      -0.501  -0.855   6.031  0.00  0.00    +0.135 C 
BRANCH  16  17
ATOM     17  C   UNL     1      -0.608   0.128   7.199  0.00  0.00    +0.115 C 
BRANCH  17  18
ATOM     18  O   UNL     1       0.558   0.954   7.234  0.00  0.00    -0.392 OA
ATOM     19  H   UNL     1       1.383   0.464   7.348  0.00  0.00    +0.210 HD
ENDBRANCH  17  18
BRANCH  17  20
ATOM     20  C   UNL     1      -0.722  -0.650   8.511  0.00  0.00    -0.046 C 
BRANCH  20  21
ATOM     21  N   UNL     1      -0.914   0.291   9.623  0.00  0.00    +0.381 N 
ATOM     22  C   UNL     1      -0.867  -0.441  10.895  0.00  0.00    -0.078 C 
ATOM     23  C   UNL     1      -0.985   0.545  12.059  0.00  0.00    -0.016 C 
ATOM     24  C   UNL     1      -2.314   1.298  11.951  0.00  0.00    -0.018 C 
ATOM     25  C   UNL     1      -2.383   1.997  10.590  0.00  0.00    -0.016 C 
ATOM     26  C   UNL     1      -2.213   0.958   9.480  0.00  0.00    -0.078 C 
ATOM     27  C   UNL     1      -2.403   2.342  13.066  0.00  0.00    +0.007 C 
ATOM     28  H   UNL     1      -0.179   0.982   9.608  0.00  0.00    -0.082 HD
ENDBRANCH  20  21
ENDBRANCH  17  20
ENDBRANCH  16  17
ENDBRANCH   4  16
TORSDOF 6
