REMARK  Name = ZINC62878945
REMARK  4 active torsions:
REMARK  status: ('A' for Active; 'I' for Inactive)
REMARK    1  A    between atoms: C_4  and  N_7
REMARK    2  A    between atoms: C_8  and  C_12
REMARK    3  A    between atoms: C_12  and  C_13
REMARK    4  A    between atoms: C_13  and  C_18
REMARK                            x       y       z     vdW  Elec       q    Type
REMARK                         _______ _______ _______ _____ _____    ______ ____
ROOT
ATOM      1  N   UNL     1       5.262  -1.855   0.547  0.00  0.00    -0.197 N 
ATOM      2  C   UNL     1       3.913  -1.882   0.499  0.00  0.00    +0.158 A 
ATOM      3  N   UNL     1       3.534  -0.935  -0.320  0.00  0.00    -0.113 NA
ATOM      4  N   UNL     1       4.553  -0.312  -0.793  0.00  0.00    -0.023 NA
ATOM      5  N   UNL     1       5.641  -0.807  -0.311  0.00  0.00    -0.039 NA
ENDROOT
BRANCH   1   9
ATOM      6  C   UNL     1       7.767  -4.336   2.773  0.00  0.00    +0.000 A 
ATOM      7  C   UNL     1       8.076  -4.044   1.457  0.00  0.00    +0.002 A 
ATOM      8  C   UNL     1       7.248  -3.223   0.717  0.00  0.00    +0.028 A 
ATOM      9  C   UNL     1       6.105  -2.690   1.296  0.00  0.00    +0.069 A 
ATOM     10  C   UNL     1       5.796  -2.984   2.617  0.00  0.00    +0.028 A 
ATOM     11  C   UNL     1       6.628  -3.806   3.352  0.00  0.00    +0.002 A 
ENDBRANCH   1   9
BRANCH   2  12
ATOM     12  C   UNL     1       3.010  -2.827   1.250  0.00  0.00    +0.094 C 
BRANCH  12  13
ATOM     13  C   UNL     1       2.475  -3.891   0.291  0.00  0.00    +0.062 C 
ATOM     14  C   UNL     1       1.707  -3.226  -0.874  0.00  0.00    -0.002 C 
ATOM     15  C   UNL     1       0.506  -4.181  -1.088  0.00  0.00    -0.082 C 
ATOM     16  N   UNL     1       0.151  -4.595   0.294  0.00  0.00    +0.380 N 
ATOM     17  C   UNL     1       1.436  -4.778   1.002  0.00  0.00    -0.064 C 
ATOM     18  H   UNL     1      -0.395  -3.874   0.744  0.00  0.00    -0.086 HD
ATOM     19  H   UNL     1      -0.363  -5.462   0.276  0.00  0.00    -0.086 HD
BRANCH  13  20
ATOM     20  C   UNL     1       3.606  -4.734  -0.239  0.00  0.00    +0.361 C 
ATOM     21  O   UNL     1       4.750  -4.517   0.125  0.00  0.00    -0.246 OA
ATOM     22  O   UNL     1       3.379  -5.631  -1.032  0.00  0.00    -0.246 OA
ENDBRANCH  13  20
ENDBRANCH  12  13
ENDBRANCH   2  12
TORSDOF 4
