REMARK  Name = ZINC46556706
REMARK  9 active torsions:
REMARK  status: ('A' for Active; 'I' for Inactive)
REMARK    1  A    between atoms: C_1  and  C_2
REMARK    2  A    between atoms: C_2  and  C_3
REMARK    3  A    between atoms: C_3  and  N_4
REMARK    4  A    between atoms: N_4  and  C_5
REMARK    5  A    between atoms: N_4  and  C_16
REMARK    6  A    between atoms: C_5  and  C_6
REMARK    7  A    between atoms: N_8  and  C_9
REMARK    8  A    between atoms: C_14  and  C_15
REMARK    9  A    between atoms: C_16  and  C_17
REMARK                            x       y       z     vdW  Elec       q    Type
REMARK                         _______ _______ _______ _____ _____    ______ ____
ROOT
ATOM      1  C   UNL     1      -0.669  -2.498   0.745  0.00  0.00    +0.020 C 
ENDROOT
BRANCH   1   2
ATOM      2  C   UNL     1       0.657  -1.786   0.827  0.00  0.00    +0.204 C 
ATOM      3  O   UNL     1       0.729  -0.605   0.557  0.00  0.00    -0.277 OA
ATOM      4  N   UNL     1       1.762  -2.461   1.199  0.00  0.00    -0.256 N 
ATOM      5  C   UNL     1       1.684  -3.791   1.643  0.00  0.00    +0.058 A 
ATOM      6  C   UNL     1       0.539  -4.272   2.252  0.00  0.00    +0.025 A 
ATOM      7  C   UNL     1       0.489  -5.586   2.681  0.00  0.00    +0.002 A 
ATOM      8  C   UNL     1       1.581  -6.416   2.503  0.00  0.00    +0.002 A 
ATOM      9  C   UNL     1       2.728  -5.942   1.895  0.00  0.00    +0.025 A 
ATOM     10  C   UNL     1       2.786  -4.627   1.459  0.00  0.00    +0.055 A 
ATOM     11  N   UNL     1       3.936  -4.134   0.833  0.00  0.00    -0.282 N 
ATOM     12  C   UNL     1       4.105  -2.810   0.649  0.00  0.00    +0.241 C 
ATOM     13  O   UNL     1       5.092  -2.406   0.070  0.00  0.00    -0.273 OA
ATOM     14  C   UNL     1       3.085  -1.831   1.149  0.00  0.00    +0.118 C 
ATOM     15  C   UNL     1       3.480  -1.334   2.551  0.00  0.00    +0.036 C 
ATOM     16  C   UNL     1       4.220   0.001   2.284  0.00  0.00    +0.003 C 
ATOM     17  C   UNL     1       3.412   0.614   1.113  0.00  0.00    +0.003 C 
ATOM     18  C   UNL     1       3.043  -0.599   0.232  0.00  0.00    +0.036 C 
ATOM     19  H   UNL     1       4.618  -4.752   0.527  0.00  0.00    +0.155 HD
ENDBRANCH   1   2
BRANCH   1  20
ATOM     20  N   UNL     1      -1.551  -1.786  -0.189  0.00  0.00    +0.391 N 
ATOM     21  H   UNL     1      -1.643  -0.824   0.102  0.00  0.00    -0.080 HD
BRANCH  20  22
ATOM     22  C   UNL     1      -2.874  -2.424  -0.197  0.00  0.00    -0.078 C 
BRANCH  22  24
ATOM     23  C   UNL     1      -4.946  -2.825   1.140  0.00  0.00    +0.002 C 
ATOM     24  C   UNL     1      -3.518  -2.277   1.183  0.00  0.00    -0.022 C 
ENDBRANCH  22  24
ENDBRANCH  20  22
BRANCH  20  25
ATOM     25  C   UNL     1      -0.975  -1.835  -1.540  0.00  0.00    +0.020 C 
BRANCH  25  26
ATOM     26  C   UNL     1      -1.814  -1.002  -2.474  0.00  0.00    +0.201 C 
ATOM     27  O   UNL     1      -2.795  -0.424  -2.056  0.00  0.00    -0.278 OA
ATOM     28  N   UNL     1      -1.475  -0.900  -3.775  0.00  0.00    -0.287 N 
ATOM     29  H   UNL     1      -0.650  -1.298  -4.094  0.00  0.00    +0.155 HD
BRANCH  28  30
ATOM     30  C   UNL     1      -2.312  -0.218  -4.665  0.00  0.00    +0.036 A 
ATOM     31  C   UNL     1      -3.666  -0.085  -4.384  0.00  0.00    +0.023 A 
ATOM     32  C   UNL     1      -4.489   0.588  -5.264  0.00  0.00    +0.002 A 
ATOM     33  C   UNL     1      -3.967   1.130  -6.425  0.00  0.00    +0.000 A 
ATOM     34  C   UNL     1      -2.620   1.000  -6.707  0.00  0.00    +0.005 A 
ATOM     35  C   UNL     1      -1.790   0.333  -5.828  0.00  0.00    -0.029 A 
ATOM     36  C   UNL     1      -0.321   0.197  -6.133  0.00  0.00    +0.045 C 
ENDBRANCH  28  30
ENDBRANCH  25  26
ENDBRANCH  20  25
ENDBRANCH   1  20
TORSDOF 7
