REMARK  Name = ZINC32856234
REMARK  8 active torsions:
REMARK  status: ('A' for Active; 'I' for Inactive)
REMARK    1  A    between atoms: C_1  and  C_2
REMARK    2  A    between atoms: C_5  and  C_8
REMARK    3  A    between atoms: C_11  and  S_14
REMARK    4  A    between atoms: N_12  and  N_13
REMARK    5  A    between atoms: S_14  and  C_15
REMARK    6  A    between atoms: C_15  and  C_16
REMARK    7  A    between atoms: C_19  and  C_29
REMARK    8  A    between atoms: C_22  and  C_24
REMARK                            x       y       z     vdW  Elec       q    Type
REMARK                         _______ _______ _______ _____ _____    ______ ____
ROOT
ATOM      1  C   UNL     1       1.756   2.096  -0.004  0.00  0.00    +0.175 C 
ENDROOT
BRANCH   1   2
ATOM      2  C   UNL     1       1.984   3.586   0.002  0.00  0.00    +0.246 C 
ATOM      3  O   UNL     1       1.037   4.344   0.015  0.00  0.00    -0.273 OA
ATOM      4  N   UNL     1       3.240   4.076  -0.007  0.00  0.00    -0.184 N 
ATOM      5  C   UNL     1       3.602   5.502  -0.009  0.00  0.00    +0.144 C 
ATOM      6  C   UNL     1       5.143   5.485  -0.017  0.00  0.00    +0.090 C 
ATOM      7  C   UNL     1       5.492   4.014  -0.029  0.00  0.00    +0.104 C 
ATOM      8  N   UNL     1       4.406   3.314  -0.023  0.00  0.00    -0.178 NA
BRANCH   7   9
ATOM      9  C   UNL     1       6.851   3.466  -0.045  0.00  0.00    +0.150 A 
ATOM     10  C   UNL     1       7.183   2.142  -0.056  0.00  0.00    +0.051 A 
ATOM     11  C   UNL     1       8.588   2.077  -0.070  0.00  0.00    +0.042 A 
ATOM     12  C   UNL     1       9.044   3.346  -0.066  0.00  0.00    +0.196 A 
ATOM     13  O   UNL     1       7.994   4.183  -0.057  0.00  0.00    -0.462 OA
ENDBRANCH   7   9
BRANCH   5  14
ATOM     14  C   UNL     1       3.069   6.183  -1.243  0.00  0.00    +0.013 A 
ATOM     15  C   UNL     1       2.537   7.423  -1.372  0.00  0.00    +0.013 A 
ATOM     16  C   UNL     1       2.110   7.842  -2.618  0.00  0.00    +0.008 A 
ATOM     17  C   UNL     1       2.235   7.002  -3.674  0.00  0.00    +0.045 A 
ATOM     18  S   UNL     1       2.983   5.568  -2.917  0.00  0.00    -0.100 S 
ENDBRANCH   5  14
ENDBRANCH   1   2
BRANCH   1  19
ATOM     19  S   UNL     1      -0.022   1.758   0.012  0.00  0.00    -0.075 S 
BRANCH  19  23
ATOM     20  C   UNL     1      -0.582  -2.109  -0.004  0.00  0.00    +0.182 A 
ATOM     21  N   UNL     1       0.727  -2.007  -0.015  0.00  0.00    -0.127 NA
ATOM     22  N   UNL     1       1.071  -0.769  -0.012  0.00  0.00    -0.121 NA
ATOM     23  C   UNL     1       0.002  -0.004   0.002  0.00  0.00    +0.209 A 
ATOM     24  N   UNL     1      -1.086  -0.829   0.013  0.00  0.00    -0.224 N 
BRANCH  20  29
ATOM     25  C   UNL     1      -3.634  -6.987  -0.002  0.00  0.00    +0.044 C 
ATOM     26  C   UNL     1      -2.835  -5.710  -0.002  0.00  0.00    -0.050 A 
ATOM     27  C   UNL     1      -1.484  -5.743   0.295  0.00  0.00    +0.004 A 
ATOM     28  C   UNL     1      -0.746  -4.577   0.296  0.00  0.00    +0.012 A 
ATOM     29  C   UNL     1      -1.366  -3.362  -0.004  0.00  0.00    +0.021 A 
ATOM     30  C   UNL     1      -2.730  -3.336  -0.297  0.00  0.00    +0.012 A 
ATOM     31  C   UNL     1      -3.455  -4.510  -0.300  0.00  0.00    +0.004 A 
ENDBRANCH  20  29
BRANCH  24  32
ATOM     32  N   UNL     1      -2.401  -0.460   0.035  0.00  0.00    -0.295 N 
ATOM     33  H   UNL     1      -2.674   0.606   0.048  0.00  0.00    +0.163 HD
ATOM     34  H   UNL     1      -3.188  -1.229   0.040  0.00  0.00    +0.163 HD
ENDBRANCH  24  32
ENDBRANCH  19  23
ENDBRANCH   1  19
TORSDOF 7
