REMARK  Name = ZINC13123486
REMARK  4 active torsions:
REMARK  status: ('A' for Active; 'I' for Inactive)
REMARK    1  A    between atoms: C_4  and  O_24
REMARK    2  A    between atoms: C_5  and  C_7
REMARK    3  A    between atoms: C_10  and  C_18
REMARK    4  A    between atoms: O_24  and  C_25
REMARK                            x       y       z     vdW  Elec       q    Type
REMARK                         _______ _______ _______ _____ _____    ______ ____
ROOT
ATOM      1  C   UNL     1       1.227  -2.187  -0.022  0.00  0.00    +0.146 C 
ATOM      2  C   UNL     1       0.518  -2.717   1.231  0.00  0.00    +0.059 C 
ATOM      3  C   UNL     1       0.291  -4.227   1.096  0.00  0.00    +0.112 C 
ATOM      4  N   UNL     1      -0.595  -4.470  -0.059  0.00  0.00    -0.306 N 
ATOM      5  C   UNL     1      -0.320  -3.739  -1.207  0.00  0.00    +0.215 A 
ATOM      6  N   UNL     1       0.527  -2.679  -1.208  0.00  0.00    -0.226 N 
ATOM      7  N   UNL     1       0.566  -2.200  -2.518  0.00  0.00    -0.156 NA
ATOM      8  C   UNL     1      -0.229  -2.965  -3.224  0.00  0.00    +0.247 A 
ATOM      9  N   UNL     1      -0.769  -3.897  -2.423  0.00  0.00    -0.202 NA
ATOM     10  H   UNL     1      -1.328  -5.104  -0.018  0.00  0.00    +0.150 HD
ENDROOT
BRANCH   1  15
ATOM     11  C   UNL     1      -0.017   1.378   0.010  0.00  0.00    +0.001 A 
ATOM     12  C   UNL     1       1.170   2.088   0.002  0.00  0.00    +0.004 A 
ATOM     13  C   UNL     1       2.377   1.417  -0.013  0.00  0.00    +0.046 A 
ATOM     14  C   UNL     1       2.399   0.030  -0.021  0.00  0.00    +0.132 A 
ATOM     15  C   UNL     1       1.207  -0.680  -0.013  0.00  0.00    +0.019 A 
ATOM     16  C   UNL     1       0.002  -0.004   0.002  0.00  0.00    +0.009 A 
BRANCH  14  17
ATOM     17  O   UNL     1       3.586  -0.632  -0.037  0.00  0.00    -0.434 OA
BRANCH  17  18
ATOM     18  C   UNL     1       4.772   0.164  -0.045  0.00  0.00    +0.541 C 
ATOM     19  F   UNL     1       4.781   0.977  -1.183  0.00  0.00    -0.166 F 
ATOM     20  F   UNL     1       4.804   0.965   1.101  0.00  0.00    -0.166 F 
ENDBRANCH  17  18
ENDBRANCH  14  17
ENDBRANCH   1  15
BRANCH   3  21
ATOM     21  C   UNL     1      -0.353  -4.755   2.352  0.00  0.00    +0.011 A 
ATOM     22  C   UNL     1       0.220  -5.395   3.401  0.00  0.00    +0.014 A 
ATOM     23  C   UNL     1      -0.576  -5.795   4.458  0.00  0.00    +0.023 A 
ATOM     24  C   UNL     1      -1.906  -5.535   4.415  0.00  0.00    +0.055 A 
ATOM     25  S   UNL     1      -2.067  -4.694   2.848  0.00  0.00    -0.085 S 
ATOM     26 BR   UNL     1      -3.243  -5.948   5.687  0.00  0.00    -0.043 Br
ENDBRANCH   3  21
TORSDOF 4
