REMARK  Name = ZINC49125339
REMARK  4 active torsions:
REMARK  status: ('A' for Active; 'I' for Inactive)
REMARK    1  A    between atoms: C_1  and  N_2
REMARK    2  A    between atoms: N_5  and  C_28
REMARK    3  A    between atoms: C_12  and  C_14
REMARK    4  A    between atoms: C_17  and  C_20
REMARK                            x       y       z     vdW  Elec       q    Type
REMARK                         _______ _______ _______ _____ _____    ______ ____
ROOT
ATOM      1  C   UNL     1      -0.214   1.286  -0.096  0.00  0.00    +0.135 C 
ATOM      2  N   UNL     1      -0.209  -0.175   0.008  0.00  0.00    -0.271 N 
ATOM      3  C   UNL     1      -0.290  -1.063  -1.006  0.00  0.00    +0.316 C 
ATOM      4  O   UNL     1      -0.382  -0.748  -2.176  0.00  0.00    -0.252 OA
ATOM      5  N   UNL     1      -0.259  -2.332  -0.576  0.00  0.00    -0.192 N 
ATOM      6  C   UNL     1      -0.153  -2.398   0.771  0.00  0.00    +0.253 C 
ATOM      7  O   UNL     1      -0.100  -3.394   1.460  0.00  0.00    -0.272 OA
ATOM      8  C   UNL     1      -0.109  -0.968   1.228  0.00  0.00    +0.139 C 
ATOM      9  C   UNL     1      -1.230  -0.648   2.225  0.00  0.00    +0.142 C 
ATOM     10  N   UNL     1      -0.687  -1.046   3.540  0.00  0.00    -0.313 N 
ATOM     11  C   UNL     1       0.782  -1.048   3.465  0.00  0.00    +0.117 C 
ATOM     12  C   UNL     1       1.170  -0.654   2.021  0.00  0.00    +0.070 C 
ATOM     13  C   UNL     1      -1.441  -1.365   4.664  0.00  0.00    +0.099 A 
ATOM     14  C   UNL     1      -2.830  -1.327   4.596  0.00  0.00    +0.042 A 
ATOM     15  C   UNL     1      -3.567  -1.646   5.722  0.00  0.00    +0.005 A 
ATOM     16  C   UNL     1      -2.888  -1.995   6.882  0.00  0.00    +0.018 A 
ATOM     17  C   UNL     1      -1.508  -2.012   6.878  0.00  0.00    +0.084 A 
ATOM     18  N   UNL     1      -0.830  -1.707   5.788  0.00  0.00    -0.350 N 
ATOM     19  H   UNL     1       0.140  -1.730   5.811  0.00  0.00    +0.166 HD
ENDROOT
BRANCH   5  20
ATOM     20  C   UNL     1      -0.328  -3.452  -1.417  0.00  0.00    +0.048 A 
ATOM     21  C   UNL     1      -0.167  -4.727  -0.891  0.00  0.00    +0.044 A 
ATOM     22  C   UNL     1      -0.235  -5.829  -1.723  0.00  0.00    +0.044 A 
ATOM     23  C   UNL     1      -0.464  -5.662  -3.077  0.00  0.00    +0.040 A 
ATOM     24  C   UNL     1      -0.624  -4.393  -3.603  0.00  0.00    +0.044 A 
ATOM     25  C   UNL     1      -0.562  -3.288  -2.775  0.00  0.00    +0.044 A 
ATOM     26 CL   UNL     1      -0.910  -4.188  -5.303  0.00  0.00    -0.083 Cl
ATOM     27 CL   UNL     1      -0.035  -7.424  -1.067  0.00  0.00    -0.083 Cl
ENDBRANCH   5  20
BRANCH  12  28
ATOM     28  C   UNL     1       2.322  -1.492   1.530  0.00  0.00    -0.040 A 
ATOM     29  C   UNL     1       3.264  -0.937   0.682  0.00  0.00    +0.005 A 
ATOM     30  C   UNL     1       4.322  -1.698   0.229  0.00  0.00    +0.019 A 
ATOM     31  C   UNL     1       4.440  -3.031   0.627  0.00  0.00    +0.052 A 
ATOM     32  C   UNL     1       3.486  -3.584   1.484  0.00  0.00    +0.019 A 
ATOM     33  C   UNL     1       2.436  -2.810   1.933  0.00  0.00    +0.005 A 
BRANCH  31  34
ATOM     34  C   UNL     1       5.535  -3.827   0.160  0.00  0.00    +0.099 C 
ATOM     35  N   UNL     1       6.403  -4.459  -0.210  0.00  0.00    -0.191 NA
ENDBRANCH  31  34
ENDBRANCH  12  28
TORSDOF 3
