REMARK  Name = ZINC46973197
REMARK  5 active torsions:
REMARK  status: ('A' for Active; 'I' for Inactive)
REMARK    1  A    between atoms: C_1  and  C_2
REMARK    2  A    between atoms: C_2  and  C_4
REMARK    3  A    between atoms: C_2  and  N_10
REMARK    4  A    between atoms: N_16  and  S_19
REMARK    5  A    between atoms: S_19  and  C_22
REMARK                            x       y       z     vdW  Elec       q    Type
REMARK                         _______ _______ _______ _____ _____    ______ ____
ROOT
ATOM      1  N   UNL     1       0.711  -0.488   1.189  0.00  0.00    -0.294 N 
ATOM      2  C   UNL     1       2.054  -0.600   1.174  0.00  0.00    +0.303 C 
ATOM      3  O   UNL     1       2.670  -0.385   0.148  0.00  0.00    -0.253 OA
ATOM      4  N   UNL     1       2.714  -0.949   2.296  0.00  0.00    -0.283 N 
ATOM      5  C   UNL     1       4.183  -0.962   2.326  0.00  0.00    +0.126 C 
ATOM      6  C   UNL     1       4.657  -0.071   3.481  0.00  0.00    +0.128 C 
ATOM      7  N   UNL     1       3.921  -0.446   4.696  0.00  0.00    -0.178 NA
ATOM      8  C   UNL     1       2.451  -0.434   4.666  0.00  0.00    +0.128 C 
ATOM      9  C   UNL     1       1.977  -1.319   3.512  0.00  0.00    +0.126 C 
ATOM     10  H   UNL     1       0.213  -0.730   1.986  0.00  0.00    +0.151 HD
ENDROOT
BRANCH   7  11
ATOM     11  S   UNL     1       4.732  -0.875   6.074  0.00  0.00    +0.029 S 
ATOM     12  O   UNL     1       3.832  -1.722   6.776  0.00  0.00    -0.158 OA
ATOM     13  O   UNL     1       5.984  -1.368   5.619  0.00  0.00    -0.158 OA
ATOM     14  C   UNL     1       4.964   0.678   6.981  0.00  0.00    +0.215 C 
ENDBRANCH   7  11
BRANCH   1  16
ATOM     15  C   UNL     1      -0.017   1.528   0.012  0.00  0.00    +0.030 C 
ATOM     16  C   UNL     1       0.002  -0.001   0.003  0.00  0.00    +0.100 C 
BRANCH  16  17
ATOM     17  C   UNL     1      -1.433  -0.529   0.014  0.00  0.00    +0.138 C 
ATOM     18  C   UNL     1      -1.438  -2.071   0.166  0.00  0.00    +0.035 C 
ATOM     19  C   UNL     1      -2.843  -2.302   0.787  0.00  0.00    +0.031 C 
ATOM     20  C   UNL     1      -3.023  -1.045   1.665  0.00  0.00    +0.160 C 
ATOM     21  O   UNL     1      -2.138  -0.035   1.163  0.00  0.00    -0.375 OA
ENDBRANCH  16  17
ENDBRANCH   1  16
TORSDOF 3
