REMARK  Name = ZINC27522554
REMARK  5 active torsions:
REMARK  status: ('A' for Active; 'I' for Inactive)
REMARK    1  A    between atoms: C_6  and  N_7
REMARK    2  A    between atoms: C_8  and  C_10
REMARK    3  A    between atoms: N_15  and  C_26
REMARK    4  A    between atoms: N_17  and  C_18
REMARK    5  A    between atoms: C_26  and  C_27
REMARK                            x       y       z     vdW  Elec       q    Type
REMARK                         _______ _______ _______ _____ _____    ______ ____
ROOT
ATOM      1  C   UNL     1      -3.225  -2.604  -0.299  0.00  0.00    +0.149 C 
ATOM      2  C   UNL     1      -2.605  -3.909   0.206  0.00  0.00    +0.120 C 
ATOM      3  C   UNL     1      -3.372  -5.110  -0.229  0.00  0.00    +0.223 C 
ATOM      4  O   UNL     1      -3.297  -6.074   0.501  0.00  0.00    -0.275 OA
ATOM      5  N   UNL     1      -4.125  -5.264  -1.308  0.00  0.00    -0.246 N 
ATOM      6  C   UNL     1      -4.448  -4.242  -2.183  0.00  0.00    +0.164 C 
ATOM      7  N   UNL     1      -5.432  -4.365  -3.042  0.00  0.00    -0.226 NA
ATOM      8  S   UNL     1      -3.479  -2.761  -2.097  0.00  0.00    -0.077 S 
ENDROOT
BRANCH   7   9
ATOM      9  C   UNL     1      -6.494  -5.182  -2.755  0.00  0.00    +0.067 A 
ATOM     10  C   UNL     1      -7.184  -5.037  -1.550  0.00  0.00    +0.030 A 
ATOM     11  C   UNL     1      -8.253  -5.863  -1.267  0.00  0.00    +0.040 A 
ATOM     12  C   UNL     1      -8.641  -6.834  -2.175  0.00  0.00    +0.124 A 
ATOM     13  C   UNL     1      -7.960  -6.982  -3.372  0.00  0.00    +0.040 A 
ATOM     14  C   UNL     1      -6.894  -6.159  -3.669  0.00  0.00    +0.030 A 
ATOM     15  F   UNL     1      -9.688  -7.640  -1.892  0.00  0.00    -0.205 F 
ENDBRANCH   7   9
BRANCH   1  17
ATOM     16  N   UNL     1      -2.798  -0.241   0.295  0.00  0.00    -0.285 N 
ATOM     17  C   UNL     1      -2.295  -1.454  -0.013  0.00  0.00    +0.231 C 
ATOM     18  O   UNL     1      -1.095  -1.618  -0.060  0.00  0.00    -0.274 OA
ATOM     19  H   UNL     1      -3.754  -0.128   0.408  0.00  0.00    +0.155 HD
BRANCH  16  25
ATOM     20  C   UNL     1      -0.798   0.959  -0.334  0.00  0.00    +0.025 A 
ATOM     21  C   UNL     1       0.047   2.040  -0.179  0.00  0.00    +0.022 A 
ATOM     22  C   UNL     1      -0.242   3.017   0.757  0.00  0.00    +0.041 A 
ATOM     23  C   UNL     1      -1.378   2.914   1.539  0.00  0.00    +0.022 A 
ATOM     24  C   UNL     1      -2.227   1.835   1.389  0.00  0.00    +0.025 A 
ATOM     25  C   UNL     1      -1.939   0.853   0.450  0.00  0.00    +0.034 A 
ATOM     26 CL   UNL     1       0.823   4.375   0.950  0.00  0.00    -0.084 Cl
ENDBRANCH  16  25
ENDBRANCH   1  17
BRANCH   5  27
ATOM     27  C   UNL     1      -4.650  -6.601  -1.592  0.00  0.00    +0.150 C 
BRANCH  27  28
ATOM     28  C   UNL     1      -3.503  -7.561  -1.782  0.00  0.00    -0.026 A 
ATOM     29  C   UNL     1      -2.851  -7.625  -2.999  0.00  0.00    +0.009 A 
ATOM     30  C   UNL     1      -1.798  -8.503  -3.178  0.00  0.00    +0.050 A 
ATOM     31  C   UNL     1      -1.395  -9.322  -2.136  0.00  0.00    +0.166 A 
ATOM     32  C   UNL     1      -2.051  -9.258  -0.910  0.00  0.00    +0.167 A 
ATOM     33  C   UNL     1      -3.102  -8.371  -0.736  0.00  0.00    +0.054 A 
ATOM     34  O   UNL     1      -1.473 -10.154  -0.058  0.00  0.00    -0.453 OA
ATOM     35  C   UNL     1      -0.725 -11.054  -0.896  0.00  0.00    +0.466 C 
ATOM     36  O   UNL     1      -0.405 -10.258  -2.052  0.00  0.00    -0.453 OA
ENDBRANCH  27  28
ENDBRANCH   5  27
TORSDOF 5
