REMARK  Name = ZINC16668367
REMARK  10 active torsions:
REMARK  status: ('A' for Active; 'I' for Inactive)
REMARK    1  A    between atoms: C_1  and  C_2
REMARK    2  A    between atoms: C_2  and  C_3
REMARK    3  A    between atoms: C_3  and  C_4
REMARK    4  A    between atoms: C_4  and  N_5
REMARK    5  A    between atoms: C_11  and  S_12
REMARK    6  A    between atoms: S_12  and  C_13
REMARK    7  A    between atoms: C_13  and  C_14
REMARK    8  A    between atoms: N_19  and  C_20
REMARK    9  A    between atoms: C_24  and  C_27
REMARK   10  A    between atoms: C_25  and  C_26
REMARK                            x       y       z     vdW  Elec       q    Type
REMARK                         _______ _______ _______ _____ _____    ______ ____
ROOT
ATOM      1  C   UNL     1       1.493   6.289   2.553  0.00  0.00    +0.231 C 
ATOM      2  O   UNL     1       2.265   6.283   1.618  0.00  0.00    -0.274 OA
ATOM      3  N   UNL     1       1.483   7.326   3.414  0.00  0.00    -0.239 N 
ATOM      4  C   UNL     1       2.332   8.357   3.235  0.00  0.00    +0.310 C 
ATOM      5  O   UNL     1       3.106   8.352   2.298  0.00  0.00    -0.252 OA
ATOM      6  N   UNL     1       2.323   9.394   4.096  0.00  0.00    -0.269 N 
ATOM      7  H   UNL     1       0.866   7.330   4.162  0.00  0.00    +0.159 HD
ATOM      8  H   UNL     1       1.652   9.438   4.795  0.00  0.00    +0.156 HD
ENDROOT
BRANCH   6   9
ATOM      9  C   UNL     1       3.281  10.408   3.981  0.00  0.00    +0.038 A 
ATOM     10  C   UNL     1       4.504  10.144   3.377  0.00  0.00    +0.023 A 
ATOM     11  C   UNL     1       5.447  11.146   3.265  0.00  0.00    +0.002 A 
ATOM     12  C   UNL     1       5.176  12.411   3.754  0.00  0.00    +0.004 A 
ATOM     13  C   UNL     1       3.960  12.677   4.355  0.00  0.00    -0.046 A 
ATOM     14  C   UNL     1       3.009  11.680   4.465  0.00  0.00    -0.026 A 
ATOM     15  C   UNL     1       1.681  11.973   5.115  0.00  0.00    +0.046 C 
ATOM     16  C   UNL     1       3.668  14.057   4.886  0.00  0.00    +0.044 C 
ENDBRANCH   6   9
BRANCH   1  17
ATOM     17  C   UNL     1       0.543   5.135   2.753  0.00  0.00    +0.173 C 
BRANCH  17  18
ATOM     18  S   UNL     1       0.797   3.911   1.444  0.00  0.00    -0.077 S 
BRANCH  18  25
ATOM     19  N   UNL     1      -0.659   1.530   1.249  0.00  0.00    -0.271 N 
ATOM     20  C   UNL     1      -1.638   0.878   1.907  0.00  0.00    +0.345 A 
ATOM     21  O   UNL     1      -2.112  -0.203   1.605  0.00  0.00    -0.245 OA
ATOM     22  N   UNL     1      -1.998   1.639   2.961  0.00  0.00    -0.226 N 
ATOM     23  H   UNL     1      -2.681   1.427   3.616  0.00  0.00    +0.194 HD
ATOM     24  N   UNL     1      -1.204   2.794   2.935  0.00  0.00    -0.145 NA
ATOM     25  C   UNL     1      -0.405   2.711   1.910  0.00  0.00    +0.192 A 
BRANCH  19  26
ATOM     26  C   UNL     1       0.023   1.060   0.041  0.00  0.00    +0.129 C 
BRANCH  26  27
ATOM     27  C   UNL     1      -0.728   1.558  -1.195  0.00  0.00    +0.021 C 
BRANCH  27  29
ATOM     28  C   UNL     1      -0.767   1.566  -3.693  0.00  0.00    +0.004 C 
ATOM     29  C   UNL     1      -0.016   1.067  -2.457  0.00  0.00    -0.002 C 
ENDBRANCH  27  29
ENDBRANCH  26  27
ENDBRANCH  19  26
ENDBRANCH  18  25
ENDBRANCH  17  18
ENDBRANCH   1  17
TORSDOF 7
