REMARK  Name = ZINC05551186
REMARK  4 active torsions:
REMARK  status: ('A' for Active; 'I' for Inactive)
REMARK    1  A    between atoms: C_1  and  C_2
REMARK    2  A    between atoms: C_6  and  N_9
REMARK    3  A    between atoms: C_7  and  C_8
REMARK    4  A    between atoms: C_15  and  C_16
REMARK                            x       y       z     vdW  Elec       q    Type
REMARK                         _______ _______ _______ _____ _____    ______ ____
ROOT
ATOM      1  N   UNL     1       1.350  -3.073   2.559  0.00  0.00    -0.225 NA
ATOM      2  C   UNL     1       0.942  -4.321   2.500  0.00  0.00    +0.166 C 
ATOM      3  N   UNL     1       0.629  -5.170   3.539  0.00  0.00    -0.260 N 
ATOM      4  C   UNL     1       0.229  -6.408   3.301  0.00  0.00    +0.256 C 
ATOM      5  O   UNL     1      -0.052  -7.171   4.206  0.00  0.00    -0.269 OA
ATOM      6  C   UNL     1       0.138  -6.821   1.886  0.00  0.00    +0.078 C 
ATOM      7  C   UNL     1      -0.238  -8.014   1.360  0.00  0.00    +0.028 C 
ATOM      8  S   UNL     1       0.651  -5.325   1.053  0.00  0.00    -0.049 S 
ATOM      9  H   UNL     1       0.703  -4.857   4.454  0.00  0.00    +0.157 HD
ENDROOT
BRANCH   1  15
ATOM     10  C   UNL     1       1.175   0.942  -0.237  0.00  0.00    +0.044 C 
ATOM     11  C   UNL     1       1.653  -0.464   0.022  0.00  0.00    -0.046 A 
ATOM     12  C   UNL     1       2.469  -1.096  -0.899  0.00  0.00    +0.004 A 
ATOM     13  C   UNL     1       2.912  -2.386  -0.670  0.00  0.00    +0.002 A 
ATOM     14  C   UNL     1       2.543  -3.052   0.481  0.00  0.00    +0.028 A 
ATOM     15  C   UNL     1       1.721  -2.419   1.416  0.00  0.00    +0.070 A 
ATOM     16  C   UNL     1       1.281  -1.114   1.180  0.00  0.00    -0.022 A 
ATOM     17  C   UNL     1       0.397  -0.422   2.185  0.00  0.00    +0.046 C 
ENDBRANCH   1  15
BRANCH   7  18
ATOM     18  C   UNL     1      -0.080  -8.264  -0.080  0.00  0.00    -0.024 A 
ATOM     19  C   UNL     1       0.629  -7.359  -0.878  0.00  0.00    +0.009 A 
ATOM     20  C   UNL     1       0.773  -7.602  -2.227  0.00  0.00    +0.016 A 
ATOM     21  C   UNL     1       0.218  -8.737  -2.793  0.00  0.00    +0.018 A 
ATOM     22  C   UNL     1      -0.487  -9.637  -2.010  0.00  0.00    +0.016 A 
ATOM     23  C   UNL     1      -0.634  -9.412  -0.659  0.00  0.00    +0.009 A 
ATOM     24 BR   UNL     1       0.421  -9.060  -4.646  0.00  0.00    -0.050 Br
ENDBRANCH   7  18
TORSDOF 2
