REMARK  Name = ZINC09661765
REMARK  6 active torsions:
REMARK  status: ('A' for Active; 'I' for Inactive)
REMARK    1  A    between atoms: C_6  and  C_7
REMARK    2  A    between atoms: C_7  and  O_9
REMARK    3  A    between atoms: O_9  and  C_10
REMARK    4  A    between atoms: C_10  and  C_11
REMARK    5  A    between atoms: N_13  and  C_14
REMARK    6  A    between atoms: C_14  and  C_15
REMARK                            x       y       z     vdW  Elec       q    Type
REMARK                         _______ _______ _______ _____ _____    ______ ____
ROOT
ATOM      1  C   UNL     1      -1.405   1.146   5.049  0.00  0.00    +0.340 C 
ATOM      2  O   UNL     1      -0.569   0.281   5.216  0.00  0.00    -0.245 OA
ENDROOT
BRANCH   1   8
ATOM      3  C   UNL     1      -2.543   2.750   3.523  0.00  0.00    +0.017 A 
ATOM      4  C   UNL     1      -2.704   3.330   2.284  0.00  0.00    +0.026 A 
ATOM      5  C   UNL     1      -1.903   2.919   1.224  0.00  0.00    +0.062 A 
ATOM      6  C   UNL     1      -0.961   1.914   1.417  0.00  0.00    +0.135 A 
ATOM      7  C   UNL     1      -0.786   1.334   2.643  0.00  0.00    +0.046 A 
ATOM      8  C   UNL     1      -1.582   1.754   3.718  0.00  0.00    +0.061 A 
ATOM      9  S   UNL     1      -0.017   1.417   0.010  0.00  0.00    +0.102 S 
ATOM     10  O   UNL     1       0.002  -0.004   0.002  0.00  0.00    -0.146 OA
ATOM     11  O   UNL     1       1.166   2.203   0.003  0.00  0.00    -0.146 OA
ATOM     12  N   UNL     1      -0.927   1.897  -1.287  0.00  0.00    -0.118 NA
ATOM     13  C   UNL     1      -1.827   2.838  -1.178  0.00  0.00    +0.124 C 
ATOM     14  N   UNL     1      -2.046   3.531  -0.041  0.00  0.00    -0.286 N 
ATOM     15  C   UNL     1      -2.432   4.924   0.040  0.00  0.00    +0.112 C 
ATOM     16  C   UNL     1      -2.067   5.878  -1.010  0.00  0.00    +0.019 C 
ATOM     17  C   UNL     1      -2.154   5.603  -2.466  0.00  0.00    +0.002 C 
ATOM     18  C   UNL     1      -2.927   4.417  -2.965  0.00  0.00    +0.008 C 
ATOM     19  C   UNL     1      -2.596   3.110  -2.398  0.00  0.00    +0.073 C 
ENDBRANCH   1   8
BRANCH   1  20
ATOM     20  O   UNL     1      -2.171   1.551   6.082  0.00  0.00    -0.452 OA
BRANCH  20  21
ATOM     21  C   UNL     1      -1.942   0.909   7.364  0.00  0.00    +0.328 C 
BRANCH  21  22
ATOM     22  C   UNL     1      -2.883   1.486   8.389  0.00  0.00    +0.251 C 
ATOM     23  O   UNL     1      -3.669   2.353   8.071  0.00  0.00    -0.272 OA
ATOM     24  N   UNL     1      -2.851   1.039   9.660  0.00  0.00    -0.312 N 
ATOM     25  H   UNL     1      -2.222   0.346   9.915  0.00  0.00    +0.149 HD
BRANCH  24  26
ATOM     26  C   UNL     1      -3.766   1.600  10.658  0.00  0.00    +0.111 C 
BRANCH  26  27
ATOM     27  C   UNL     1      -3.525   0.924  12.009  0.00  0.00    -0.013 C 
ATOM     28  C   UNL     1      -3.773  -0.580  11.878  0.00  0.00    +0.012 C 
ATOM     29  C   UNL     1      -3.532  -1.256  13.229  0.00  0.00    -0.010 C 
ATOM     30  C   UNL     1      -4.487  -0.670  14.270  0.00  0.00    +0.007 C 
ATOM     31  C   UNL     1      -4.239   0.834  14.401  0.00  0.00    -0.010 C 
ATOM     32  C   UNL     1      -4.480   1.510  13.050  0.00  0.00    +0.012 C 
ATOM     33  C   UNL     1      -2.794   1.076  14.842  0.00  0.00    +0.007 C 
ATOM     34  C   UNL     1      -1.838   0.490  13.800  0.00  0.00    -0.010 C 
ATOM     35  C   UNL     1      -2.087  -1.014  13.669  0.00  0.00    +0.007 C 
ATOM     36  C   UNL     1      -2.080   1.166  12.449  0.00  0.00    +0.012 C 
ENDBRANCH  26  27
ENDBRANCH  24  26
ENDBRANCH  21  22
ENDBRANCH  20  21
ENDBRANCH   1  20
TORSDOF 6
