REMARK  Name = ZINC20450457
REMARK  6 active torsions:
REMARK  status: ('A' for Active; 'I' for Inactive)
REMARK    1  A    between atoms: C_1  and  C_2
REMARK    2  A    between atoms: C_5  and  C_8
REMARK    3  A    between atoms: C_8  and  N_9
REMARK    4  A    between atoms: C_10  and  C_12
REMARK    5  A    between atoms: C_12  and  N_13
REMARK    6  A    between atoms: C_22  and  C_25
REMARK                            x       y       z     vdW  Elec       q    Type
REMARK                         _______ _______ _______ _____ _____    ______ ____
ROOT
ATOM      1  N   UNL     1       4.232   0.230  -1.597  0.00  0.00    +0.391 N 
ATOM      2  C   UNL     1       5.392   0.832  -0.930  0.00  0.00    -0.038 C 
ATOM      3  C   UNL     1       5.372   0.440   0.535  0.00  0.00    -0.022 A 
ATOM      4  C   UNL     1       6.350  -0.390   1.044  0.00  0.00    +0.005 A 
ATOM      5  C   UNL     1       6.350  -0.701   2.392  0.00  0.00    +0.000 A 
ATOM      6  C   UNL     1       5.375  -0.183   3.224  0.00  0.00    +0.004 A 
ATOM      7  C   UNL     1       4.389   0.639   2.712  0.00  0.00    +0.046 A 
ATOM      8  C   UNL     1       4.383   0.944   1.358  0.00  0.00    +0.123 A 
ATOM      9  O   UNL     1       3.405   1.734   0.838  0.00  0.00    -0.486 OA
ATOM     10  C   UNL     1       2.484   1.074  -0.038  0.00  0.00    +0.187 C 
ATOM     11  C   UNL     1       3.023   1.037  -1.452  0.00  0.00    -0.028 C 
ATOM     12  H   UNL     1       4.032  -0.725  -1.090  0.00  0.00    -0.080 HD
ENDROOT
BRANCH  10  13
ATOM     13  C   UNL     1       1.171   1.813  -0.027  0.00  0.00    -0.009 A 
ATOM     14  C   UNL     1      -0.019   1.109  -0.022  0.00  0.00    +0.007 A 
ATOM     15  C   UNL     1      -1.223   1.787  -0.017  0.00  0.00    +0.000 A 
ATOM     16  C   UNL     1      -1.238   3.169  -0.008  0.00  0.00    +0.000 A 
ATOM     17  C   UNL     1      -0.049   3.873  -0.014  0.00  0.00    +0.000 A 
ATOM     18  C   UNL     1       1.156   3.195  -0.023  0.00  0.00    +0.007 A 
ENDBRANCH  10  13
BRANCH   1  19
ATOM     19  C   UNL     1       4.519  -0.039  -3.012  0.00  0.00    +0.019 C 
BRANCH  19  21
ATOM     20  N   UNL     1       6.009  -1.514  -4.325  0.00  0.00    -0.310 N 
ATOM     21  C   UNL     1       5.583  -1.102  -3.115  0.00  0.00    +0.197 C 
ATOM     22  O   UNL     1       6.055  -1.587  -2.108  0.00  0.00    -0.278 OA
ATOM     23  H   UNL     1       5.581  -1.074  -5.238  0.00  0.00    +0.149 HD
BRANCH  20  24
ATOM     24  C   UNL     1       7.043  -2.546  -4.425  0.00  0.00    +0.182 C 
BRANCH  24  29
ATOM     25  C   UNL     1       9.087  -2.489  -9.045  0.00  0.00    +0.087 C 
ATOM     26  C   UNL     1       8.212  -2.797  -7.857  0.00  0.00    +0.122 A 
ATOM     27  N   UNL     1       8.325  -2.263  -6.617  0.00  0.00    -0.215 NA
ATOM     28  H   UNL     1       6.783  -4.257  -8.629  0.00  0.00    +0.190 HD
ATOM     29  C   UNL     1       7.338  -2.823  -5.877  0.00  0.00    +0.168 A 
ATOM     30  N   UNL     1       6.690  -3.647  -6.655  0.00  0.00    -0.156 NA
ATOM     31  N   UNL     1       7.206  -3.627  -7.833  0.00  0.00    -0.263 N 
ENDBRANCH  24  29
ENDBRANCH  20  24
ENDBRANCH  19  21
ENDBRANCH   1  19
TORSDOF 5
