REMARK  Name = ZINC05007081
REMARK  7 active torsions:
REMARK  status: ('A' for Active; 'I' for Inactive)
REMARK    1  A    between atoms: C_1  and  C_2
REMARK    2  A    between atoms: C_2  and  C_3
REMARK    3  A    between atoms: C_2  and  C_4
REMARK    4  A    between atoms: C_4  and  C_5
REMARK    5  A    between atoms: C_5  and  N_6
REMARK    6  A    between atoms: C_12  and  C_18
REMARK    7  A    between atoms: C_22  and  N_24
REMARK                            x       y       z     vdW  Elec       q    Type
REMARK                         _______ _______ _______ _____ _____    ______ ____
ROOT
ATOM      1  N   UNL     1      -0.067   1.120  -2.437  0.00  0.00    -0.292 N 
ATOM      2  C   UNL     1      -0.329  -0.137  -3.153  0.00  0.00    +0.159 C 
ATOM      3  C   UNL     1       0.643  -0.134  -4.312  0.00  0.00    +0.039 C 
ATOM      4  C   UNL     1       1.346   1.012  -4.214  0.00  0.00    +0.058 C 
ATOM      5  C   UNL     1       0.916   1.758  -3.098  0.00  0.00    +0.247 C 
ATOM      6  O   UNL     1       1.375   2.838  -2.773  0.00  0.00    -0.270 OA
ATOM      7  C   UNL     1       2.407   1.280  -5.263  0.00  0.00    +0.142 C 
ATOM      8  N   UNL     1       2.583   0.258  -6.309  0.00  0.00    -0.288 N 
ATOM      9  C   UNL     1       1.801  -0.839  -6.273  0.00  0.00    +0.304 C 
ATOM     10  O   UNL     1       1.938  -1.688  -7.132  0.00  0.00    -0.252 OA
ATOM     11  N   UNL     1       0.877  -1.024  -5.321  0.00  0.00    -0.271 N 
ATOM     12  H   UNL     1       3.246   0.372  -7.008  0.00  0.00    +0.151 HD
ATOM     13  H   UNL     1       0.346  -1.835  -5.349  0.00  0.00    +0.156 HD
ENDROOT
BRANCH   7  14
ATOM     14  C   UNL     1       3.726   1.452  -4.555  0.00  0.00    -0.020 A 
ATOM     15  C   UNL     1       4.508   0.347  -4.273  0.00  0.00    +0.007 A 
ATOM     16  C   UNL     1       5.718   0.504  -3.624  0.00  0.00    +0.022 A 
ATOM     17  C   UNL     1       6.147   1.767  -3.255  0.00  0.00    +0.071 A 
ATOM     18  C   UNL     1       5.364   2.872  -3.538  0.00  0.00    +0.145 A 
ATOM     19  C   UNL     1       4.157   2.714  -4.192  0.00  0.00    +0.040 A 
ATOM     20 CL   UNL     1       7.666   1.964  -2.439  0.00  0.00    -0.081 Cl
BRANCH  18  21
ATOM     21  N   UNL     1       5.822   4.223  -3.144  0.00  0.00    +0.058 N 
ATOM     22  O   UNL     1       5.132   5.196  -3.393  0.00  0.00    -0.126 OA
ATOM     23  O   UNL     1       6.888   4.362  -2.573  0.00  0.00    -0.126 OA
ENDBRANCH  18  21
ENDBRANCH   7  14
BRANCH   1  24
ATOM     24  C   UNL     1      -0.753   1.593  -1.232  0.00  0.00    +0.109 C 
BRANCH  24  25
ATOM     25  C   UNL     1      -0.013   1.086   0.008  0.00  0.00    +0.022 C 
BRANCH  25  27
ATOM     26  C   UNL     1      -0.064   0.971   2.503  0.00  0.00    +0.007 C 
ATOM     27  C   UNL     1      -0.729   1.579   1.267  0.00  0.00    -0.016 C 
ATOM     28  C   UNL     1      -0.641   3.105   1.339  0.00  0.00    +0.007 C 
ENDBRANCH  25  27
ENDBRANCH  24  25
ENDBRANCH   1  24
TORSDOF 5
