REMARK  Name = ZINC39693211
REMARK  7 active torsions:
REMARK  status: ('A' for Active; 'I' for Inactive)
REMARK    1  A    between atoms: C_1  and  C_2
REMARK    2  A    between atoms: C_4  and  C_34
REMARK    3  A    between atoms: C_10  and  C_14
REMARK    4  A    between atoms: C_14  and  S_15
REMARK    5  A    between atoms: S_15  and  C_16
REMARK    6  A    between atoms: C_19  and  C_28
REMARK    7  A    between atoms: N_20  and  C_21
REMARK                            x       y       z     vdW  Elec       q    Type
REMARK                         _______ _______ _______ _____ _____    ______ ____
ROOT
ATOM      1  S   UNL     1      -5.554  -1.105   2.621  0.00  0.00    -0.078 S 
ENDROOT
BRANCH   1   2
ATOM      2  C   UNL     1      -7.075  -1.314   3.486  0.00  0.00    +0.197 A 
ATOM      3  N   UNL     1      -7.217  -1.508   4.777  0.00  0.00    -0.122 NA
ATOM      4  N   UNL     1      -8.462  -1.620   5.076  0.00  0.00    -0.125 NA
ATOM      5  C   UNL     1      -9.197  -1.504   3.991  0.00  0.00    +0.205 A 
ATOM      6  N   UNL     1      -8.330  -1.298   2.938  0.00  0.00    -0.268 N 
BRANCH   6   7
ATOM      7  C   UNL     1      -8.663  -1.115   1.588  0.00  0.00    +0.051 A 
ATOM      8  C   UNL     1      -9.373   0.012   1.194  0.00  0.00    +0.029 A 
ATOM      9  C   UNL     1      -9.700   0.190  -0.136  0.00  0.00    +0.040 A 
ATOM     10  C   UNL     1      -9.322  -0.753  -1.076  0.00  0.00    +0.124 A 
ATOM     11  C   UNL     1      -8.615  -1.878  -0.685  0.00  0.00    +0.040 A 
ATOM     12  C   UNL     1      -8.280  -2.057   0.643  0.00  0.00    +0.029 A 
ATOM     13  F   UNL     1      -9.643  -0.577  -2.376  0.00  0.00    -0.205 F 
ENDBRANCH   6   7
BRANCH   5  14
ATOM     14  C   UNL     1     -10.664  -1.573   3.916  0.00  0.00    +0.172 A 
ATOM     15  C   UNL     1     -11.524  -1.478   4.968  0.00  0.00    +0.053 A 
ATOM     16  C   UNL     1     -12.825  -1.597   4.441  0.00  0.00    +0.042 A 
ATOM     17  C   UNL     1     -12.698  -1.758   3.108  0.00  0.00    +0.196 A 
ATOM     18  O   UNL     1     -11.392  -1.737   2.794  0.00  0.00    -0.460 OA
ENDBRANCH   5  14
ENDBRANCH   1   2
BRANCH   1  19
ATOM     19  C   UNL     1      -4.292  -1.232   3.917  0.00  0.00    +0.151 C 
BRANCH  19  27
ATOM     20  C   UNL     1      -0.019   1.526   0.010  0.00  0.00    +0.053 C 
ATOM     21  C   UNL     1       0.002  -0.004   0.002  0.00  0.00    +0.191 C 
ATOM     22  C   UNL     1       0.688  -0.551   1.277  0.00  0.00    +0.183 C 
ATOM     23  C   UNL     1      -0.495  -0.764   2.197  0.00  0.00    +0.096 A 
ATOM     24  H   UNL     1      -1.946  -1.283   5.055  0.00  0.00    +0.170 HD
ATOM     25  C   UNL     1      -1.635  -0.720   1.417  0.00  0.00    +0.226 A 
ATOM     26  N   UNL     1      -2.829  -0.872   2.019  0.00  0.00    -0.199 NA
ATOM     27  C   UNL     1      -2.925  -1.068   3.304  0.00  0.00    +0.124 A 
ATOM     28  N   UNL     1      -1.841  -1.130   4.103  0.00  0.00    -0.310 N 
ATOM     29  C   UNL     1      -0.606  -0.978   3.573  0.00  0.00    +0.259 A 
ATOM     30  O   UNL     1       0.387  -1.026   4.280  0.00  0.00    -0.267 OA
ATOM     31  O   UNL     1      -1.331  -0.533   0.105  0.00  0.00    -0.472 OA
BRANCH  22  32
ATOM     32  C   UNL     1       1.394  -1.852   0.994  0.00  0.00    +0.367 C 
ATOM     33  O   UNL     1       2.483  -2.076   1.494  0.00  0.00    -0.246 OA
ATOM     34  O   UNL     1       0.875  -2.681   0.266  0.00  0.00    -0.246 OA
ENDBRANCH  22  32
ENDBRANCH  19  27
ENDBRANCH   1  19
TORSDOF 6
