REMARK  Name = ZINC04331839
REMARK  10 active torsions:
REMARK  status: ('A' for Active; 'I' for Inactive)
REMARK    1  A    between atoms: C_1  and  C_2
REMARK    2  A    between atoms: N_10  and  N_14
REMARK    3  A    between atoms: C_15  and  C_17
REMARK    4  A    between atoms: C_17  and  O_18
REMARK    5  A    between atoms: O_18  and  C_19
REMARK    6  A    between atoms: C_19  and  C_21
REMARK    7  A    between atoms: C_24  and  O_27
REMARK    8  A    between atoms: O_27  and  C_28
REMARK    9  A    between atoms: C_28  and  C_29
REMARK   10  A    between atoms: C_28  and  C_30
REMARK                            x       y       z     vdW  Elec       q    Type
REMARK                         _______ _______ _______ _____ _____    ______ ____
ROOT
ATOM      1  N   UNL     1       3.935  -6.152   0.433  0.00  0.00    -0.221 N 
ATOM      2  C   UNL     1       3.738  -4.819   0.408  0.00  0.00    +0.267 C 
ATOM      3  O   UNL     1       4.673  -4.065   0.577  0.00  0.00    -0.271 OA
ATOM      4  H   UNL     1       3.187  -6.755   0.298  0.00  0.00    +0.174 HD
ENDROOT
BRANCH   1  14
ATOM      5  C   UNL     1      11.037  -9.206   2.227  0.00  0.00    +0.007 C 
ATOM      6  C   UNL     1       9.583  -8.803   2.478  0.00  0.00    -0.014 C 
ATOM      7  C   UNL     1       9.433  -7.292   2.292  0.00  0.00    +0.006 C 
ATOM      8  C   UNL     1       7.981  -6.887   2.555  0.00  0.00    +0.035 C 
ATOM      9  C   UNL     1       7.061  -7.628   1.591  0.00  0.00    +0.114 C 
ATOM     10  C   UNL     1       7.217  -9.137   1.748  0.00  0.00    +0.035 C 
ATOM     11  C   UNL     1       8.673  -9.532   1.488  0.00  0.00    +0.006 C 
ATOM     12  C   UNL     1       5.623  -7.221   1.817  0.00  0.00    +0.263 C 
ATOM     13  O   UNL     1       4.971  -7.362   2.829  0.00  0.00    -0.271 OA
ATOM     14  N   UNL     1       5.218  -6.667   0.655  0.00  0.00    -0.137 N 
ATOM     15  C   UNL     1       6.194  -6.675  -0.261  0.00  0.00    +0.326 C 
ATOM     16  O   UNL     1       6.068  -6.235  -1.387  0.00  0.00    -0.251 OA
ATOM     17  N   UNL     1       7.333  -7.223   0.206  0.00  0.00    -0.284 N 
ATOM     18  H   UNL     1       8.166  -7.333  -0.279  0.00  0.00    +0.151 HD
ENDBRANCH   1  14
BRANCH   2  19
ATOM     19  C   UNL     1       2.357  -4.265   0.169  0.00  0.00    +0.329 C 
BRANCH  19  20
ATOM     20  O   UNL     1       2.408  -2.814   0.188  0.00  0.00    -0.452 OA
BRANCH  20  21
ATOM     21  C   UNL     1       1.247  -2.159  -0.012  0.00  0.00    +0.340 C 
ATOM     22  O   UNL     1       0.221  -2.783  -0.196  0.00  0.00    -0.245 OA
BRANCH  21  23
ATOM     23  C   UNL     1       1.223  -0.684  -0.006  0.00  0.00    +0.059 A 
ATOM     24  C   UNL     1       0.020  -0.003  -0.213  0.00  0.00    +0.018 A 
ATOM     25  C   UNL     1       0.001   1.374  -0.207  0.00  0.00    +0.046 A 
ATOM     26  C   UNL     1       1.176   2.086   0.004  0.00  0.00    +0.121 A 
ATOM     27  C   UNL     1       2.375   1.412   0.210  0.00  0.00    +0.046 A 
ATOM     28  C   UNL     1       2.402   0.035   0.205  0.00  0.00    +0.018 A 
BRANCH  26  29
ATOM     29  O   UNL     1       1.154   3.443   0.009  0.00  0.00    -0.489 OA
BRANCH  29  30
ATOM     30  C   UNL     1       2.412   4.112   0.112  0.00  0.00    +0.167 C 
ATOM     31  C   UNL     1       2.297   5.510  -0.500  0.00  0.00    +0.051 C 
ATOM     32  C   UNL     1       2.808   4.231   1.585  0.00  0.00    +0.051 C 
ENDBRANCH  29  30
ENDBRANCH  26  29
ENDBRANCH  21  23
ENDBRANCH  20  21
ENDBRANCH  19  20
ENDBRANCH   2  19
TORSDOF 7
