REMARK  Name = ZINC12734107
REMARK  11 active torsions:
REMARK  status: ('A' for Active; 'I' for Inactive)
REMARK    1  A    between atoms: C_1  and  C_2
REMARK    2  A    between atoms: N_5  and  C_11
REMARK    3  A    between atoms: C_7  and  C_10
REMARK    4  A    between atoms: C_11  and  C_12
REMARK    5  A    between atoms: N_17  and  C_18
REMARK    6  A    between atoms: C_18  and  C_20
REMARK    7  A    between atoms: C_23  and  S_26
REMARK    8  A    between atoms: S_26  and  N_29
REMARK    9  A    between atoms: N_29  and  C_30
REMARK   10  A    between atoms: C_30  and  C_31
REMARK   11  A    between atoms: C_30  and  C_32
REMARK                            x       y       z     vdW  Elec       q    Type
REMARK                         _______ _______ _______ _____ _____    ______ ____
ROOT
ATOM      1  C   UNL     1       4.107   1.394   2.592  0.00  0.00    +0.039 A 
ATOM      2  C   UNL     1       4.805   0.263   2.856  0.00  0.00    +0.071 A 
ATOM      3  S   UNL     1       5.248   0.538   4.565  0.00  0.00    -0.060 S 
ATOM      4  C   UNL     1       4.482   2.085   4.751  0.00  0.00    +0.163 A 
ATOM      5  N   UNL     1       3.967   2.286   3.554  0.00  0.00    -0.338 N 
ATOM      6  N   UNL     1       4.430   2.904   5.872  0.00  0.00    -0.152 NA
ATOM      7  H   UNL     1       3.413   3.217   3.364  0.00  0.00    +0.167 HD
ENDROOT
BRANCH   6   8
ATOM      8  C   UNL     1       5.031   2.521   7.016  0.00  0.00    +0.269 C 
ATOM      9  O   UNL     1       5.620   1.458   7.066  0.00  0.00    -0.268 OA
BRANCH   8  10
ATOM     10  C   UNL     1       4.976   3.392   8.208  0.00  0.00    +0.039 A 
ATOM     11  C   UNL     1       4.306   4.616   8.152  0.00  0.00    +0.015 A 
ATOM     12  C   UNL     1       4.253   5.422   9.270  0.00  0.00    +0.029 A 
ATOM     13  C   UNL     1       4.872   5.025  10.442  0.00  0.00    +0.105 A 
ATOM     14  C   UNL     1       5.543   3.817  10.503  0.00  0.00    +0.029 A 
ATOM     15  C   UNL     1       5.598   2.998   9.394  0.00  0.00    +0.015 A 
BRANCH  13  16
ATOM     16  S   UNL     1       4.806   6.064  11.863  0.00  0.00    +0.059 S 
ATOM     17  O   UNL     1       3.658   6.888  11.712  0.00  0.00    -0.153 OA
ATOM     18  O   UNL     1       4.996   5.222  12.992  0.00  0.00    -0.153 OA
BRANCH  16  19
ATOM     19  N   UNL     1       6.121   7.069  11.797  0.00  0.00    -0.187 NA
ATOM     20  H   UNL     1       6.975   6.883  12.466  0.00  0.00    +0.148 HD
BRANCH  19  21
ATOM     21  C   UNL     1       6.238   8.052  10.717  0.00  0.00    +0.070 C 
ATOM     22  C   UNL     1       5.691   9.400  11.193  0.00  0.00    +0.025 C 
ATOM     23  C   UNL     1       7.709   8.208  10.326  0.00  0.00    +0.025 C 
ENDBRANCH  19  21
ENDBRANCH  16  19
ENDBRANCH  13  16
ENDBRANCH   8  10
ENDBRANCH   6   8
BRANCH   1  24
ATOM     24  C   UNL     1       3.509   1.631   1.229  0.00  0.00    +0.138 C 
BRANCH  24  28
ATOM     25  C   UNL     1      -0.754   1.593  -1.230  0.00  0.00    +0.039 C 
ATOM     26  C   UNL     1      -0.013   1.086   0.008  0.00  0.00    +0.130 C 
ATOM     27  C   UNL     1       1.423   1.617  -0.003  0.00  0.00    +0.116 C 
ATOM     28  N   UNL     1       2.108   1.189   1.226  0.00  0.00    -0.292 NA
ATOM     29  C   UNL     1       1.398   1.680   2.416  0.00  0.00    +0.116 C 
ATOM     30  C   UNL     1      -0.038   1.149   2.402  0.00  0.00    +0.130 C 
ATOM     31  O   UNL     1      -0.677   1.548   1.187  0.00  0.00    -0.371 OA
ATOM     32  C   UNL     1      -0.018  -0.378   2.493  0.00  0.00    +0.039 C 
ENDBRANCH  24  28
ENDBRANCH   1  24
TORSDOF 7
