REMARK  Name = ZINC13639071
REMARK  5 active torsions:
REMARK  status: ('A' for Active; 'I' for Inactive)
REMARK    1  A    between atoms: C_1  and  C_2
REMARK    2  A    between atoms: C_2  and  C_3
REMARK    3  A    between atoms: C_2  and  N_4
REMARK    4  A    between atoms: C_5  and  C_7
REMARK    5  A    between atoms: C_14  and  C_23
REMARK                            x       y       z     vdW  Elec       q    Type
REMARK                         _______ _______ _______ _____ _____    ______ ____
ROOT
ATOM      1  C   UNL     1       1.104  -2.175  -2.912  0.00  0.00    +0.058 A 
ATOM      2  C   UNL     1       2.034  -1.354  -3.546  0.00  0.00    +0.015 A 
ATOM      3  C   UNL     1       2.687  -1.794  -4.676  0.00  0.00    +0.001 A 
ATOM      4  C   UNL     1       2.403  -3.048  -5.192  0.00  0.00    +0.006 A 
ATOM      5  C   UNL     1       1.476  -3.867  -4.587  0.00  0.00    -0.019 A 
ATOM      6  C   UNL     1       0.814  -3.456  -3.426  0.00  0.00    +0.044 A 
ATOM      7  N   UNL     1      -0.097  -4.234  -2.732  0.00  0.00    -0.336 N 
ATOM      8  C   UNL     1      -0.468  -5.523  -3.337  0.00  0.00    +0.105 C 
ATOM      9  C   UNL     1       0.792  -6.116  -3.932  0.00  0.00    +0.029 C 
ATOM     10  C   UNL     1       1.127  -5.192  -5.144  0.00  0.00    +0.049 C 
ATOM     11  C   UNL     1       2.087  -6.017  -5.917  0.00  0.00    -0.023 C 
ATOM     12  C   UNL     1       1.813  -7.299  -5.699  0.00  0.00    -0.030 C 
ATOM     13  C   UNL     1       0.648  -7.423  -4.714  0.00  0.00    +0.033 C 
ATOM     14  H   UNL     1       0.188  -4.354  -1.771  0.00  0.00    +0.147 HD
ENDROOT
BRANCH   8  15
ATOM     15  C   UNL     1      -1.021  -6.447  -2.282  0.00  0.00    -0.027 A 
ATOM     16  C   UNL     1      -0.469  -6.458  -1.015  0.00  0.00    +0.006 A 
ATOM     17  C   UNL     1      -0.979  -7.301  -0.045  0.00  0.00    +0.015 A 
ATOM     18  C   UNL     1      -2.035  -8.142  -0.347  0.00  0.00    +0.018 A 
ATOM     19  C   UNL     1      -2.584  -8.134  -1.617  0.00  0.00    +0.015 A 
ATOM     20  C   UNL     1      -2.076  -7.287  -2.584  0.00  0.00    +0.006 A 
ATOM     21 BR   UNL     1      -2.729  -9.301   0.976  0.00  0.00    -0.050 Br
ENDBRANCH   8  15
BRANCH   1  23
ATOM     22  N   UNL     1       0.688  -0.476  -1.203  0.00  0.00    -0.309 N 
ATOM     23  C   UNL     1       0.414  -1.700  -1.699  0.00  0.00    +0.246 C 
ATOM     24  O   UNL     1      -0.402  -2.411  -1.145  0.00  0.00    -0.270 OA
ATOM     25  H   UNL     1       1.339   0.091  -1.645  0.00  0.00    +0.149 HD
BRANCH  22  27
ATOM     26  C   UNL     1      -0.019   1.526   0.010  0.00  0.00    +0.027 C 
ATOM     27  C   UNL     1       0.002  -0.004   0.002  0.00  0.00    +0.067 C 
ATOM     28  C   UNL     1       0.742  -0.511   1.242  0.00  0.00    +0.027 C 
ENDBRANCH  22  27
ENDBRANCH   1  23
TORSDOF 3
