REMARK  Name = ZINC51292218
REMARK  5 active torsions:
REMARK  status: ('A' for Active; 'I' for Inactive)
REMARK    1  A    between atoms: C_1  and  C_2
REMARK    2  A    between atoms: C_2  and  C_3
REMARK    3  A    between atoms: C_3  and  C_4
REMARK    4  A    between atoms: C_4  and  N_5
REMARK    5  A    between atoms: C_12  and  C_14
REMARK                            x       y       z     vdW  Elec       q    Type
REMARK                         _______ _______ _______ _____ _____    ______ ____
ROOT
ATOM      1  N   UNL     1      -2.787  -2.571   0.015  0.00  0.00    -0.299 N 
ATOM      2  C   UNL     1      -3.015  -3.899   0.010  0.00  0.00    +0.303 C 
ATOM      3  O   UNL     1      -2.080  -4.676  -0.003  0.00  0.00    -0.253 OA
ATOM      4  N   UNL     1      -4.280  -4.365   0.019  0.00  0.00    -0.276 N 
ATOM      5  C   UNL     1      -5.500  -3.539   0.029  0.00  0.00    +0.110 C 
ATOM      6  C   UNL     1      -6.590  -4.449   0.648  0.00  0.00    +0.021 C 
ATOM      7  C   UNL     1      -6.212  -5.833   0.060  0.00  0.00    +0.032 C 
ATOM      8  C   UNL     1      -4.670  -5.783   0.016  0.00  0.00    +0.146 C 
ATOM      9  H   UNL     1      -3.533  -1.950   0.025  0.00  0.00    +0.150 HD
ENDROOT
BRANCH   8  10
ATOM     10  C   UNL     1      -4.168  -6.449  -1.240  0.00  0.00    +0.154 A 
ATOM     11  N   UNL     1      -4.215  -5.959  -2.450  0.00  0.00    -0.132 NA
ATOM     12  N   UNL     1      -3.690  -6.795  -3.277  0.00  0.00    -0.134 NA
ATOM     13  C   UNL     1      -3.282  -7.850  -2.631  0.00  0.00    +0.134 A 
ATOM     14  N   UNL     1      -3.580  -7.663  -1.324  0.00  0.00    -0.313 N 
ATOM     15  C   UNL     1      -3.328  -8.601  -0.230  0.00  0.00    +0.125 C 
ATOM     16  C   UNL     1      -2.113  -9.468  -0.575  0.00  0.00    +0.022 C 
ATOM     17  C   UNL     1      -2.568 -10.714  -1.334  0.00  0.00    +0.002 C 
ATOM     18  C   UNL     1      -3.245 -10.323  -2.644  0.00  0.00    +0.008 C 
ATOM     19  C   UNL     1      -2.594  -9.061  -3.205  0.00  0.00    +0.076 C 
ENDBRANCH   8  10
BRANCH   1  20
ATOM     20  C   UNL     1      -1.413  -2.063   0.004  0.00  0.00    +0.106 C 
BRANCH  20  21
ATOM     21  C   UNL     1      -1.433  -0.534   0.013  0.00  0.00    +0.018 C 
BRANCH  21  23
ATOM     22  C   UNL     1      -0.019   1.526   0.010  0.00  0.00    +0.004 C 
ATOM     23  C   UNL     1       0.002  -0.004   0.002  0.00  0.00    -0.002 C 
ENDBRANCH  21  23
ENDBRANCH  20  21
ENDBRANCH   1  20
TORSDOF 4
