REMARK  Name = ZINC40983140
REMARK  8 active torsions:
REMARK  status: ('A' for Active; 'I' for Inactive)
REMARK    1  A    between atoms: C_1  and  C_2
REMARK    2  A    between atoms: C_2  and  C_3
REMARK    3  A    between atoms: C_3  and  S_4
REMARK    4  A    between atoms: S_4  and  C_5
REMARK    5  A    between atoms: C_10  and  C_25
REMARK    6  A    between atoms: C_12  and  C_16
REMARK    7  A    between atoms: C_13  and  C_15
REMARK    8  A    between atoms: N_18  and  C_19
REMARK                            x       y       z     vdW  Elec       q    Type
REMARK                         _______ _______ _______ _____ _____    ______ ____
ROOT
ATOM      1  C   UNL     1      -3.087  -2.905   0.032  0.00  0.00    +0.210 A 
ATOM      2  N   UNL     1      -4.093  -2.018   0.062  0.00  0.00    -0.187 NA
ATOM      3  C   UNL     1      -5.234  -2.652   0.058  0.00  0.00    +0.219 A 
ATOM      4  N   UNL     1      -4.976  -3.983   0.030  0.00  0.00    -0.220 N 
ATOM      5  N   UNL     1      -3.589  -4.121   0.005  0.00  0.00    -0.141 NA
ATOM      6  C   UNL     1      -6.017  -5.008   0.026  0.00  0.00    +0.179 C 
ATOM      7  C   UNL     1      -7.352  -4.365  -0.240  0.00  0.00    +0.060 C 
ATOM      8  C   UNL     1      -7.547  -3.039  -0.202  0.00  0.00    +0.018 C 
ATOM      9  N   UNL     1      -6.531  -2.158   0.075  0.00  0.00    -0.287 N 
ATOM     10  C   UNL     1      -8.927  -2.498  -0.473  0.00  0.00    +0.061 C 
ATOM     11  H   UNL     1      -6.712  -1.226   0.275  0.00  0.00    +0.155 HD
ENDROOT
BRANCH   6  12
ATOM     12  C   UNL     1      -6.049  -5.695   1.367  0.00  0.00    -0.000 A 
ATOM     13  C   UNL     1      -5.819  -7.059   1.462  0.00  0.00    +0.009 A 
ATOM     14  C   UNL     1      -5.859  -7.649   2.716  0.00  0.00    +0.020 A 
ATOM     15  C   UNL     1      -6.124  -6.864   3.822  0.00  0.00    +0.111 A 
ATOM     16  N   UNL     1      -6.338  -5.569   3.694  0.00  0.00    -0.263 NA
ATOM     17  C   UNL     1      -6.302  -4.973   2.518  0.00  0.00    +0.116 A 
ENDBRANCH   6  12
BRANCH   7  18
ATOM     18  C   UNL     1      -8.453  -5.200  -0.546  0.00  0.00    +0.248 C 
ATOM     19  O   UNL     1      -8.586  -5.644  -1.672  0.00  0.00    -0.270 OA
ATOM     20  N   UNL     1      -9.354  -5.503   0.409  0.00  0.00    -0.282 N 
ATOM     21  H   UNL     1      -9.296  -5.084   1.282  0.00  0.00    +0.155 HD
BRANCH  20  22
ATOM     22  C   UNL     1     -10.373  -6.423   0.142  0.00  0.00    +0.034 A 
ATOM     23  C   UNL     1     -10.188  -7.406  -0.823  0.00  0.00    +0.023 A 
ATOM     24  C   UNL     1     -11.196  -8.313  -1.084  0.00  0.00    +0.002 A 
ATOM     25  C   UNL     1     -12.388  -8.244  -0.387  0.00  0.00    +0.000 A 
ATOM     26  C   UNL     1     -12.575  -7.267   0.574  0.00  0.00    +0.002 A 
ATOM     27  C   UNL     1     -11.569  -6.361   0.845  0.00  0.00    +0.023 A 
ENDBRANCH  20  22
ENDBRANCH   7  18
BRANCH   1  28
ATOM     28  S   UNL     1      -1.371  -2.506   0.023  0.00  0.00    -0.084 S 
BRANCH  28  29
ATOM     29  C   UNL     1      -1.342  -0.693   0.072  0.00  0.00    +0.077 C 
BRANCH  29  31
ATOM     30  C   UNL     1       0.134   1.323   0.110  0.00  0.00    +0.004 C 
ATOM     31  C   UNL     1       0.109  -0.206   0.069  0.00  0.00    +0.008 C 
ENDBRANCH  29  31
ENDBRANCH  28  29
ENDBRANCH   1  28
TORSDOF 6
