REMARK  Name = ZINC04307294
REMARK  9 active torsions:
REMARK  status: ('A' for Active; 'I' for Inactive)
REMARK    1  A    between atoms: C_1  and  C_2
REMARK    2  A    between atoms: C_2  and  C_3
REMARK    3  A    between atoms: C_7  and  C_30
REMARK    4  A    between atoms: C_8  and  N_9
REMARK    5  A    between atoms: C_10  and  C_12
REMARK    6  A    between atoms: C_12  and  N_13
REMARK    7  A    between atoms: C_16  and  C_20
REMARK    8  A    between atoms: C_16  and  C_21
REMARK    9  A    between atoms: C_24  and  N_27
REMARK                            x       y       z     vdW  Elec       q    Type
REMARK                         _______ _______ _______ _____ _____    ______ ____
ROOT
ATOM      1  N   UNL     1      -1.264   2.675  -2.410  0.00  0.00    -0.215 N 
ATOM      2  C   UNL     1      -2.608   2.581  -2.447  0.00  0.00    +0.251 C 
ATOM      3  O   UNL     1      -3.356   3.091  -3.253  0.00  0.00    -0.272 OA
ATOM      4  C   UNL     1      -2.990   1.703  -1.272  0.00  0.00    +0.135 C 
ATOM      5  N   UNL     1      -1.696   1.374  -0.650  0.00  0.00    -0.281 N 
ATOM      6  C   UNL     1      -0.750   1.986  -1.385  0.00  0.00    +0.310 C 
ATOM      7  O   UNL     1       0.440   1.921  -1.145  0.00  0.00    -0.252 OA
ATOM      8  C   UNL     1      -3.879   2.470  -0.290  0.00  0.00    +0.047 C 
ATOM      9  H   UNL     1      -1.553   0.823   0.135  0.00  0.00    +0.152 HD
ENDROOT
BRANCH   4  10
ATOM     10  C   UNL     1      -3.683   0.453  -1.747  0.00  0.00    -0.015 A 
ATOM     11  C   UNL     1      -4.508   0.498  -2.856  0.00  0.00    +0.008 A 
ATOM     12  C   UNL     1      -5.140  -0.650  -3.295  0.00  0.00    +0.033 A 
ATOM     13  C   UNL     1      -4.956  -1.842  -2.619  0.00  0.00    +0.126 A 
ATOM     14  C   UNL     1      -4.136  -1.886  -1.507  0.00  0.00    +0.033 A 
ATOM     15  C   UNL     1      -3.500  -0.739  -1.071  0.00  0.00    +0.008 A 
BRANCH  13  16
ATOM     16  N   UNL     1      -5.637  -3.070  -3.086  0.00  0.00    +0.056 N 
ATOM     17  O   UNL     1      -5.475  -4.120  -2.490  0.00  0.00    -0.126 OA
ATOM     18  O   UNL     1      -6.360  -3.031  -4.065  0.00  0.00    -0.126 OA
ENDBRANCH  13  16
ENDBRANCH   4  10
BRANCH   1  19
ATOM     19  C   UNL     1      -0.466   3.437  -3.373  0.00  0.00    +0.214 C 
BRANCH  19  21
ATOM     20  N   UNL     1       0.651   3.036  -5.543  0.00  0.00    -0.284 N 
ATOM     21  C   UNL     1      -0.089   2.547  -4.529  0.00  0.00    +0.235 C 
ATOM     22  O   UNL     1      -0.451   1.389  -4.546  0.00  0.00    -0.274 OA
ATOM     23  H   UNL     1       0.897   3.974  -5.556  0.00  0.00    +0.155 HD
BRANCH  20  29
ATOM     24  C   UNL     1       0.821   2.539  -7.901  0.00  0.00    -0.026 A 
ATOM     25  C   UNL     1       1.231   1.702  -8.920  0.00  0.00    +0.005 A 
ATOM     26  C   UNL     1       1.884   0.519  -8.626  0.00  0.00    +0.001 A 
ATOM     27  C   UNL     1       2.128   0.170  -7.310  0.00  0.00    +0.005 A 
ATOM     28  C   UNL     1       1.727   1.005  -6.287  0.00  0.00    -0.029 A 
ATOM     29  C   UNL     1       1.065   2.191  -6.579  0.00  0.00    +0.040 A 
ATOM     30  C   UNL     1       1.999   0.627  -4.854  0.00  0.00    +0.045 C 
BRANCH  24  32
ATOM     31  C   UNL     1       1.123   4.973  -8.262  0.00  0.00    +0.009 C 
ATOM     32  C   UNL     1       0.110   3.828  -8.222  0.00  0.00    +0.033 C 
ENDBRANCH  24  32
ENDBRANCH  20  29
ENDBRANCH  19  21
ENDBRANCH   1  19
TORSDOF 6
