REMARK  Name = ZINC36061675
REMARK  6 active torsions:
REMARK  status: ('A' for Active; 'I' for Inactive)
REMARK    1  A    between atoms: C_4  and  C_7
REMARK    2  A    between atoms: C_7  and  N_8
REMARK    3  A    between atoms: N_8  and  C_9
REMARK    4  A    between atoms: C_9  and  C_10
REMARK    5  A    between atoms: C_21  and  C_24
REMARK    6  A    between atoms: C_31  and  C_33
REMARK                            x       y       z     vdW  Elec       q    Type
REMARK                         _______ _______ _______ _____ _____    ______ ____
ROOT
ATOM      1  C   UNL     1       5.355  -2.528   2.523  0.00  0.00    +0.233 C 
ATOM      2  O   UNL     1       6.259  -2.348   1.735  0.00  0.00    -0.274 OA
ATOM      3  N   UNL     1       5.424  -3.543   3.407  0.00  0.00    -0.297 N 
ATOM      4  C   UNL     1       4.333  -3.777   4.364  0.00  0.00    +0.126 C 
ATOM      5  C   UNL     1       3.846  -5.223   4.208  0.00  0.00    +0.125 C 
ATOM      6  N   UNL     1       5.012  -6.117   4.232  0.00  0.00    -0.311 N 
ATOM      7  C   UNL     1       6.103  -5.883   3.275  0.00  0.00    +0.125 C 
ATOM      8  C   UNL     1       6.587  -4.441   3.426  0.00  0.00    +0.126 C 
ATOM      9  C   UNL     1       5.083  -7.164   5.143  0.00  0.00    +0.144 A 
ATOM     10  C   UNL     1       3.962  -7.509   5.899  0.00  0.00    +0.047 A 
ATOM     11  C   UNL     1       4.079  -8.558   6.793  0.00  0.00    +0.033 A 
ATOM     12  C   UNL     1       5.315  -9.208   6.883  0.00  0.00    +0.095 A 
ATOM     13  N   UNL     1       6.326  -8.810   6.124  0.00  0.00    -0.147 NA
ATOM     14  N   UNL     1       6.213  -7.839   5.291  0.00  0.00    -0.134 NA
ENDROOT
BRANCH  12  15
ATOM     15  C   UNL     1       5.493 -10.338   7.827  0.00  0.00    +0.020 A 
ATOM     16  C   UNL     1       4.429 -10.761   8.622  0.00  0.00    +0.011 A 
ATOM     17  C   UNL     1       4.601 -11.814   9.497  0.00  0.00    +0.001 A 
ATOM     18  C   UNL     1       5.827 -12.450   9.587  0.00  0.00    +0.001 A 
ATOM     19  C   UNL     1       6.886 -12.036   8.801  0.00  0.00    +0.020 A 
ATOM     20  C   UNL     1       6.725 -10.987   7.917  0.00  0.00    +0.050 A 
ATOM     21 CL   UNL     1       8.054 -10.472   6.926  0.00  0.00    -0.083 Cl
ENDBRANCH  12  15
BRANCH   1  22
ATOM     22  C   UNL     1       4.155  -1.616   2.515  0.00  0.00    +0.204 C 
BRANCH  22  23
ATOM     23  N   UNL     1       4.320  -0.602   1.471  0.00  0.00    -0.282 N 
ATOM     24  C   UNL     1       5.039   0.511   1.720  0.00  0.00    +0.283 C 
ATOM     25  O   UNL     1       5.243   1.316   0.830  0.00  0.00    -0.267 OA
BRANCH  24  26
ATOM     26  C   UNL     1       5.576   0.752   3.063  0.00  0.00    +0.189 A 
ATOM     27  C   UNL     1       6.215   1.884   3.481  0.00  0.00    +0.054 A 
ATOM     28  C   UNL     1       6.555   1.682   4.828  0.00  0.00    +0.042 A 
ATOM     29  C   UNL     1       6.113   0.451   5.169  0.00  0.00    +0.196 A 
ATOM     30  O   UNL     1       5.520  -0.104   4.104  0.00  0.00    -0.458 OA
ENDBRANCH  24  26
BRANCH  23  31
ATOM     31  C   UNL     1       3.704  -0.796   0.156  0.00  0.00    +0.143 C 
BRANCH  31  35
ATOM     32  C   UNL     1      -0.094   1.156   0.059  0.00  0.00    +0.000 A 
ATOM     33  C   UNL     1       1.056   1.868  -0.224  0.00  0.00    +0.000 A 
ATOM     34  C   UNL     1       2.285   1.236  -0.192  0.00  0.00    +0.005 A 
ATOM     35  C   UNL     1       2.364  -0.107   0.123  0.00  0.00    -0.030 A 
ATOM     36  C   UNL     1       1.213  -0.819   0.406  0.00  0.00    +0.005 A 
ATOM     37  C   UNL     1      -0.016  -0.188   0.373  0.00  0.00    +0.000 A 
ENDBRANCH  31  35
ENDBRANCH  23  31
ENDBRANCH  22  23
ENDBRANCH   1  22
TORSDOF 6
