REMARK  Name = ZINC38787449
REMARK  3 active torsions:
REMARK  status: ('A' for Active; 'I' for Inactive)
REMARK    1  A    between atoms: C_1  and  C_2
REMARK    2  A    between atoms: C_8  and  C_10
REMARK    3  A    between atoms: C_12  and  C_17
REMARK                            x       y       z     vdW  Elec       q    Type
REMARK                         _______ _______ _______ _____ _____    ______ ____
ROOT
ATOM      1  C   UNL     1       1.412  -0.653   1.893  0.00  0.00    +0.022 C 
ATOM      2  C   UNL     1       1.549  -0.080   3.083  0.00  0.00    +0.051 C 
ATOM      3  C   UNL     1       2.689   0.053   3.852  0.00  0.00    +0.140 C 
ATOM      4  N   UNL     1       3.900  -0.247   3.637  0.00  0.00    -0.278 NA
ATOM      5  C   UNL     1       4.490  -0.811   2.446  0.00  0.00    +0.160 C 
ATOM      6  C   UNL     1       3.589  -1.815   1.756  0.00  0.00    +0.124 C 
ATOM      7  N   UNL     1       2.431  -1.174   1.170  0.00  0.00    -0.344 N 
ATOM      8  H   UNL     1       2.385  -1.112   0.203  0.00  0.00    +0.146 HD
ENDROOT
BRANCH   1  16
ATOM      9  C   UNL     1      -0.018   1.503   0.010  0.00  0.00    +0.040 C 
ATOM     10  C   UNL     1       0.002  -0.004   0.002  0.00  0.00    -0.054 C 
ATOM     11  C   UNL     1       0.005  -0.637  -1.160  0.00  0.00    +0.023 C 
ATOM     12  C   UNL     1       0.017  -2.113  -1.190  0.00  0.00    +0.026 C 
ATOM     13  N   UNL     1      -0.331  -2.811  -0.026  0.00  0.00    -0.285 N 
ATOM     14  C   UNL     1      -0.360  -2.176   1.156  0.00  0.00    +0.230 C 
ATOM     15  O   UNL     1      -0.705  -2.796   2.140  0.00  0.00    -0.274 OA
ATOM     16  C   UNL     1       0.024  -0.735   1.310  0.00  0.00    +0.145 C 
ATOM     17  C   UNL     1       0.353  -2.770  -2.303  0.00  0.00    +0.033 C 
ATOM     18  H   UNL     1      -0.553  -3.753  -0.075  0.00  0.00    +0.155 HD
ENDBRANCH   1  16
BRANCH   3  19
ATOM     19  C   UNL     1       2.445   0.675   5.202  0.00  0.00    +0.434 C 
ATOM     20  F   UNL     1       3.655   0.765   5.900  0.00  0.00    -0.164 F 
ATOM     21  F   UNL     1       1.906   1.955   5.036  0.00  0.00    -0.164 F 
ATOM     22  F   UNL     1       1.548  -0.119   5.926  0.00  0.00    -0.164 F 
ENDBRANCH   3  19
TORSDOF 2
