REMARK  Name = ZINC64971017
REMARK  9 active torsions:
REMARK  status: ('A' for Active; 'I' for Inactive)
REMARK    1  A    between atoms: C_1  and  C_2
REMARK    2  A    between atoms: C_2  and  C_3
REMARK    3  A    between atoms: C_3  and  C_5
REMARK    4  A    between atoms: C_3  and  N_15
REMARK    5  A    between atoms: N_7  and  C_8
REMARK    6  A    between atoms: C_12  and  C_14
REMARK    7  A    between atoms: C_19  and  C_32
REMARK    8  A    between atoms: N_20  and  C_26
REMARK    9  A    between atoms: C_23  and  C_25
REMARK                            x       y       z     vdW  Elec       q    Type
REMARK                         _______ _______ _______ _____ _____    ______ ____
ROOT
ATOM      1  N   UNL     1      -2.186  -0.176  -1.185  0.00  0.00    -0.217 N 
ATOM      2  C   UNL     1      -3.305   0.576  -1.144  0.00  0.00    +0.279 A 
ATOM      3  O   UNL     1      -3.836   0.841  -0.080  0.00  0.00    -0.265 OA
ATOM      4  C   UNL     1      -3.870   1.068  -2.404  0.00  0.00    +0.091 A 
ATOM      5  C   UNL     1      -4.952   1.830  -2.765  0.00  0.00    +0.055 A 
ATOM      6  N   UNL     1      -4.946   1.944  -4.106  0.00  0.00    -0.236 N 
ATOM      7  N   UNL     1      -3.850   1.251  -4.635  0.00  0.00    -0.164 NA
ATOM      8  C   UNL     1      -3.173   0.707  -3.651  0.00  0.00    +0.121 A 
ATOM      9  C   UNL     1      -1.966  -0.117  -3.545  0.00  0.00    +0.086 A 
ATOM     10  N   UNL     1      -1.544  -0.498  -2.378  0.00  0.00    -0.171 NA
ATOM     11  C   UNL     1      -1.213  -0.516  -4.787  0.00  0.00    +0.070 C 
ATOM     12  C   UNL     1      -5.968   2.432  -1.828  0.00  0.00    +0.066 C 
ENDROOT
BRANCH   6  13
ATOM     13  C   UNL     1      -5.893   2.649  -4.859  0.00  0.00    +0.066 A 
ATOM     14  C   UNL     1      -6.333   3.895  -4.433  0.00  0.00    +0.028 A 
ATOM     15  C   UNL     1      -7.267   4.588  -5.178  0.00  0.00    +0.002 A 
ATOM     16  C   UNL     1      -7.764   4.042  -6.347  0.00  0.00    +0.000 A 
ATOM     17  C   UNL     1      -7.329   2.801  -6.774  0.00  0.00    +0.002 A 
ATOM     18  C   UNL     1      -6.390   2.106  -6.037  0.00  0.00    +0.028 A 
ENDBRANCH   6  13
BRANCH   1  19
ATOM     19  C   UNL     1      -1.621  -0.667   0.074  0.00  0.00    +0.196 C 
BRANCH  19  20
ATOM     20  C   UNL     1      -1.585  -2.174   0.055  0.00  0.00    +0.242 C 
ATOM     21  O   UNL     1      -1.992  -2.778  -0.915  0.00  0.00    -0.273 OA
ATOM     22  N   UNL     1      -1.101  -2.850   1.115  0.00  0.00    -0.284 N 
ATOM     23  H   UNL     1      -0.720  -2.368   1.865  0.00  0.00    +0.155 HD
BRANCH  22  24
ATOM     24  C   UNL     1      -1.149  -4.249   1.134  0.00  0.00    +0.034 A 
ATOM     25  C   UNL     1      -1.382  -4.921   2.327  0.00  0.00    +0.023 A 
ATOM     26  C   UNL     1      -1.428  -6.301   2.342  0.00  0.00    +0.002 A 
ATOM     27  C   UNL     1      -1.242  -7.014   1.171  0.00  0.00    +0.003 A 
ATOM     28  C   UNL     1      -1.009  -6.347  -0.018  0.00  0.00    -0.049 A 
ATOM     29  C   UNL     1      -0.968  -4.967  -0.041  0.00  0.00    +0.026 A 
ATOM     30  C   UNL     1      -0.806  -7.128  -1.291  0.00  0.00    +0.044 C 
ENDBRANCH  22  24
ENDBRANCH  19  20
BRANCH  19  32
ATOM     31  C   UNL     1      -0.247   1.396   0.386  0.00  0.00    +0.006 C 
ATOM     32  C   UNL     1      -0.199  -0.126   0.241  0.00  0.00    +0.033 C 
ENDBRANCH  19  32
ENDBRANCH   1  19
TORSDOF 5
