REMARK  Name = ZINC05680056
REMARK  4 active torsions:
REMARK  status: ('A' for Active; 'I' for Inactive)
REMARK    1  A    between atoms: C_1  and  C_2
REMARK    2  A    between atoms: C_2  and  N_3
REMARK    3  A    between atoms: C_7  and  C_9
REMARK    4  A    between atoms: C_9  and  N_10
REMARK                            x       y       z     vdW  Elec       q    Type
REMARK                         _______ _______ _______ _____ _____    ______ ____
ROOT
ATOM      1  N   UNL     1      -4.487  -5.621   0.015  0.00  0.00    -0.215 N 
ATOM      2  C   UNL     1      -4.482  -6.373  -1.106  0.00  0.00    +0.251 C 
ATOM      3  O   UNL     1      -4.494  -5.983  -2.253  0.00  0.00    -0.272 OA
ATOM      4  C   UNL     1      -4.460  -7.804  -0.627  0.00  0.00    +0.139 C 
ATOM      5  C   UNL     1      -5.683  -8.564  -1.118  0.00  0.00    +0.040 C 
ATOM      6  C   UNL     1      -5.556 -10.051  -0.773  0.00  0.00    +0.008 C 
ATOM      7  C   UNL     1      -4.434 -10.664  -1.626  0.00  0.00    +0.043 C 
ATOM      8  C   UNL     1      -3.236  -9.777  -1.544  0.00  0.00    -0.005 A 
ATOM      9  C   UNL     1      -3.189  -8.488  -1.103  0.00  0.00    -0.005 A 
ATOM     10  C   UNL     1      -1.939  -7.871  -1.120  0.00  0.00    +0.014 A 
ATOM     11  C   UNL     1      -0.854  -8.547  -1.560  0.00  0.00    +0.046 A 
ATOM     12  S   UNL     1      -1.557 -10.133  -1.986  0.00  0.00    -0.101 S 
ATOM     13  N   UNL     1      -4.454  -7.697   0.835  0.00  0.00    -0.281 N 
ATOM     14  C   UNL     1      -4.466  -6.379   1.118  0.00  0.00    +0.310 C 
ATOM     15  O   UNL     1      -4.461  -5.930   2.247  0.00  0.00    -0.252 OA
ATOM     16  H   UNL     1      -4.441  -8.428   1.472  0.00  0.00    +0.152 HD
ENDROOT
BRANCH   1  17
ATOM     17  C   UNL     1      -4.507  -4.156   0.023  0.00  0.00    +0.214 C 
BRANCH  17  22
ATOM     18  N   UNL     1      -1.372  -0.511   0.012  0.00  0.00    -0.299 N 
ATOM     19  C   UNL     1      -1.601  -1.839   0.007  0.00  0.00    +0.306 C 
ATOM     20  O   UNL     1      -0.666  -2.617  -0.006  0.00  0.00    -0.252 OA
ATOM     21  N   UNL     1      -2.865  -2.306   0.017  0.00  0.00    -0.239 N 
ATOM     22  C   UNL     1      -3.093  -3.634   0.012  0.00  0.00    +0.238 C 
ATOM     23  O   UNL     1      -2.161  -4.409  -0.001  0.00  0.00    -0.274 OA
ATOM     24  H   UNL     1      -2.118   0.109   0.023  0.00  0.00    +0.150 HD
ATOM     25  H   UNL     1      -3.611  -1.686   0.028  0.00  0.00    +0.159 HD
BRANCH  18  27
ATOM     26  C   UNL     1      -0.019   1.526   0.010  0.00  0.00    +0.024 C 
ATOM     27  C   UNL     1       0.002  -0.004   0.002  0.00  0.00    +0.102 C 
ENDBRANCH  18  27
ENDBRANCH  17  22
ENDBRANCH   1  17
TORSDOF 3
