REMARK  Name = ZINC12347548
REMARK  8 active torsions:
REMARK  status: ('A' for Active; 'I' for Inactive)
REMARK    1  A    between atoms: C_1  and  C_2
REMARK    2  A    between atoms: C_2  and  C_29
REMARK    3  A    between atoms: C_6  and  C_16
REMARK    4  A    between atoms: C_13  and  O_14
REMARK    5  A    between atoms: C_19  and  O_24
REMARK    6  A    between atoms: C_21  and  O_22
REMARK    7  A    between atoms: O_22  and  C_23
REMARK    8  A    between atoms: O_24  and  C_25
REMARK                            x       y       z     vdW  Elec       q    Type
REMARK                         _______ _______ _______ _____ _____    ______ ____
ROOT
ATOM      1  C   UNL     1      -0.691   5.763  -3.410  0.00  0.00    +0.011 C 
ATOM      2  C   UNL     1      -2.164   6.128  -3.597  0.00  0.00    -0.023 C 
ATOM      3  C   UNL     1      -2.655   6.930  -2.390  0.00  0.00    +0.058 C 
ATOM      4  C   UNL     1      -2.530   6.094  -1.137  0.00  0.00    +0.017 C 
ATOM      5  C   UNL     1      -2.656   4.750  -1.186  0.00  0.00    +0.024 C 
ATOM      6  C   UNL     1      -2.552   3.879   0.047  0.00  0.00    +0.096 C 
ATOM      7  C   UNL     1      -2.630   4.734   1.280  0.00  0.00    +0.067 A 
ATOM      8  C   UNL     1      -2.498   6.097   1.236  0.00  0.00    +0.126 A 
ATOM      9  N   UNL     1      -2.610   6.561   2.495  0.00  0.00    -0.260 N 
ATOM     10  H   UNL     1      -2.554   7.519   2.778  0.00  0.00    +0.190 HD
ATOM     11  N   UNL     1      -2.821   5.459   3.340  0.00  0.00    -0.134 NA
ATOM     12  C   UNL     1      -2.832   4.368   2.607  0.00  0.00    +0.237 A 
ATOM     13  N   UNL     1      -2.293   6.767   0.036  0.00  0.00    -0.303 N 
ATOM     14  C   UNL     1      -2.893   4.092  -2.406  0.00  0.00    +0.162 C 
ATOM     15  O   UNL     1      -3.010   2.882  -2.415  0.00  0.00    -0.292 OA
ATOM     16  C   UNL     1      -3.005   4.850  -3.699  0.00  0.00    +0.086 C 
ATOM     17  C   UNL     1      -2.333   6.959  -4.871  0.00  0.00    +0.011 C 
ATOM     18  H   UNL     1      -1.991   7.688   0.027  0.00  0.00    +0.153 HD
ENDROOT
BRANCH   6  19
ATOM     19  C   UNL     1      -1.238   3.141   0.031  0.00  0.00    +0.007 A 
ATOM     20  C   UNL     1      -0.050   3.847   0.023  0.00  0.00    +0.012 A 
ATOM     21  C   UNL     1       1.156   3.174   0.008  0.00  0.00    +0.046 A 
ATOM     22  C   UNL     1       1.178   1.786   0.000  0.00  0.00    +0.124 A 
ATOM     23  C   UNL     1      -0.013   1.076   0.008  0.00  0.00    +0.091 A 
ATOM     24  C   UNL     1      -1.222   1.754   0.017  0.00  0.00    +0.128 A 
BRANCH  24  25
ATOM     25  O   UNL     1      -2.391   1.060   0.019  0.00  0.00    -0.495 OA
ATOM     26  C   UNL     1      -2.299  -0.366   0.010  0.00  0.00    +0.277 C 
ENDBRANCH  24  25
BRANCH  22  27
ATOM     27  O   UNL     1       2.365   1.125  -0.015  0.00  0.00    -0.495 OA
ATOM     28  C   UNL     1       3.551   1.921  -0.022  0.00  0.00    +0.277 C 
ENDBRANCH  22  27
ENDBRANCH   6  19
BRANCH  12  29
ATOM     29  O   UNL     1      -3.009   3.100   3.066  0.00  0.00    -0.491 OA
ATOM     30  H   UNL     1      -3.133   3.119   4.058  0.00  0.00    +0.294 HD
ENDBRANCH  12  29
TORSDOF 4
