REMARK  Name = ZINC04738245
REMARK  3 active torsions:
REMARK  status: ('A' for Active; 'I' for Inactive)
REMARK    1  A    between atoms: C_12  and  C_16
REMARK    2  A    between atoms: N_17  and  N_18
REMARK    3  A    between atoms: C_19  and  C_21
REMARK                            x       y       z     vdW  Elec       q    Type
REMARK                         _______ _______ _______ _____ _____    ______ ____
ROOT
ATOM      1  C   UNL     1      -0.583  -5.508   0.567  0.00  0.00    +0.001 A 
ATOM      2  C   UNL     1      -1.607  -4.589   0.361  0.00  0.00    +0.001 A 
ATOM      3  C   UNL     1      -1.351  -3.248   0.348  0.00  0.00    +0.009 A 
ATOM      4  C   UNL     1      -0.045  -2.792   0.544  0.00  0.00    -0.007 A 
ATOM      5  C   UNL     1       0.999  -3.724   0.753  0.00  0.00    -0.017 A 
ATOM      6  C   UNL     1       0.701  -5.096   0.761  0.00  0.00    +0.008 A 
ATOM      7  C   UNL     1       2.314  -3.259   0.950  0.00  0.00    +0.012 A 
ATOM      8  C   UNL     1       2.597  -1.933   0.942  0.00  0.00    +0.047 A 
ATOM      9  C   UNL     1       1.605  -0.966   0.739  0.00  0.00    +0.140 A 
ATOM     10  C   UNL     1       0.277  -1.363   0.538  0.00  0.00    +0.026 A 
ATOM     11  C   UNL     1      -0.733  -0.401   0.333  0.00  0.00    +0.030 A 
ATOM     12  C   UNL     1      -0.386   0.941   0.335  0.00  0.00    +0.099 A 
ATOM     13  C   UNL     1       1.018   1.302   0.550  0.00  0.00    +0.348 A 
ATOM     14  O   UNL     1       1.351   2.473   0.556  0.00  0.00    -0.244 OA
ATOM     15  O   UNL     1       1.939   0.342   0.740  0.00  0.00    -0.422 OA
ENDROOT
BRANCH  12  16
ATOM     16  C   UNL     1      -1.407   1.982   0.119  0.00  0.00    +0.121 C 
ATOM     17  N   UNL     1      -2.147   1.958  -0.956  0.00  0.00    -0.291 N 
ATOM     18  N   UNL     1      -1.581   2.991   1.060  0.00  0.00    -0.343 N 
ATOM     19  H   UNL     1      -2.342   3.768   0.899  0.00  0.00    +0.144 HD
ATOM     20  H   UNL     1      -0.957   3.011   1.966  0.00  0.00    +0.144 HD
ATOM     21  H   UNL     1      -2.968   2.681  -1.075  0.00  0.00    +0.186 HD
BRANCH  17  22
ATOM     22  N   UNL     1      -1.896   1.012  -1.958  0.00  0.00    -0.224 N 
ATOM     23  C   UNL     1      -2.723   0.917  -3.018  0.00  0.00    +0.268 C 
ATOM     24  O   UNL     1      -3.689   1.655  -3.105  0.00  0.00    -0.268 OA
ATOM     25  H   UNL     1      -1.023   0.346  -1.880  0.00  0.00    +0.175 HD
BRANCH  23  26
ATOM     26  C   UNL     1      -2.460  -0.072  -4.067  0.00  0.00    +0.075 A 
ATOM     27  C   UNL     1      -3.181  -0.334  -5.222  0.00  0.00    +0.021 A 
ATOM     28  C   UNL     1      -2.706  -1.326  -6.044  0.00  0.00    +0.008 A 
ATOM     29  C   UNL     1      -1.580  -1.999  -5.689  0.00  0.00    +0.046 A 
ATOM     30  S   UNL     1      -1.134  -1.260  -4.186  0.00  0.00    -0.092 S 
ENDBRANCH  23  26
ENDBRANCH  17  22
ENDBRANCH  12  16
TORSDOF 3
