REMARK  Name = ZINC08426341
REMARK  5 active torsions:
REMARK  status: ('A' for Active; 'I' for Inactive)
REMARK    1  A    between atoms: C_4  and  C_7
REMARK    2  A    between atoms: C_7  and  O_8
REMARK    3  A    between atoms: O_8  and  C_9
REMARK    4  A    between atoms: C_12  and  C_15
REMARK    5  A    between atoms: N_16  and  N_17
REMARK                            x       y       z     vdW  Elec       q    Type
REMARK                         _______ _______ _______ _____ _____    ______ ____
ROOT
ATOM      1  N   UNL     1      10.809  -4.800  -1.367  0.00  0.00    -0.205 N 
ATOM      2  C   UNL     1      11.714  -4.464  -2.327  0.00  0.00    +0.227 A 
ATOM      3  N   UNL     1      12.798  -5.140  -2.542  0.00  0.00    -0.217 NA
ATOM      4  C   UNL     1      13.125  -6.256  -1.833  0.00  0.00    +0.159 A 
ATOM      5  C   UNL     1      12.233  -6.643  -0.848  0.00  0.00    +0.100 A 
ATOM      6  C   UNL     1      11.055  -5.923  -0.592  0.00  0.00    +0.145 A 
ATOM      7  N   UNL     1      10.215  -6.301   0.348  0.00  0.00    -0.383 N 
ATOM      8  S   UNL     1      12.979  -8.098  -0.159  0.00  0.00    -0.044 S 
ATOM      9  C   UNL     1      14.426  -8.135  -1.194  0.00  0.00    +0.181 A 
ATOM     10  N   UNL     1      14.263  -7.041  -2.005  0.00  0.00    -0.270 N 
ATOM     11  C   UNL     1      15.389  -7.033  -2.841  0.00  0.00    +0.076 A 
ATOM     12  C   UNL     1      15.800  -6.190  -3.860  0.00  0.00    +0.028 A 
ATOM     13  C   UNL     1      16.986  -6.442  -4.519  0.00  0.00    +0.002 A 
ATOM     14  C   UNL     1      17.768  -7.533  -4.167  0.00  0.00    +0.002 A 
ATOM     15  C   UNL     1      17.373  -8.380  -3.157  0.00  0.00    +0.030 A 
ATOM     16  C   UNL     1      16.173  -8.138  -2.480  0.00  0.00    +0.091 A 
ATOM     17  N   UNL     1      15.530  -8.771  -1.466  0.00  0.00    -0.221 NA
ATOM     18  H   UNL     1      10.431  -7.196   0.951  0.00  0.00    +0.157 HD
ATOM     19  H   UNL     1       9.298  -5.723   0.531  0.00  0.00    +0.157 HD
ENDROOT
BRANCH   1  21
ATOM     20  C   UNL     1       8.922  -3.687  -2.186  0.00  0.00    +0.141 C 
ATOM     21  N   UNL     1       9.654  -4.032  -1.170  0.00  0.00    -0.172 NA
BRANCH  20  25
ATOM     22  C   UNL     1       5.611  -1.089  -1.634  0.00  0.00    +0.121 A 
ATOM     23  C   UNL     1       6.396  -1.452  -0.546  0.00  0.00    +0.046 A 
ATOM     24  C   UNL     1       7.468  -2.299  -0.720  0.00  0.00    +0.013 A 
ATOM     25  C   UNL     1       7.773  -2.785  -1.994  0.00  0.00    -0.005 A 
ATOM     26  C   UNL     1       6.984  -2.413  -3.087  0.00  0.00    +0.013 A 
ATOM     27  C   UNL     1       5.910  -1.570  -2.902  0.00  0.00    +0.046 A 
BRANCH  22  28
ATOM     28  O   UNL     1       4.551  -0.258  -1.457  0.00  0.00    -0.487 OA
BRANCH  28  29
ATOM     29  C   UNL     1       4.300   0.199  -0.127  0.00  0.00    +0.264 C 
BRANCH  29  33
ATOM     30  C   UNL     1       0.884   2.764  -0.124  0.00  0.00    +0.000 A 
ATOM     31  C   UNL     1       2.147   3.294  -0.315  0.00  0.00    +0.000 A 
ATOM     32  C   UNL     1       3.252   2.464  -0.316  0.00  0.00    +0.007 A 
ATOM     33  C   UNL     1       3.095   1.104  -0.125  0.00  0.00    -0.010 A 
ATOM     34  C   UNL     1       1.833   0.573   0.066  0.00  0.00    +0.007 A 
ATOM     35  C   UNL     1       0.727   1.403   0.067  0.00  0.00    +0.000 A 
ENDBRANCH  29  33
ENDBRANCH  28  29
ENDBRANCH  22  28
ENDBRANCH  20  25
ENDBRANCH   1  21
TORSDOF 5
