REMARK  Name = ZINC01445406
REMARK  7 active torsions:
REMARK  status: ('A' for Active; 'I' for Inactive)
REMARK    1  A    between atoms: C_1  and  C_2
REMARK    2  A    between atoms: C_6  and  N_8
REMARK    3  A    between atoms: C_11  and  C_18
REMARK    4  A    between atoms: C_13  and  C_16
REMARK    5  A    between atoms: C_14  and  N_15
REMARK    6  A    between atoms: C_26  and  C_28
REMARK    7  A    between atoms: C_26  and  C_29
REMARK                            x       y       z     vdW  Elec       q    Type
REMARK                         _______ _______ _______ _____ _____    ______ ____
ROOT
ATOM      1  N   UNL     1       1.236   2.226  -0.172  0.00  0.00    -0.260 N 
ATOM      2  C   UNL     1       1.310   3.199   0.789  0.00  0.00    +0.025 C 
ATOM      3  C   UNL     1       0.222   3.930   1.114  0.00  0.00    +0.026 C 
ATOM      4  C   UNL     1      -1.095   3.712   0.413  0.00  0.00    +0.104 C 
ATOM      5  C   UNL     1      -1.126   2.382  -0.282  0.00  0.00    +0.077 C 
ATOM      6  C   UNL     1       0.019   1.700  -0.543  0.00  0.00    +0.107 C 
ATOM      7  C   UNL     1       0.285   4.919   2.111  0.00  0.00    +0.162 C 
ATOM      8  O   UNL     1      -0.710   5.566   2.373  0.00  0.00    -0.292 OA
ATOM      9  C   UNL     1       1.561   5.193   2.859  0.00  0.00    +0.086 C 
ATOM     10  C   UNL     1       2.398   3.911   2.905  0.00  0.00    -0.023 C 
ATOM     11  C   UNL     1       2.636   3.435   1.470  0.00  0.00    +0.058 C 
ATOM     12  C   UNL     1       1.644   2.832   3.686  0.00  0.00    +0.011 C 
ATOM     13  C   UNL     1       3.740   4.192   3.583  0.00  0.00    +0.011 C 
ENDROOT
BRANCH   1  19
ATOM     14  C   UNL     1       4.930  -1.016  -0.323  0.00  0.00    +0.044 C 
ATOM     15  C   UNL     1       4.218   0.192  -0.875  0.00  0.00    -0.049 A 
ATOM     16  C   UNL     1       4.722   0.843  -1.987  0.00  0.00    +0.003 A 
ATOM     17  C   UNL     1       4.072   1.951  -2.497  0.00  0.00    +0.002 A 
ATOM     18  C   UNL     1       2.913   2.409  -1.901  0.00  0.00    +0.024 A 
ATOM     19  C   UNL     1       2.407   1.761  -0.781  0.00  0.00    +0.040 A 
ATOM     20  C   UNL     1       3.063   0.648  -0.271  0.00  0.00    +0.027 A 
ENDBRANCH   1  19
BRANCH   4  21
ATOM     21  C   UNL     1      -1.299   4.802  -0.607  0.00  0.00    +0.002 A 
ATOM     22  C   UNL     1      -2.296   5.717  -0.691  0.00  0.00    +0.012 A 
ATOM     23  C   UNL     1      -2.279   6.634  -1.725  0.00  0.00    +0.008 A 
ATOM     24  C   UNL     1      -1.266   6.591  -2.624  0.00  0.00    +0.045 A 
ATOM     25  S   UNL     1      -0.287   5.229  -2.014  0.00  0.00    -0.101 S 
ENDBRANCH   4  21
BRANCH   6  26
ATOM     26  N   UNL     1      -0.037   0.486  -1.184  0.00  0.00    -0.345 N 
ATOM     27  H   UNL     1       0.769  -0.043  -1.292  0.00  0.00    +0.144 HD
ATOM     28  H   UNL     1      -0.883   0.157  -1.528  0.00  0.00    +0.144 HD
ENDBRANCH   6  26
BRANCH   5  29
ATOM     29  C   UNL     1      -2.385   1.821  -0.673  0.00  0.00    +0.099 C 
ATOM     30  N   UNL     1      -3.383   1.377  -0.983  0.00  0.00    -0.191 NA
ENDBRANCH   5  29
TORSDOF 4
