REMARK  Name = ZINC52306985
REMARK  7 active torsions:
REMARK  status: ('A' for Active; 'I' for Inactive)
REMARK    1  A    between atoms: C_1  and  C_2
REMARK    2  A    between atoms: C_2  and  C_3
REMARK    3  A    between atoms: C_3  and  C_4
REMARK    4  A    between atoms: C_6  and  S_16
REMARK    5  A    between atoms: N_7  and  C_9
REMARK    6  A    between atoms: C_14  and  C_15
REMARK    7  A    between atoms: S_16  and  N_19
REMARK                            x       y       z     vdW  Elec       q    Type
REMARK                         _______ _______ _______ _____ _____    ______ ____
ROOT
ATOM      1  C   UNL     1       1.220  -2.408   0.613  0.00  0.00    +0.065 A 
ATOM      2  C   UNL     1       2.208  -3.381   0.428  0.00  0.00    +0.074 A 
ATOM      3  C   UNL     1       1.680  -4.580   0.763  0.00  0.00    +0.197 A 
ATOM      4  N   UNL     1       0.400  -4.374   1.148  0.00  0.00    -0.213 N 
ATOM      5  N   UNL     1       0.138  -3.001   1.049  0.00  0.00    -0.170 NA
ENDROOT
BRANCH   4   6
ATOM      6  C   UNL     1      -0.502  -5.358   1.574  0.00  0.00    +0.070 A 
ATOM      7  C   UNL     1      -0.151  -6.228   2.598  0.00  0.00    +0.028 A 
ATOM      8  C   UNL     1      -1.043  -7.196   3.015  0.00  0.00    +0.002 A 
ATOM      9  C   UNL     1      -2.284  -7.301   2.414  0.00  0.00    +0.000 A 
ATOM     10  C   UNL     1      -2.636  -6.437   1.394  0.00  0.00    +0.005 A 
ATOM     11  C   UNL     1      -1.751  -5.462   0.976  0.00  0.00    -0.025 A 
ATOM     12  C   UNL     1      -2.138  -4.516  -0.131  0.00  0.00    +0.046 C 
ENDBRANCH   4   6
BRANCH   3  13
ATOM     13  S   UNL     1       2.511  -6.133   0.708  0.00  0.00    +0.073 S 
ATOM     14  O   UNL     1       3.041  -6.357   2.008  0.00  0.00    -0.152 OA
ATOM     15  O   UNL     1       1.622  -7.047   0.080  0.00  0.00    -0.152 OA
BRANCH  13  16
ATOM     16  N   UNL     1       3.807  -5.960  -0.308  0.00  0.00    -0.202 NA
ATOM     17  H   UNL     1       4.609  -6.487  -0.166  0.00  0.00    +0.144 HD
ATOM     18  H   UNL     1       3.765  -5.330  -1.045  0.00  0.00    +0.144 HD
ENDBRANCH  13  16
ENDBRANCH   3  13
BRANCH   1  19
ATOM     19  C   UNL     1       1.376  -0.930   0.360  0.00  0.00    +0.057 C 
BRANCH  19  21
ATOM     20  C   UNL     1       0.440   1.041  -0.856  0.00  0.00    +0.004 C 
ATOM     21  C   UNL     1       0.281  -0.459  -0.599  0.00  0.00    +0.003 C 
ENDBRANCH  19  21
ENDBRANCH   1  19
TORSDOF 5
