REMARK  Name = ZINC41432164
REMARK  8 active torsions:
REMARK  status: ('A' for Active; 'I' for Inactive)
REMARK    1  A    between atoms: C_1  and  C_2
REMARK    2  A    between atoms: C_2  and  O_3
REMARK    3  A    between atoms: O_3  and  C_4
REMARK    4  A    between atoms: C_4  and  C_6
REMARK    5  A    between atoms: C_6  and  O_7
REMARK    6  A    between atoms: O_7  and  C_8
REMARK    7  A    between atoms: C_10  and  C_30
REMARK    8  A    between atoms: C_16  and  C_17
REMARK                            x       y       z     vdW  Elec       q    Type
REMARK                         _______ _______ _______ _____ _____    ______ ____
ROOT
ATOM      1  C   UNL     1      -4.037  -4.693   1.125  0.00  0.00    +0.125 A 
ATOM      2  C   UNL     1      -4.032  -6.083   1.049  0.00  0.00    +0.050 A 
ATOM      3  C   UNL     1      -5.192  -6.761   0.803  0.00  0.00    -0.033 A 
ATOM      4  C   UNL     1      -6.385  -6.059   0.629  0.00  0.00    +0.071 A 
ATOM      5  C   UNL     1      -6.403  -4.657   0.703  0.00  0.00    +0.143 A 
ATOM      6  C   UNL     1      -5.215  -3.982   0.958  0.00  0.00    +0.092 A 
ATOM      7  O   UNL     1      -7.660  -4.206   0.503  0.00  0.00    -0.451 OA
ATOM      8  C   UNL     1      -8.531  -5.221   0.291  0.00  0.00    +0.176 C 
ATOM      9  C   UNL     1      -9.864  -5.100   0.060  0.00  0.00    +0.061 C 
ATOM     10  C   UNL     1      -7.772  -6.478   0.358  0.00  0.00    +0.232 C 
ATOM     11  O   UNL     1      -8.195  -7.613   0.219  0.00  0.00    -0.283 OA
ATOM     12  C   UNL     1      -5.184  -8.266   0.721  0.00  0.00    +0.045 C 
ENDROOT
BRANCH   9  13
ATOM     13  C   UNL     1     -10.513  -3.789   0.179  0.00  0.00    +0.022 A 
ATOM     14  C   UNL     1      -9.743  -2.619   0.176  0.00  0.00    +0.027 A 
ATOM     15  C   UNL     1     -10.361  -1.393   0.289  0.00  0.00    +0.019 A 
ATOM     16  C   UNL     1     -11.739  -1.312   0.408  0.00  0.00    +0.024 A 
ATOM     17  C   UNL     1     -12.512  -2.459   0.413  0.00  0.00    +0.022 A 
ATOM     18  C   UNL     1     -11.911  -3.700   0.291  0.00  0.00    +0.136 A 
ATOM     19  O   UNL     1     -12.659  -4.833   0.278  0.00  0.00    -0.465 OA
ATOM     20  C   UNL     1     -14.005  -4.725   0.750  0.00  0.00    +0.395 C 
ATOM     21  O   UNL     1     -14.613  -3.582   0.138  0.00  0.00    -0.339 OA
ATOM     22  C   UNL     1     -14.010  -2.347   0.548  0.00  0.00    +0.202 C 
ATOM     23 BR   UNL     1      -9.322   0.188   0.283  0.00  0.00    -0.050 Br
ENDBRANCH   9  13
BRANCH   1  24
ATOM     24  O   UNL     1      -2.880  -4.028   1.369  0.00  0.00    -0.481 OA
BRANCH  24  25
ATOM     25  C   UNL     1      -2.953  -2.603   1.441  0.00  0.00    +0.349 C 
BRANCH  25  26
ATOM     26  C   UNL     1      -1.581  -2.042   1.717  0.00  0.00    +0.345 C 
ATOM     27  O   UNL     1      -0.638  -2.788   1.840  0.00  0.00    -0.247 OA
BRANCH  26  28
ATOM     28  O   UNL     1      -1.407  -0.716   1.827  0.00  0.00    -0.463 OA
BRANCH  28  30
ATOM     29  C   UNL     1      -0.080   1.272   2.180  0.00  0.00    +0.048 C 
ATOM     30  C   UNL     1      -0.080  -0.255   2.089  0.00  0.00    +0.229 C 
ENDBRANCH  28  30
ENDBRANCH  26  28
ENDBRANCH  25  26
ENDBRANCH  24  25
ENDBRANCH   1  24
TORSDOF 6
