REMARK  Name = ZINC38663974
REMARK  6 active torsions:
REMARK  status: ('A' for Active; 'I' for Inactive)
REMARK    1  A    between atoms: N_9  and  S_11
REMARK    2  A    between atoms: S_11  and  C_14
REMARK    3  A    between atoms: C_16  and  C_21
REMARK    4  A    between atoms: C_21  and  O_23
REMARK    5  A    between atoms: O_23  and  C_24
REMARK    6  A    between atoms: C_24  and  C_25
REMARK                            x       y       z     vdW  Elec       q    Type
REMARK                         _______ _______ _______ _____ _____    ______ ____
ROOT
ATOM      1  C   UNL     1       5.924  -3.529   0.278  0.00  0.00    +0.124 A 
ATOM      2  C   UNL     1       7.200  -3.059   0.503  0.00  0.00    +0.045 A 
ATOM      3  C   UNL     1       8.265  -3.546  -0.258  0.00  0.00    +0.061 A 
ATOM      4  C   UNL     1       8.029  -4.509  -1.242  0.00  0.00    +0.016 A 
ATOM      5  C   UNL     1       6.748  -4.971  -1.458  0.00  0.00    +0.023 A 
ATOM      6  C   UNL     1       5.697  -4.487  -0.696  0.00  0.00    +0.067 A 
ATOM      7 CL   UNL     1       4.088  -5.080  -0.968  0.00  0.00    -0.082 Cl
ENDROOT
BRANCH   1   8
ATOM      8  S   UNL     1       4.579  -2.915   1.237  0.00  0.00    +0.063 S 
ATOM      9  O   UNL     1       5.120  -1.940   2.118  0.00  0.00    -0.153 OA
ATOM     10  O   UNL     1       3.862  -4.049   1.704  0.00  0.00    -0.153 OA
BRANCH   8  19
ATOM     11  C   UNL     1      -0.017   1.375   0.010  0.00  0.00    +0.000 A 
ATOM     12  C   UNL     1       1.173   2.079   0.002  0.00  0.00    +0.000 A 
ATOM     13  C   UNL     1       2.372   1.396  -0.019  0.00  0.00    +0.005 A 
ATOM     14  C   UNL     1       2.392   0.008  -0.029  0.00  0.00    -0.028 A 
ATOM     15  C   UNL     1       1.208  -0.695  -0.011  0.00  0.00    -0.042 A 
ATOM     16  C   UNL     1       0.002  -0.004   0.002  0.00  0.00    +0.004 A 
ATOM     17  C   UNL     1       1.151  -2.200   0.010  0.00  0.00    +0.052 C 
ATOM     18  C   UNL     1       2.465  -2.801  -0.485  0.00  0.00    +0.114 C 
ATOM     19  N   UNL     1       3.568  -2.109   0.202  0.00  0.00    -0.172 NA
ATOM     20  C   UNL     1       3.735  -0.676  -0.066  0.00  0.00    +0.144 C 
ENDBRANCH   8  19
ENDBRANCH   1   8
BRANCH   3  21
ATOM     21  C   UNL     1       9.634  -3.047  -0.022  0.00  0.00    +0.340 C 
ATOM     22  O   UNL     1       9.837  -2.209   0.835  0.00  0.00    -0.245 OA
BRANCH  21  23
ATOM     23  O   UNL     1      10.660  -3.519  -0.758  0.00  0.00    -0.453 OA
BRANCH  23  24
ATOM     24  C   UNL     1      11.957  -2.991  -0.476  0.00  0.00    +0.305 C 
BRANCH  24  25
ATOM     25  C   UNL     1      12.970  -3.632  -1.390  0.00  0.00    +0.160 C 
ATOM     26  N   UNL     1      12.550  -4.523  -2.265  0.00  0.00    -0.161 NA
ATOM     27  C   UNL     1      13.309  -4.973  -3.273  0.00  0.00    +0.257 C 
ATOM     28  O   UNL     1      12.965  -5.919  -3.953  0.00  0.00    -0.272 OA
ATOM     29  C   UNL     1      14.598  -4.256  -3.523  0.00  0.00    +0.187 C 
ATOM     30  C   UNL     1      15.103  -3.733  -2.184  0.00  0.00    +0.066 C 
ATOM     31  N   UNL     1      14.242  -3.268  -1.280  0.00  0.00    -0.234 NA
ATOM     32  C   UNL     1      16.431  -4.025  -1.998  0.00  0.00    +0.032 C 
ATOM     33  C   UNL     1      17.092  -4.867  -2.836  0.00  0.00    +0.043 C 
ATOM     34  S   UNL     1      15.967  -5.353  -4.019  0.00  0.00    -0.114 S 
ENDBRANCH  24  25
ENDBRANCH  23  24
ENDBRANCH  21  23
ENDBRANCH   3  21
TORSDOF 6
