REMARK  Name = ZINC53118547
REMARK  6 active torsions:
REMARK  status: ('A' for Active; 'I' for Inactive)
REMARK    1  A    between atoms: C_1  and  C_2
REMARK    2  A    between atoms: C_5  and  C_8
REMARK    3  A    between atoms: C_5  and  N_10
REMARK    4  A    between atoms: C_8  and  O_9
REMARK    5  A    between atoms: N_10  and  C_11
REMARK    6  A    between atoms: C_16  and  O_18
REMARK                            x       y       z     vdW  Elec       q    Type
REMARK                         _______ _______ _______ _____ _____    ______ ____
ROOT
ATOM      1  C   UNL     1      -0.679   1.985   0.613  0.00  0.00    +0.007 C 
ATOM      2  C   UNL     1      -0.568   0.498   0.268  0.00  0.00    -0.014 C 
ATOM      3  C   UNL     1      -1.909  -0.189   0.535  0.00  0.00    +0.002 C 
ATOM      4  C   UNL     1      -1.798  -1.675   0.190  0.00  0.00    -0.010 C 
ATOM      5  C   UNL     1      -0.713  -2.320   1.055  0.00  0.00    -0.044 C 
ATOM      6  C   UNL     1       0.628  -1.633   0.788  0.00  0.00    -0.010 C 
ATOM      7  C   UNL     1       0.517  -0.146   1.133  0.00  0.00    +0.002 C 
ENDROOT
BRANCH   5   8
ATOM      8  N   UNL     1      -1.065  -2.171   2.474  0.00  0.00    +0.388 N 
ATOM      9  H   UNL     1      -0.304  -2.505   3.046  0.00  0.00    -0.084 HD
ATOM     10  H   UNL     1      -1.238  -1.198   2.677  0.00  0.00    -0.084 HD
BRANCH   8  11
ATOM     11  C   UNL     1      -2.275  -2.953   2.762  0.00  0.00    -0.042 C 
ATOM     12  C   UNL     1      -1.907  -4.424   3.078  0.00  0.00    -0.013 C 
ATOM     13  C   UNL     1      -3.118  -4.908   3.914  0.00  0.00    +0.001 C 
ATOM     14  C   UNL     1      -3.486  -3.690   4.786  0.00  0.00    +0.029 C 
ATOM     15  C   UNL     1      -2.952  -2.445   4.052  0.00  0.00    +0.101 C 
BRANCH  15  16
ATOM     16  O   UNL     1      -1.998  -1.766   4.871  0.00  0.00    -0.393 OA
ATOM     17  H   UNL     1      -2.363  -1.422   5.697  0.00  0.00    +0.210 HD
ENDBRANCH  15  16
ENDBRANCH   8  11
ENDBRANCH   5   8
BRANCH   5  18
ATOM     18  C   UNL     1      -0.602  -3.806   0.710  0.00  0.00    +0.143 C 
BRANCH  18  19
ATOM     19  O   UNL     1      -0.105  -3.950  -0.622  0.00  0.00    -0.396 OA
ATOM     20  H   UNL     1      -0.009  -4.869  -0.909  0.00  0.00    +0.209 HD
ENDBRANCH  18  19
ENDBRANCH   5  18
TORSDOF 5
