REMARK  Name = ZINC33474939
REMARK  13 active torsions:
REMARK  status: ('A' for Active; 'I' for Inactive)
REMARK    1  A    between atoms: C_1  and  C_2
REMARK    2  A    between atoms: C_2  and  N_3
REMARK    3  A    between atoms: C_4  and  N_26
REMARK    4  A    between atoms: C_5  and  C_13
REMARK    5  A    between atoms: C_6  and  C_12
REMARK    6  A    between atoms: C_7  and  C_10
REMARK    7  A    between atoms: N_17  and  C_21
REMARK    8  A    between atoms: C_21  and  C_22
REMARK    9  A    between atoms: C_22  and  C_23
REMARK   10  A    between atoms: C_23  and  C_24
REMARK   11  A    between atoms: C_23  and  C_25
REMARK   12  A    between atoms: C_28  and  C_35
REMARK   13  A    between atoms: C_31  and  C_34
REMARK                            x       y       z     vdW  Elec       q    Type
REMARK                         _______ _______ _______ _____ _____    ______ ____
ROOT
ATOM      1  N   UNL     1       2.949   5.350   0.372  0.00  0.00    -0.295 N 
ATOM      2  C   UNL     1       2.728   4.054   0.030  0.00  0.00    +0.112 A 
ATOM      3  C   UNL     1       3.794   3.228  -0.362  0.00  0.00    +0.019 A 
ATOM      4  C   UNL     1       5.096   3.756  -0.409  0.00  0.00    -0.017 A 
ATOM      5  C   UNL     1       5.296   5.086  -0.052  0.00  0.00    +0.120 A 
ATOM      6  C   UNL     1       4.186   5.877   0.342  0.00  0.00    +0.270 A 
ATOM      7  O   UNL     1       4.355   7.042   0.655  0.00  0.00    -0.266 OA
ATOM      8  C   UNL     1       6.257   2.893  -0.830  0.00  0.00    +0.046 C 
ENDROOT
BRANCH   3   9
ATOM      9  C   UNL     1       3.550   1.831  -0.725  0.00  0.00    +0.032 C 
ATOM     10  C   UNL     1       4.035   0.830   0.060  0.00  0.00    +0.077 C 
ATOM     11  C   UNL     1       3.869  -0.583  -0.065  0.00  0.00    +0.258 C 
ATOM     12  O   UNL     1       3.216  -1.060  -0.975  0.00  0.00    -0.269 OA
ATOM     13  N   UNL     1       4.447  -1.357   0.837  0.00  0.00    -0.255 N 
ATOM     14  C   UNL     1       5.173  -0.828   1.846  0.00  0.00    +0.121 C 
ATOM     15  S   UNL     1       6.000  -1.633   3.110  0.00  0.00    -0.027 S 
ATOM     16  S   UNL     1       5.057   0.925   1.523  0.00  0.00    -0.061 S 
BRANCH  13  17
ATOM     17  C   UNL     1       4.299  -2.812   0.740  0.00  0.00    +0.115 C 
BRANCH  17  18
ATOM     18  C   UNL     1       5.434  -3.385  -0.111  0.00  0.00    +0.022 C 
BRANCH  18  19
ATOM     19  C   UNL     1       5.280  -4.903  -0.211  0.00  0.00    -0.016 C 
ATOM     20  C   UNL     1       6.340  -5.462  -1.163  0.00  0.00    +0.007 C 
ATOM     21  C   UNL     1       5.459  -5.527   1.174  0.00  0.00    +0.007 C 
ENDBRANCH  18  19
ENDBRANCH  17  18
ENDBRANCH  13  17
ENDBRANCH   3   9
BRANCH   2  22
ATOM     22  N   UNL     1       1.461   3.550   0.072  0.00  0.00    -0.311 N 
ATOM     23  C   UNL     1       1.381   2.403   0.988  0.00  0.00    +0.137 C 
ATOM     24  C   UNL     1      -0.066   1.907   1.050  0.00  0.00    +0.133 C 
ATOM     25  O   UNL     1      -0.509   1.578  -0.269  0.00  0.00    -0.371 OA
ATOM     26  C   UNL     1      -0.445   2.672  -1.188  0.00  0.00    +0.133 C 
ATOM     27  C   UNL     1       0.998   3.176  -1.273  0.00  0.00    +0.137 C 
ATOM     28  C   UNL     1      -1.353   3.803  -0.699  0.00  0.00    +0.039 C 
ATOM     29  C   UNL     1      -0.142   0.664   1.940  0.00  0.00    +0.039 C 
ENDBRANCH   2  22
BRANCH   1  31
ATOM     30  C   UNL     1       1.630   6.082   2.298  0.00  0.00    +0.027 C 
ATOM     31  C   UNL     1       1.820   6.188   0.783  0.00  0.00    +0.123 C 
ENDBRANCH   1  31
BRANCH   5  32
ATOM     32  C   UNL     1       6.611   5.652  -0.082  0.00  0.00    +0.105 C 
ATOM     33  N   UNL     1       7.654   6.101  -0.106  0.00  0.00    -0.191 NA
ENDBRANCH   5  32
TORSDOF 7
