REMARK  Name = ZINC12432313
REMARK  12 active torsions:
REMARK  status: ('A' for Active; 'I' for Inactive)
REMARK    1  A    between atoms: C_1  and  C_2
REMARK    2  A    between atoms: C_2  and  O_3
REMARK    3  A    between atoms: O_3  and  C_4
REMARK    4  A    between atoms: C_7  and  C_10
REMARK    5  A    between atoms: C_10  and  N_68
REMARK    6  A    between atoms: C_11  and  C_12
REMARK    7  A    between atoms: C_11  and  N_68
REMARK    8  A    between atoms: C_12  and  O_13
REMARK    9  A    between atoms: O_13  and  C_14
REMARK   10  A    between atoms: C_15  and  C_16
REMARK   11  A    between atoms: C_15  and  N_68
REMARK   12  A    between atoms: C_22  and  N_70
REMARK                            x       y       z     vdW  Elec       q    Type
REMARK                         _______ _______ _______ _____ _____    ______ ____
ROOT
ATOM      1  C   UNL     1      -2.994   2.402   1.603  0.00  0.00    -0.077 C 
ENDROOT
BRANCH   1   2
ATOM      2  C   UNL     1      -3.390   2.552   3.073  0.00  0.00    -0.044 C 
ATOM      3  C   UNL     1      -2.868   3.888   3.609  0.00  0.00    -0.002 C 
ATOM      4  C   UNL     1      -3.320   4.058   5.062  0.00  0.00    -0.018 C 
ATOM      5  C   UNL     1      -4.847   3.981   5.128  0.00  0.00    -0.078 C 
ATOM      6  C   UNL     1      -4.915   2.518   3.197  0.00  0.00    -0.077 C 
ATOM      7  N   UNL     1      -5.284   2.663   4.622  0.00  0.00    +0.382 N 
ATOM      8  H   UNL     1      -4.816   1.926   5.163  0.00  0.00    -0.081 HD
BRANCH   7   9
ATOM      9  C   UNL     1      -6.745   2.519   4.781  0.00  0.00    -0.060 C 
ATOM     10  C   UNL     1      -7.103   2.363   6.275  0.00  0.00    +0.020 C 
ATOM     11  C   UNL     1      -8.258   1.386   6.305  0.00  0.00    -0.046 A 
ATOM     12  C   UNL     1      -9.177   1.114   7.305  0.00  0.00    +0.004 A 
ATOM     13  C   UNL     1     -10.161   0.166   7.106  0.00  0.00    +0.000 A 
ATOM     14  C   UNL     1     -10.229  -0.516   5.905  0.00  0.00    +0.000 A 
ATOM     15  C   UNL     1      -9.313  -0.246   4.907  0.00  0.00    +0.004 A 
ATOM     16  C   UNL     1      -8.326   0.705   5.105  0.00  0.00    -0.046 A 
ATOM     17  C   UNL     1      -7.221   1.178   4.185  0.00  0.00    +0.020 C 
ENDBRANCH   7   9
ENDBRANCH   1   2
BRANCH   1  18
ATOM     18  N   UNL     1      -1.519   2.356   1.512  0.00  0.00    +0.384 N 
ATOM     19  H   UNL     1      -1.124   3.059   2.147  0.00  0.00    -0.081 HD
BRANCH  18  20
ATOM     20  C   UNL     1      -1.030   1.020   1.911  0.00  0.00    -0.043 C 
BRANCH  20  24
ATOM     21  C   UNL     1       3.230   1.138   2.230  0.00  0.00    +0.121 A 
ATOM     22  C   UNL     1       2.442   1.451   3.328  0.00  0.00    +0.046 A 
ATOM     23  C   UNL     1       1.065   1.414   3.222  0.00  0.00    +0.005 A 
ATOM     24  C   UNL     1       0.472   1.065   2.022  0.00  0.00    -0.064 A 
ATOM     25  C   UNL     1       1.256   0.753   0.926  0.00  0.00    +0.005 A 
ATOM     26  C   UNL     1       2.633   0.789   1.028  0.00  0.00    +0.046 A 
BRANCH  21  27
ATOM     27  O   UNL     1       4.585   1.175   2.332  0.00  0.00    -0.492 OA
BRANCH  27  29
ATOM     28  C   UNL     1       6.829   0.937   1.467  0.00  0.00    +0.048 C 
ATOM     29  C   UNL     1       5.333   0.841   1.161  0.00  0.00    +0.225 C 
ENDBRANCH  27  29
ENDBRANCH  21  27
ENDBRANCH  20  24
ENDBRANCH  18  20
BRANCH  18  30
ATOM     30  C   UNL     1      -1.088   2.660   0.131  0.00  0.00    -0.050 C 
BRANCH  30  31
ATOM     31  C   UNL     1      -1.271   4.158  -0.122  0.00  0.00    +0.141 C 
BRANCH  31  32
ATOM     32  O   UNL     1      -0.446   4.898   0.780  0.00  0.00    -0.385 OA
ATOM     33  C   UNL     1      -0.457   6.309   0.555  0.00  0.00    +0.193 C 
ENDBRANCH  31  32
ENDBRANCH  30  31
ENDBRANCH  18  30
ENDBRANCH   1  18
TORSDOF 10
