REMARK  Name = ZINC62558127
REMARK  5 active torsions:
REMARK  status: ('A' for Active; 'I' for Inactive)
REMARK    1  A    between atoms: C_1  and  C_2
REMARK    2  A    between atoms: C_5  and  C_8
REMARK    3  A    between atoms: N_12  and  C_22
REMARK    4  A    between atoms: C_15  and  C_21
REMARK    5  A    between atoms: C_17  and  N_20
REMARK                            x       y       z     vdW  Elec       q    Type
REMARK                         _______ _______ _______ _____ _____    ______ ____
ROOT
ATOM      1  C   UNL     1       0.059  -4.275  -0.021  0.00  0.00    +0.289 C 
ATOM      2  C   UNL     1      -1.349  -4.796   0.106  0.00  0.00    +0.265 C 
ATOM      3  O   UNL     1      -2.007  -5.024  -0.888  0.00  0.00    -0.271 OA
ATOM      4  N   UNL     1      -1.877  -5.008   1.331  0.00  0.00    -0.268 N 
ATOM      5  C   UNL     1      -1.083  -4.771   2.463  0.00  0.00    +0.080 A 
ATOM      6  C   UNL     1      -1.659  -4.663   3.721  0.00  0.00    +0.030 A 
ATOM      7  C   UNL     1      -0.862  -4.430   4.826  0.00  0.00    -0.047 A 
ATOM      8  C   UNL     1       0.507  -4.303   4.684  0.00  0.00    +0.030 A 
ATOM      9  C   UNL     1       1.091  -4.410   3.429  0.00  0.00    +0.069 A 
ATOM     10  C   UNL     1       0.294  -4.643   2.314  0.00  0.00    +0.164 A 
ATOM     11  O   UNL     1       0.846  -4.747   1.075  0.00  0.00    -0.471 OA
ATOM     12  C   UNL     1      -1.489  -4.313   6.192  0.00  0.00    +0.044 C 
ATOM     13  C   UNL     1      -3.256  -5.479   1.476  0.00  0.00    +0.138 C 
ENDROOT
BRANCH   1  18
ATOM     14  C   UNL     1      -0.018   1.503   0.010  0.00  0.00    +0.044 C 
ATOM     15  C   UNL     1       0.002  -0.004   0.002  0.00  0.00    -0.050 A 
ATOM     16  C   UNL     1       0.006  -0.689  -1.199  0.00  0.00    +0.004 A 
ATOM     17  C   UNL     1       0.025  -2.071  -1.206  0.00  0.00    +0.008 A 
ATOM     18  C   UNL     1       0.040  -2.768  -0.013  0.00  0.00    +0.002 A 
ATOM     19  C   UNL     1       0.037  -2.084   1.188  0.00  0.00    +0.008 A 
ATOM     20  C   UNL     1       0.023  -0.702   1.195  0.00  0.00    +0.004 A 
ENDBRANCH   1  18
BRANCH   9  21
ATOM     21  N   UNL     1       2.478  -4.281   3.286  0.00  0.00    -0.355 N 
ATOM     22  H   UNL     1       3.033  -4.117   4.064  0.00  0.00    +0.142 HD
ATOM     23  H   UNL     1       2.884  -4.355   2.408  0.00  0.00    +0.142 HD
ENDBRANCH   9  21
TORSDOF 2
