REMARK  Name = ZINC39041031
REMARK  10 active torsions:
REMARK  status: ('A' for Active; 'I' for Inactive)
REMARK    1  A    between atoms: C_1  and  C_2
REMARK    2  A    between atoms: C_4  and  C_9
REMARK    3  A    between atoms: C_5  and  C_8
REMARK    4  A    between atoms: C_9  and  C_10
REMARK    5  A    between atoms: C_11  and  C_25
REMARK    6  A    between atoms: N_13  and  C_18
REMARK    7  A    between atoms: C_21  and  C_24
REMARK    8  A    between atoms: C_29  and  O_31
REMARK    9  A    between atoms: O_31  and  C_32
REMARK   10  A    between atoms: C_32  and  C_33
REMARK                            x       y       z     vdW  Elec       q    Type
REMARK                         _______ _______ _______ _____ _____    ______ ____
ROOT
ATOM      1  C   UNL     1      -0.998   0.505  -3.051  0.00  0.00    +0.076 C 
ATOM      2  C   UNL     1      -1.842   1.281  -2.067  0.00  0.00    +0.147 C 
ATOM      3  N   UNL     1      -2.982   1.805  -2.828  0.00  0.00    -0.261 N 
ATOM      4  C   UNL     1      -2.848   1.401  -4.104  0.00  0.00    +0.289 C 
ATOM      5  O   UNL     1      -3.623   1.661  -5.003  0.00  0.00    -0.266 OA
ATOM      6  C   UNL     1      -1.616   0.598  -4.253  0.00  0.00    +0.249 C 
ATOM      7  O   UNL     1      -1.177   0.041  -5.405  0.00  0.00    -0.282 OA
ENDROOT
BRANCH   3   8
ATOM      8  C   UNL     1      -4.074   2.623  -2.293  0.00  0.00    +0.208 C 
ATOM      9  C   UNL     1      -5.356   1.817  -2.204  0.00  0.00    +0.057 C 
ATOM     10  C   UNL     1      -6.121   2.162  -3.217  0.00  0.00    +0.121 C 
ATOM     11  O   UNL     1      -5.539   3.096  -4.007  0.00  0.00    -0.409 OA
ATOM     12  N   UNL     1      -4.432   3.709  -3.241  0.00  0.00    -0.131 NA
ATOM     13  C   UNL     1      -7.490   1.584  -3.470  0.00  0.00    +0.088 C 
ATOM     14  H   UNL     1      -3.654   3.935  -3.843  0.00  0.00    +0.170 HD
ENDBRANCH   3   8
BRANCH   2  15
ATOM     15  C   UNL     1      -1.043   2.417  -1.481  0.00  0.00    -0.019 A 
ATOM     16  C   UNL     1      -0.787   3.544  -2.240  0.00  0.00    +0.006 A 
ATOM     17  C   UNL     1      -0.054   4.588  -1.706  0.00  0.00    +0.004 A 
ATOM     18  C   UNL     1       0.425   4.506  -0.412  0.00  0.00    +0.045 A 
ATOM     19  C   UNL     1       0.170   3.376   0.351  0.00  0.00    +0.121 A 
ATOM     20  C   UNL     1      -0.571   2.333  -0.186  0.00  0.00    +0.051 A 
BRANCH  19  21
ATOM     21  O   UNL     1       0.640   3.293   1.623  0.00  0.00    -0.488 OA
BRANCH  21  22
ATOM     22  C   UNL     1       1.390   4.408   2.111  0.00  0.00    +0.256 C 
BRANCH  22  23
ATOM     23  C   UNL     1       1.825   4.138   3.528  0.00  0.00    +0.006 C 
ATOM     24  C   UNL     1       3.055   4.399   3.897  0.00  0.00    +0.007 C 
ENDBRANCH  22  23
ENDBRANCH  21  22
ENDBRANCH  19  21
ENDBRANCH   2  15
BRANCH   1  25
ATOM     25  C   UNL     1       0.252  -0.205  -2.763  0.00  0.00    +0.193 C 
ATOM     26  O   UNL     1       1.271   0.423  -2.541  0.00  0.00    -0.287 OA
BRANCH  25  29
ATOM     27  C   UNL     1      -1.910  -2.374  -1.756  0.00  0.00    +0.035 C 
ATOM     28  C   UNL     1      -0.907  -2.609  -2.887  0.00  0.00    +0.110 C 
ATOM     29  C   UNL     1       0.274  -1.675  -2.742  0.00  0.00    +0.026 C 
ATOM     30  C   UNL     1       1.354  -2.472  -2.590  0.00  0.00    -0.026 C 
ATOM     31  C   UNL     1       0.926  -3.871  -2.630  0.00  0.00    +0.082 C 
ATOM     32  N   UNL     1      -0.351  -3.965  -2.799  0.00  0.00    -0.383 N 
ATOM     33  C   UNL     1       2.773  -1.997  -2.409  0.00  0.00    +0.046 C 
ATOM     34  H   UNL     1      -0.858  -4.790  -2.857  0.00  0.00    +0.160 HD
ENDBRANCH  25  29
ENDBRANCH   1  25
TORSDOF 7
