REMARK  Name = ZINC40691512
REMARK  2 active torsions:
REMARK  status: ('A' for Active; 'I' for Inactive)
REMARK    1  A    between atoms: C_6  and  S_10
REMARK    2  A    between atoms: S_10  and  N_13
REMARK                            x       y       z     vdW  Elec       q    Type
REMARK                         _______ _______ _______ _____ _____    ______ ____
ROOT
ATOM      1  S   UNL     1      -2.667  -0.909   0.023  0.00  0.00    +0.097 S 
ATOM      2  O   UNL     1      -3.171  -2.119   0.572  0.00  0.00    -0.148 OA
ATOM      3  O   UNL     1      -2.962   0.363   0.584  0.00  0.00    -0.148 OA
ENDROOT
BRANCH   1   9
ATOM      4  C   UNL     1      -0.017   1.374   0.010  0.00  0.00    +0.102 A 
ATOM      5  C   UNL     1       1.118   2.071   0.003  0.00  0.00    +0.067 A 
ATOM      6  S   UNL     1       2.347   0.776  -0.016  0.00  0.00    -0.058 S 
ATOM      7  C   UNL     1       1.231  -0.608  -0.013  0.00  0.00    +0.180 A 
ATOM      8  N   UNL     1       0.002  -0.004   0.002  0.00  0.00    -0.276 N 
ATOM      9  C   UNL     1      -0.911  -1.056   0.005  0.00  0.00    +0.221 A 
ATOM     10  C   UNL     1      -0.212  -2.204  -0.008  0.00  0.00    +0.176 A 
ATOM     11  N   UNL     1       1.096  -1.903  -0.018  0.00  0.00    -0.208 NA
ATOM     12 CL   UNL     1      -0.885  -3.804  -0.011  0.00  0.00    -0.058 Cl
ENDBRANCH   1   9
BRANCH   1  13
ATOM     13  N   UNL     1      -3.170  -0.859  -1.554  0.00  0.00    -0.153 N 
ATOM     14  C   UNL     1      -3.324   0.360  -2.361  0.00  0.00    +0.155 C 
ATOM     15  C   UNL     1      -3.809  -0.161  -3.728  0.00  0.00    +0.126 C 
ATOM     16  N   UNL     1      -3.878  -1.618  -3.545  0.00  0.00    -0.296 N 
ATOM     17  C   UNL     1      -3.497  -1.924  -2.298  0.00  0.00    +0.322 C 
ATOM     18  O   UNL     1      -3.455  -3.064  -1.879  0.00  0.00    -0.251 OA
ATOM     19  H   UNL     1      -4.152  -2.257  -4.222  0.00  0.00    +0.150 HD
ENDBRANCH   1  13
TORSDOF 2
