REMARK  Name = ZINC09086806
REMARK  4 active torsions:
REMARK  status: ('A' for Active; 'I' for Inactive)
REMARK    1  A    between atoms: C_11  and  C_13
REMARK    2  A    between atoms: C_13  and  C_14
REMARK    3  A    between atoms: C_13  and  C_33
REMARK    4  A    between atoms: C_14  and  C_15
REMARK                            x       y       z     vdW  Elec       q    Type
REMARK                         _______ _______ _______ _____ _____    ______ ____
ROOT
ATOM      1  C   UNL     1       3.153   9.366  -1.609  0.00  0.00    +0.187 C 
ATOM      2  O   UNL     1       4.128   9.693  -2.485  0.00  0.00    -0.290 OA
ENDROOT
BRANCH   1   3
ATOM      3  C   UNL     1       2.966   7.962  -1.206  0.00  0.00    +0.021 A 
ATOM      4  C   UNL     1       4.063   7.198  -0.792  0.00  0.00    +0.012 A 
ATOM      5  C   UNL     1       3.885   5.888  -0.415  0.00  0.00    +0.014 A 
ATOM      6  C   UNL     1       2.608   5.309  -0.445  0.00  0.00    +0.048 A 
ATOM      7  C   UNL     1       1.516   6.074  -0.860  0.00  0.00    +0.105 A 
ATOM      8  C   UNL     1       1.692   7.387  -1.237  0.00  0.00    +0.039 A 
ATOM      9  S   UNL     1      -0.097   5.367  -0.906  0.00  0.00    +0.026 S 
ATOM     10  O   UNL     1      -0.745   5.754   0.298  0.00  0.00    -0.164 OA
ATOM     11  O   UNL     1      -0.633   5.661  -2.189  0.00  0.00    -0.164 OA
ATOM     12  C   UNL     1       0.101   3.618  -0.832  0.00  0.00    +0.104 A 
ATOM     13  C   UNL     1      -0.951   2.796  -1.184  0.00  0.00    +0.028 A 
ATOM     14  C   UNL     1      -0.808   1.421  -1.138  0.00  0.00    +0.002 A 
ATOM     15  C   UNL     1       0.389   0.861  -0.727  0.00  0.00    +0.001 A 
ATOM     16  C   UNL     1       1.446   1.670  -0.372  0.00  0.00    +0.013 A 
ATOM     17  C   UNL     1       1.312   3.064  -0.421  0.00  0.00    +0.047 A 
ATOM     18  C   UNL     1       2.453   3.906  -0.033  0.00  0.00    +0.197 C 
ATOM     19  O   UNL     1       3.317   3.415   0.667  0.00  0.00    -0.287 OA
ENDBRANCH   1   3
BRANCH   1  20
ATOM     20  C   UNL     1       2.329  10.352  -1.091  0.00  0.00    +0.228 C 
BRANCH  20  31
ATOM     21  C   UNL     1       2.275  15.758  -4.429  0.00  0.00    +0.001 A 
ATOM     22  C   UNL     1       1.855  14.695  -5.220  0.00  0.00    +0.002 A 
ATOM     23  C   UNL     1       1.786  13.428  -4.715  0.00  0.00    +0.028 A 
ATOM     24  C   UNL     1       2.141  13.189  -3.383  0.00  0.00    +0.078 A 
ATOM     25  C   UNL     1       2.569  14.270  -2.578  0.00  0.00    +0.065 A 
ATOM     26  C   UNL     1       2.632  15.555  -3.114  0.00  0.00    +0.015 A 
ATOM     27  C   UNL     1       2.937  13.994  -1.182  0.00  0.00    +0.259 A 
ATOM     28  O   UNL     1       3.312  14.884  -0.440  0.00  0.00    -0.267 OA
ATOM     29  N   UNL     1       2.837  12.716  -0.750  0.00  0.00    -0.309 N 
ATOM     30  H   UNL     1       3.067  12.497   0.167  0.00  0.00    +0.170 HD
ATOM     31  C   UNL     1       2.417  11.727  -1.601  0.00  0.00    +0.135 A 
ATOM     32  N   UNL     1       2.084  11.954  -2.850  0.00  0.00    -0.232 NA
ENDBRANCH  20  31
BRANCH  20  33
ATOM     33  C   UNL     1       1.392  10.030  -0.057  0.00  0.00    +0.082 C 
ATOM     34  N   UNL     1       0.649   9.775   0.764  0.00  0.00    -0.195 NA
ENDBRANCH  20  33
ENDBRANCH   1  20
TORSDOF 4
