REMARK  Name = ZINC36005229
REMARK  12 active torsions:
REMARK  status: ('A' for Active; 'I' for Inactive)
REMARK    1  A    between atoms: C_1  and  C_2
REMARK    2  A    between atoms: C_2  and  O_3
REMARK    3  A    between atoms: O_3  and  C_4
REMARK    4  A    between atoms: C_4  and  C_6
REMARK    5  A    between atoms: C_7  and  C_24
REMARK    6  A    between atoms: N_8  and  C_23
REMARK    7  A    between atoms: C_12  and  C_14
REMARK    8  A    between atoms: C_17  and  C_20
REMARK    9  A    between atoms: C_20  and  C_21
REMARK   10  A    between atoms: C_20  and  C_22
REMARK   11  A    between atoms: C_24  and  N_25
REMARK   12  A    between atoms: C_31  and  C_33
REMARK                            x       y       z     vdW  Elec       q    Type
REMARK                         _______ _______ _______ _____ _____    ______ ____
ROOT
ATOM      1  C   UNL     1       1.215  -2.214  -2.491  0.00  0.00    +0.080 C 
ATOM      2  C   UNL     1       1.534  -3.525  -2.540  0.00  0.00    +0.041 C 
ATOM      3  N   UNL     1       2.291  -4.029  -3.559  0.00  0.00    -0.260 N 
ATOM      4  C   UNL     1       2.769  -3.287  -4.566  0.00  0.00    +0.307 C 
ATOM      5  O   UNL     1       3.434  -3.825  -5.428  0.00  0.00    -0.252 OA
ATOM      6  N   UNL     1       2.535  -1.963  -4.654  0.00  0.00    -0.288 N 
ATOM      7  C   UNL     1       1.722  -1.323  -3.607  0.00  0.00    +0.144 C 
ATOM      8  C   UNL     1       2.599  -5.461  -3.549  0.00  0.00    +0.139 C 
ATOM      9  H   UNL     1       2.891  -1.444  -5.393  0.00  0.00    +0.151 HD
ENDROOT
BRANCH   7  10
ATOM     10  C   UNL     1       2.550  -0.227  -2.987  0.00  0.00    -0.022 A 
ATOM     11  C   UNL     1       3.859  -0.475  -2.618  0.00  0.00    +0.006 A 
ATOM     12  C   UNL     1       4.619   0.530  -2.050  0.00  0.00    +0.004 A 
ATOM     13  C   UNL     1       4.070   1.783  -1.850  0.00  0.00    -0.045 A 
ATOM     14  C   UNL     1       2.761   2.031  -2.219  0.00  0.00    +0.004 A 
ATOM     15  C   UNL     1       2.002   1.027  -2.791  0.00  0.00    +0.006 A 
BRANCH  13  16
ATOM     16  C   UNL     1       4.898   2.878  -1.229  0.00  0.00    +0.013 C 
ATOM     17  C   UNL     1       5.005   4.052  -2.204  0.00  0.00    +0.012 C 
ATOM     18  C   UNL     1       4.231   3.350   0.065  0.00  0.00    +0.012 C 
ENDBRANCH  13  16
ENDBRANCH   7  10
BRANCH   1  19
ATOM     19  C   UNL     1       0.430  -1.691  -1.436  0.00  0.00    +0.339 C 
ATOM     20  O   UNL     1      -0.737  -1.409  -1.629  0.00  0.00    -0.245 OA
BRANCH  19  21
ATOM     21  O   UNL     1       0.977  -1.506  -0.216  0.00  0.00    -0.462 OA
BRANCH  21  23
ATOM     22  C   UNL     1       0.916  -0.836   2.105  0.00  0.00    +0.048 C 
ATOM     23  C   UNL     1       0.126  -0.974   0.801  0.00  0.00    +0.229 C 
ENDBRANCH  21  23
ENDBRANCH  19  21
ENDBRANCH   1  19
BRANCH   2  24
ATOM     24  C   UNL     1       1.046  -4.448  -1.453  0.00  0.00    +0.136 C 
BRANCH  24  25
ATOM     25  N   UNL     1       0.123  -5.436  -2.026  0.00  0.00    -0.294 NA
ATOM     26  C   UNL     1      -1.100  -4.789  -2.521  0.00  0.00    +0.104 C 
ATOM     27  C   UNL     1      -1.952  -5.820  -3.270  0.00  0.00    +0.123 C 
ATOM     28  N   UNL     1      -2.172  -6.975  -2.386  0.00  0.00    -0.293 N 
ATOM     29  C   UNL     1      -1.002  -7.593  -1.744  0.00  0.00    +0.123 C 
ATOM     30  C   UNL     1      -0.188  -6.493  -1.054  0.00  0.00    +0.104 C 
ATOM     31  C   UNL     1      -3.413  -7.455  -2.172  0.00  0.00    +0.282 C 
ATOM     32  O   UNL     1      -4.362  -6.974  -2.764  0.00  0.00    -0.267 OA
BRANCH  31  33
ATOM     33  C   UNL     1      -3.620  -8.556  -1.226  0.00  0.00    +0.189 A 
ATOM     34  C   UNL     1      -4.827  -9.047  -0.818  0.00  0.00    +0.054 A 
ATOM     35  C   UNL     1      -4.556 -10.089   0.082  0.00  0.00    +0.042 A 
ATOM     36  C   UNL     1      -3.212 -10.188   0.182  0.00  0.00    +0.196 A 
ATOM     37  O   UNL     1      -2.652  -9.265  -0.611  0.00  0.00    -0.458 OA
ENDBRANCH  31  33
ENDBRANCH  24  25
ENDBRANCH   2  24
TORSDOF 8
