REMARK  Name = ZINC04004711
REMARK  11 active torsions:
REMARK  status: ('A' for Active; 'I' for Inactive)
REMARK    1  A    between atoms: C_1  and  C_2
REMARK    2  A    between atoms: C_5  and  N_8
REMARK    3  A    between atoms: N_8  and  C_9
REMARK    4  A    between atoms: C_10  and  C_31
REMARK    5  A    between atoms: C_11  and  C_22
REMARK    6  A    between atoms: C_13  and  C_19
REMARK    7  A    between atoms: C_15  and  C_17
REMARK    8  A    between atoms: C_15  and  O_18
REMARK    9  A    between atoms: C_19  and  C_21
REMARK   10  A    between atoms: C_25  and  N_28
REMARK   11  A    between atoms: C_31  and  C_33
REMARK                            x       y       z     vdW  Elec       q    Type
REMARK                         _______ _______ _______ _____ _____    ______ ____
ROOT
ATOM      1  C   UNL     1       4.865   0.017  -0.133  0.00  0.00    +0.018 C 
ATOM      2  C   UNL     1       4.896   1.323   0.181  0.00  0.00    +0.020 C 
ATOM      3  C   UNL     1       6.166   2.085   0.424  0.00  0.00    +0.067 C 
ATOM      4  C   UNL     1       7.322   1.116   0.677  0.00  0.00    +0.098 C 
ATOM      5  C   UNL     1       7.331   0.062  -0.436  0.00  0.00    +0.079 C 
ATOM      6  C   UNL     1       6.097  -0.828  -0.275  0.00  0.00    +0.086 C 
ATOM      7  C   UNL     1       7.289   0.756  -1.800  0.00  0.00    +0.042 C 
ENDROOT
BRANCH   3   8
ATOM      8  C   UNL     1       5.993   2.981   1.624  0.00  0.00    -0.039 A 
ATOM      9  C   UNL     1       5.765   2.430   2.871  0.00  0.00    +0.006 A 
ATOM     10  C   UNL     1       5.611   3.252   3.972  0.00  0.00    +0.033 A 
ATOM     11  C   UNL     1       5.675   4.625   3.824  0.00  0.00    +0.126 A 
ATOM     12  C   UNL     1       5.897   5.176   2.576  0.00  0.00    +0.033 A 
ATOM     13  C   UNL     1       6.056   4.354   1.476  0.00  0.00    +0.006 A 
BRANCH  11  14
ATOM     14  N   UNL     1       5.506   5.505   5.002  0.00  0.00    +0.056 N 
ATOM     15  O   UNL     1       5.563   6.714   4.872  0.00  0.00    -0.126 OA
ATOM     16  O   UNL     1       5.310   5.019   6.102  0.00  0.00    -0.126 OA
ENDBRANCH  11  14
ENDBRANCH   3   8
BRANCH   4  17
ATOM     17  C   UNL     1       8.628   1.869   0.672  0.00  0.00    +0.137 C 
ATOM     18  O   UNL     1       8.718   2.917   0.078  0.00  0.00    -0.297 OA
ATOM     19  C   UNL     1       9.821   1.314   1.407  0.00  0.00    +0.086 C 
ENDBRANCH   4  17
BRANCH   2  20
ATOM     20  C   UNL     1       3.678   2.008   0.292  0.00  0.00    +0.158 C 
ATOM     21  O   UNL     1       2.902   1.727   1.185  0.00  0.00    -0.293 OA
ATOM     22  C   UNL     1       3.330   3.092  -0.695  0.00  0.00    +0.091 C 
ENDBRANCH   2  20
BRANCH   1  23
ATOM     23  N   UNL     1       3.651  -0.569  -0.339  0.00  0.00    -0.317 N 
ATOM     24  H   UNL     1       2.999  -0.599   0.378  0.00  0.00    +0.152 HD
BRANCH  23  29
ATOM     25  C   UNL     1       2.422  -2.842  -5.388  0.00  0.00    +0.044 C 
ATOM     26  C   UNL     1       2.746  -2.234  -4.048  0.00  0.00    -0.050 A 
ATOM     27  C   UNL     1       3.900  -1.489  -3.889  0.00  0.00    +0.005 A 
ATOM     28  C   UNL     1       4.204  -0.936  -2.661  0.00  0.00    +0.023 A 
ATOM     29  C   UNL     1       3.348  -1.128  -1.583  0.00  0.00    +0.031 A 
ATOM     30  C   UNL     1       2.189  -1.878  -1.746  0.00  0.00    +0.023 A 
ATOM     31  C   UNL     1       1.892  -2.428  -2.977  0.00  0.00    +0.005 A 
ENDBRANCH  23  29
ENDBRANCH   1  23
BRANCH   5  32
ATOM     32  O   UNL     1       8.513  -0.734  -0.339  0.00  0.00    -0.388 OA
ATOM     33  H   UNL     1       8.576  -1.429  -1.008  0.00  0.00    +0.210 HD
ENDBRANCH   5  32
TORSDOF 7
