REMARK  Name = ZINC62525696
REMARK  11 active torsions:
REMARK  status: ('A' for Active; 'I' for Inactive)
REMARK    1  A    between atoms: C_1  and  C_2
REMARK    2  A    between atoms: C_2  and  C_3
REMARK    3  A    between atoms: C_3  and  C_4
REMARK    4  A    between atoms: C_3  and  N_5
REMARK    5  A    between atoms: C_6  and  C_8
REMARK    6  A    between atoms: C_8  and  C_9
REMARK    7  A    between atoms: C_8  and  N_10
REMARK    8  A    between atoms: C_19  and  C_21
REMARK    9  A    between atoms: C_21  and  C_22
REMARK   10  A    between atoms: C_21  and  C_23
REMARK   11  A    between atoms: C_21  and  C_24
REMARK                            x       y       z     vdW  Elec       q    Type
REMARK                         _______ _______ _______ _____ _____    ______ ____
ROOT
ATOM      1  N   UNL     1       5.981   0.844   2.704  0.00  0.00    -0.288 N 
ATOM      2  C   UNL     1       7.030   1.541   3.184  0.00  0.00    +0.303 C 
ATOM      3  O   UNL     1       7.820   2.057   2.416  0.00  0.00    -0.253 OA
ATOM      4  N   UNL     1       7.205   1.667   4.514  0.00  0.00    -0.283 N 
ATOM      5  C   UNL     1       6.334   0.946   5.454  0.00  0.00    +0.128 C 
ATOM      6  C   UNL     1       7.212   0.110   6.393  0.00  0.00    +0.127 C 
ATOM      7  N   UNL     1       8.276   0.969   6.930  0.00  0.00    -0.298 N 
ATOM      8  C   UNL     1       9.147   1.690   5.991  0.00  0.00    +0.127 C 
ATOM      9  C   UNL     1       8.272   2.522   5.052  0.00  0.00    +0.128 C 
ATOM     10  C   UNL     1       8.451   1.095   8.261  0.00  0.00    +0.221 C 
ATOM     11  O   UNL     1       7.782   0.432   9.025  0.00  0.00    -0.275 OA
ATOM     12  H   UNL     1       5.393   0.373   3.314  0.00  0.00    +0.151 HD
ENDROOT
BRANCH  10  13
ATOM     13  C   UNL     1       9.477   2.059   8.799  0.00  0.00    +0.039 C 
ATOM     14  C   UNL     1       9.421   2.062  10.328  0.00  0.00    +0.020 C 
ATOM     15  C   UNL     1      10.871   1.627   8.341  0.00  0.00    +0.020 C 
ATOM     16  C   UNL     1       9.180   3.465   8.274  0.00  0.00    +0.020 C 
ENDBRANCH  10  13
BRANCH   1  17
ATOM     17  C   UNL     1       5.730   0.799   1.262  0.00  0.00    +0.157 C 
ATOM     18  C   UNL     1       6.569  -0.314   0.632  0.00  0.00    +0.038 C 
BRANCH  17  20
ATOM     19  N   UNL     1       3.802   0.441  -0.246  0.00  0.00    -0.311 N 
ATOM     20  C   UNL     1       4.268   0.527   1.015  0.00  0.00    +0.233 C 
ATOM     21  O   UNL     1       3.511   0.384   1.952  0.00  0.00    -0.274 OA
ATOM     22  H   UNL     1       4.407   0.555  -0.996  0.00  0.00    +0.149 HD
BRANCH  19  23
ATOM     23  C   UNL     1       2.381   0.176  -0.486  0.00  0.00    +0.070 C 
ATOM     24  C   UNL     1       2.130  -1.332  -0.447  0.00  0.00    +0.028 C 
BRANCH  23  26
ATOM     25  C   UNL     1       2.118   2.248  -1.857  0.00  0.00    +0.005 C 
ATOM     26  C   UNL     1       1.985   0.724  -1.859  0.00  0.00    +0.018 C 
ENDBRANCH  23  26
ENDBRANCH  19  23
ENDBRANCH  17  20
ENDBRANCH   1  17
TORSDOF 5
