REMARK  Name = ZINC35564780
REMARK  6 active torsions:
REMARK  status: ('A' for Active; 'I' for Inactive)
REMARK    1  A    between atoms: C_4  and  O_36
REMARK    2  A    between atoms: C_5  and  C_7
REMARK    3  A    between atoms: C_7  and  N_8
REMARK    4  A    between atoms: C_21  and  C_23
REMARK    5  A    between atoms: C_23  and  N_24
REMARK    6  A    between atoms: N_27  and  C_30
REMARK                            x       y       z     vdW  Elec       q    Type
REMARK                         _______ _______ _______ _____ _____    ______ ____
ROOT
ATOM      1  N   UNL     1       3.299  -4.239   5.112  0.00  0.00    +0.384 N 
ATOM      2  C   UNL     1       2.449  -3.161   5.613  0.00  0.00    -0.077 C 
ATOM      3  C   UNL     1       2.096  -2.233   4.471  0.00  0.00    +0.000 C 
ATOM      4  C   UNL     1       0.752  -2.665   3.857  0.00  0.00    +0.106 C 
ATOM      5  N   UNL     1       0.651  -4.137   3.781  0.00  0.00    -0.303 N 
ATOM      6  C   UNL     1       1.765  -4.970   3.376  0.00  0.00    +0.089 C 
ATOM      7  C   UNL     1       2.603  -5.364   4.615  0.00  0.00    -0.059 C 
ATOM      8  C   UNL     1      -0.537  -4.735   4.104  0.00  0.00    +0.198 A 
ATOM      9  N   UNL     1      -0.610  -6.092   4.152  0.00  0.00    -0.295 N 
ATOM     10  H   UNL     1       0.174  -6.630   3.960  0.00  0.00    +0.172 HD
ATOM     11  C   UNL     1      -1.779  -6.690   4.471  0.00  0.00    +0.253 A 
ATOM     12  O   UNL     1      -1.862  -7.906   4.520  0.00  0.00    -0.268 OA
ATOM     13  C   UNL     1      -2.897  -5.883   4.746  0.00  0.00    +0.094 A 
ATOM     14  C   UNL     1      -2.764  -4.526   4.681  0.00  0.00    +0.064 A 
ATOM     15  N   UNL     1      -1.589  -3.985   4.367  0.00  0.00    -0.219 NA
ATOM     16  H   UNL     1       3.876  -3.869   4.372  0.00  0.00    -0.081 HD
ENDROOT
BRANCH   1  17
ATOM     17  C   UNL     1       4.176  -4.683   6.204  0.00  0.00    -0.039 C 
BRANCH  17  22
ATOM     18  C   UNL     1       6.053  -7.828   5.289  0.00  0.00    +0.000 A 
ATOM     19  C   UNL     1       7.167  -7.314   4.650  0.00  0.00    +0.004 A 
ATOM     20  C   UNL     1       7.315  -5.947   4.513  0.00  0.00    +0.045 A 
ATOM     21  C   UNL     1       6.346  -5.091   5.016  0.00  0.00    +0.118 A 
ATOM     22  C   UNL     1       5.230  -5.610   5.656  0.00  0.00    -0.022 A 
ATOM     23  C   UNL     1       5.086  -6.977   5.791  0.00  0.00    +0.005 A 
BRANCH  21  24
ATOM     24  O   UNL     1       6.491  -3.746   4.883  0.00  0.00    -0.507 OA
ATOM     25  H   UNL     1       6.104  -3.388   4.072  0.00  0.00    +0.292 HD
ENDBRANCH  21  24
ENDBRANCH  17  22
ENDBRANCH   1  17
BRANCH  14  26
ATOM     26  C   UNL     1      -3.947  -3.639   4.971  0.00  0.00    +0.140 C 
BRANCH  26  27
ATOM     27  N   UNL     1      -3.683  -2.852   6.183  0.00  0.00    -0.300 NA
ATOM     28  C   UNL     1      -3.604  -3.718   7.367  0.00  0.00    +0.066 C 
ATOM     29  C   UNL     1      -3.270  -2.868   8.595  0.00  0.00    -0.063 C 
ATOM     30  N   UNL     1      -4.310  -1.848   8.783  0.00  0.00    +0.383 N 
ATOM     31  C   UNL     1      -4.360  -0.975   7.602  0.00  0.00    -0.063 C 
ATOM     32  C   UNL     1      -4.703  -1.809   6.365  0.00  0.00    +0.066 C 
ATOM     33  H   UNL     1      -5.204  -2.298   8.906  0.00  0.00    -0.081 HD
BRANCH  30  34
ATOM     34  C   UNL     1      -3.998  -1.044   9.972  0.00  0.00    -0.068 C 
ATOM     35  C   UNL     1      -3.947  -1.952  11.202  0.00  0.00    -0.015 C 
ATOM     36  C   UNL     1      -3.623  -1.115  12.441  0.00  0.00    -0.002 C 
ATOM     37  C   UNL     1      -4.705  -0.052  12.636  0.00  0.00    -0.000 C 
ATOM     38  C   UNL     1      -4.756   0.856  11.406  0.00  0.00    -0.002 C 
ATOM     39  C   UNL     1      -5.081   0.019  10.167  0.00  0.00    -0.015 C 
ENDBRANCH  30  34
ENDBRANCH  26  27
ENDBRANCH  14  26
TORSDOF 6
