REMARK  Name = ZINC20715147
REMARK  8 active torsions:
REMARK  status: ('A' for Active; 'I' for Inactive)
REMARK    1  A    between atoms: C_1  and  O_2
REMARK    2  A    between atoms: O_2  and  C_3
REMARK    3  A    between atoms: C_6  and  C_11
REMARK    4  A    between atoms: C_8  and  O_9
REMARK    5  A    between atoms: O_9  and  C_10
REMARK    6  A    between atoms: C_21  and  N_29
REMARK    7  A    between atoms: C_24  and  O_27
REMARK    8  A    between atoms: O_27  and  C_28
REMARK                            x       y       z     vdW  Elec       q    Type
REMARK                         _______ _______ _______ _____ _____    ______ ____
ROOT
ATOM      1  C   UNL     1      -2.383   3.719  -0.026  0.00  0.00    +0.105 C 
ATOM      2  C   UNL     1      -2.986   3.661   1.362  0.00  0.00    +0.029 C 
ATOM      3  C   UNL     1      -2.120   4.118   2.542  0.00  0.00    +0.033 C 
ATOM      4  C   UNL     1      -2.676   3.257   3.679  0.00  0.00    -0.030 C 
ATOM      5  C   UNL     1      -3.203   2.142   3.187  0.00  0.00    -0.023 C 
ATOM      6  C   UNL     1      -3.015   2.141   1.715  0.00  0.00    +0.051 C 
ATOM      7  C   UNL     1      -3.980   1.509   0.789  0.00  0.00    +0.014 A 
ATOM      8  C   UNL     1      -4.753   0.431   1.171  0.00  0.00    +0.132 A 
ATOM      9  C   UNL     1      -5.636  -0.151   0.282  0.00  0.00    +0.037 A 
ATOM     10  C   UNL     1      -5.745   0.350  -1.002  0.00  0.00    +0.050 A 
ATOM     11  C   UNL     1      -4.981   1.432  -1.392  0.00  0.00    +0.141 A 
ATOM     12  C   UNL     1      -4.087   2.035  -0.499  0.00  0.00    +0.076 A 
ATOM     13  N   UNL     1      -3.373   3.148  -0.953  0.00  0.00    -0.334 N 
ATOM     14  H   UNL     1      -3.520   3.598  -1.946  0.00  0.00    +0.147 HD
ENDROOT
BRANCH   1  18
ATOM     15  C   UNL     1       1.220   1.418  -0.149  0.00  0.00    +0.162 A 
ATOM     16  C   UNL     1       0.015   0.846  -0.526  0.00  0.00    +0.050 A 
ATOM     17  C   UNL     1      -1.147   1.594  -0.490  0.00  0.00    +0.009 A 
ATOM     18  C   UNL     1      -1.113   2.910  -0.069  0.00  0.00    -0.023 A 
ATOM     19  C   UNL     1       0.086   3.487   0.309  0.00  0.00    +0.055 A 
ATOM     20  C   UNL     1       1.255   2.744   0.271  0.00  0.00    +0.162 A 
BRANCH  15  22
ATOM     21  C   UNL     1       2.253  -0.669  -0.630  0.00  0.00    +0.277 C 
ATOM     22  O   UNL     1       2.364   0.685  -0.189  0.00  0.00    -0.491 OA
ENDBRANCH  15  22
BRANCH  20  23
ATOM     23  O   UNL     1       2.434   3.311   0.642  0.00  0.00    -0.491 OA
ATOM     24  C   UNL     1       2.395   4.676   1.062  0.00  0.00    +0.277 C 
ENDBRANCH  20  23
ENDBRANCH   1  18
BRANCH   8  25
ATOM     25  N   UNL     1      -4.634  -0.106   2.545  0.00  0.00    +0.057 N 
ATOM     26  O   UNL     1      -3.538  -0.384   2.998  0.00  0.00    -0.126 OA
ATOM     27  O   UNL     1      -5.633  -0.271   3.223  0.00  0.00    -0.126 OA
ENDBRANCH   8  25
BRANCH  11  28
ATOM     28  O   UNL     1      -5.096   1.915  -2.658  0.00  0.00    -0.493 OA
ATOM     29  C   UNL     1      -6.024   1.256  -3.522  0.00  0.00    +0.277 C 
ENDBRANCH  11  28
TORSDOF 5
