REMARK  Name = ZINC12531490
REMARK  5 active torsions:
REMARK  status: ('A' for Active; 'I' for Inactive)
REMARK    1  A    between atoms: C_1  and  C_2
REMARK    2  A    between atoms: C_2  and  C_3
REMARK    3  A    between atoms: C_3  and  C_4
REMARK    4  A    between atoms: N_8  and  C_12
REMARK    5  A    between atoms: C_12  and  C_13
REMARK                            x       y       z     vdW  Elec       q    Type
REMARK                         _______ _______ _______ _____ _____    ______ ____
ROOT
ATOM      1  C   UNL     1       4.373   5.771  -3.505  0.00  0.00    +0.161 C 
ATOM      2  C   UNL     1       4.681   5.062  -2.201  0.00  0.00    +0.244 C 
ATOM      3  O   UNL     1       5.656   4.386  -1.948  0.00  0.00    -0.273 OA
ATOM      4  N   UNL     1       3.646   5.336  -1.383  0.00  0.00    -0.219 N 
ATOM      5  C   UNL     1       2.740   6.118  -1.979  0.00  0.00    +0.309 C 
ATOM      6  O   UNL     1       1.720   6.503  -1.440  0.00  0.00    -0.252 OA
ATOM      7  N   UNL     1       3.082   6.431  -3.242  0.00  0.00    -0.288 N 
ATOM      8  H   UNL     1       2.577   6.984  -3.860  0.00  0.00    +0.151 HD
ENDROOT
BRANCH   1   9
ATOM      9  C   UNL     1       4.241   4.767  -4.651  0.00  0.00    +0.031 C 
BRANCH   9  11
ATOM     10  C   UNL     1       3.816   4.511  -7.100  0.00  0.00    +0.004 C 
ATOM     11  C   UNL     1       3.948   5.515  -5.953  0.00  0.00    -0.001 C 
ENDBRANCH   9  11
ENDBRANCH   1   9
BRANCH   4  12
ATOM     12  C   UNL     1       3.531   4.843  -0.008  0.00  0.00    +0.175 C 
BRANCH  12  13
ATOM     13  C   UNL     1       2.807   3.522  -0.007  0.00  0.00    +0.078 A 
ATOM     14  C   UNL     1       3.391   2.303  -0.018  0.00  0.00    +0.117 A 
ATOM     15  N   UNL     1       2.387   1.374  -0.013  0.00  0.00    -0.305 N 
ATOM     16  C   UNL     1       2.392   0.008  -0.021  0.00  0.00    +0.112 A 
ATOM     17  C   UNL     1       1.232  -0.683  -0.013  0.00  0.00    +0.058 A 
ATOM     18  C   UNL     1       0.002  -0.004   0.002  0.00  0.00    +0.025 A 
ATOM     19  C   UNL     1      -0.016   1.356   0.009  0.00  0.00    +0.048 A 
ATOM     20  C   UNL     1       1.202   2.063   0.002  0.00  0.00    +0.138 A 
ATOM     21  N   UNL     1       1.482   3.359   0.005  0.00  0.00    -0.231 NA
ATOM     22 CL   UNL     1       1.261  -2.419  -0.024  0.00  0.00    -0.082 Cl
ENDBRANCH  12  13
ENDBRANCH   4  12
TORSDOF 4
