REMARK  Name = ZINC64202199
REMARK  9 active torsions:
REMARK  status: ('A' for Active; 'I' for Inactive)
REMARK    1  A    between atoms: C_1  and  C_2
REMARK    2  A    between atoms: C_5  and  C_7
REMARK    3  A    between atoms: C_10  and  C_12
REMARK    4  A    between atoms: C_12  and  N_13
REMARK    5  A    between atoms: N_13  and  C_14
REMARK    6  A    between atoms: C_15  and  C_17
REMARK    7  A    between atoms: C_22  and  N_23
REMARK    8  A    between atoms: N_23  and  S_24
REMARK    9  A    between atoms: S_24  and  C_27
REMARK                            x       y       z     vdW  Elec       q    Type
REMARK                         _______ _______ _______ _____ _____    ______ ____
ROOT
ATOM      1  C   UNL     1       2.087   5.927   4.214  0.00  0.00    +0.059 A 
ATOM      2  C   UNL     1       0.767   6.314   3.967  0.00  0.00    +0.015 A 
ATOM      3  C   UNL     1       0.494   7.597   3.546  0.00  0.00    +0.001 A 
ATOM      4  C   UNL     1       1.522   8.508   3.365  0.00  0.00    +0.002 A 
ATOM      5  C   UNL     1       2.830   8.142   3.605  0.00  0.00    +0.025 A 
ATOM      6  C   UNL     1       3.125   6.855   4.036  0.00  0.00    +0.060 A 
ENDROOT
BRANCH   1   9
ATOM      7  N   UNL     1       1.771   3.507   4.084  0.00  0.00    -0.293 N 
ATOM      8  C   UNL     1       0.895   3.718   2.929  0.00  0.00    +0.133 C 
ATOM      9  C   UNL     1       2.386   4.556   4.665  0.00  0.00    +0.249 C 
ATOM     10  O   UNL     1       3.188   4.371   5.560  0.00  0.00    -0.270 OA
BRANCH   7  11
ATOM     11  C   UNL     1       1.978   2.154   4.609  0.00  0.00    +0.182 C 
BRANCH  11  15
ATOM     12  C   UNL     1       4.349   0.391   2.463  0.00  0.00    +0.109 A 
ATOM     13  C   UNL     1       5.206   0.862   3.386  0.00  0.00    +0.045 A 
ATOM     14  C   UNL     1       4.438   1.592   4.323  0.00  0.00    +0.046 A 
ATOM     15  C   UNL     1       3.158   1.522   3.916  0.00  0.00    +0.122 A 
ATOM     16  O   UNL     1       3.111   0.799   2.786  0.00  0.00    -0.463 OA
BRANCH  12  20
ATOM     17  C   UNL     1       3.719   1.491  -0.181  0.00  0.00    +0.008 C 
ATOM     18  C   UNL     1       4.392   0.118  -0.119  0.00  0.00    -0.003 C 
ATOM     19  C   UNL     1       3.572  -1.045   0.443  0.00  0.00    +0.015 C 
ATOM     20  C   UNL     1       4.716  -0.447   1.266  0.00  0.00    +0.058 C 
ENDBRANCH  12  20
ENDBRANCH  11  15
ENDBRANCH   7  11
ENDBRANCH   1   9
BRANCH   6  21
ATOM     21  N   UNL     1       4.441   6.485   4.284  0.00  0.00    -0.216 N 
ATOM     22  H   UNL     1       4.739   5.586   4.077  0.00  0.00    +0.174 HD
BRANCH  21  23
ATOM     23  S   UNL     1       5.500   7.581   4.931  0.00  0.00    +0.072 S 
ATOM     24  O   UNL     1       6.702   6.872   5.203  0.00  0.00    -0.150 OA
ATOM     25  O   UNL     1       5.465   8.726   4.091  0.00  0.00    -0.150 OA
BRANCH  23  26
ATOM     26  C   UNL     1       4.847   8.079   6.490  0.00  0.00    +0.110 A 
ATOM     27  C   UNL     1       3.946   9.225   6.545  0.00  0.00    +0.031 A 
ATOM     28  C   UNL     1       3.410   9.658   7.707  0.00  0.00    +0.027 A 
ATOM     29  C   UNL     1       3.735   8.967   8.953  0.00  0.00    +0.056 A 
ATOM     30  N   UNL     1       3.400   9.122  10.209  0.00  0.00    -0.268 N 
ATOM     31  C   UNL     1       4.029   8.150  10.949  0.00  0.00    +0.308 C 
ATOM     32  O   UNL     1       3.930   8.014  12.150  0.00  0.00    -0.252 OA
ATOM     33  N   UNL     1       4.789   7.355  10.124  0.00  0.00    -0.267 N 
ATOM     34  C   UNL     1       4.659   7.791   8.896  0.00  0.00    +0.058 A 
ATOM     35  C   UNL     1       5.191   7.385   7.596  0.00  0.00    +0.054 A 
ATOM     36  H   UNL     1       5.329   6.599  10.403  0.00  0.00    +0.156 HD
ATOM     37  H   UNL     1       2.808   9.807  10.558  0.00  0.00    +0.156 HD
ENDBRANCH  23  26
ENDBRANCH  21  23
ENDBRANCH   6  21
TORSDOF 7
