REMARK  Name = ZINC16024818
REMARK  7 active torsions:
REMARK  status: ('A' for Active; 'I' for Inactive)
REMARK    1  A    between atoms: C_1  and  C_2
REMARK    2  A    between atoms: C_2  and  C_3
REMARK    3  A    between atoms: C_2  and  C_4
REMARK    4  A    between atoms: C_4  and  C_5
REMARK    5  A    between atoms: N_13  and  C_16
REMARK    6  A    between atoms: C_16  and  C_17
REMARK    7  A    between atoms: C_17  and  C_18
REMARK                            x       y       z     vdW  Elec       q    Type
REMARK                         _______ _______ _______ _____ _____    ______ ____
ROOT
ATOM      1  C   UNL     1       2.187  -0.073  -1.207  0.00  0.00    +0.068 C 
ATOM      2  C   UNL     1       2.950  -0.635  -2.426  0.00  0.00    +0.107 C 
ATOM      3  C   UNL     1       3.943   0.490  -2.829  0.00  0.00    +0.122 C 
ATOM      4  C   UNL     1       3.457   0.907  -4.199  0.00  0.00    +0.228 C 
ATOM      5  O   UNL     1       3.961   1.767  -4.889  0.00  0.00    -0.275 OA
ATOM      6  N   UNL     1       2.385   0.180  -4.532  0.00  0.00    -0.241 N 
ATOM      7  C   UNL     1       2.008  -0.730  -3.604  0.00  0.00    +0.227 C 
ATOM      8  O   UNL     1       1.072  -1.495  -3.693  0.00  0.00    -0.275 OA
ATOM      9  C   UNL     1       3.688   1.611  -1.814  0.00  0.00    +0.136 C 
ATOM     10  N   UNL     1       2.303   1.405  -1.329  0.00  0.00    -0.295 NA
ATOM     11  C   UNL     1       4.694   1.582  -0.698  0.00  0.00    +0.004 A 
ATOM     12  C   UNL     1       5.042   0.636   0.240  0.00  0.00    +0.023 A 
ATOM     13  C   UNL     1       6.036   0.909   1.163  0.00  0.00    +0.018 A 
ATOM     14  C   UNL     1       6.679   2.135   1.141  0.00  0.00    +0.017 A 
ATOM     15  C   UNL     1       6.333   3.085   0.203  0.00  0.00    +0.025 A 
ATOM     16  C   UNL     1       5.332   2.818  -0.729  0.00  0.00    +0.039 A 
ATOM     17  N   UNL     1       4.811   3.605  -1.760  0.00  0.00    -0.283 N 
ATOM     18  C   UNL     1       3.840   2.969  -2.443  0.00  0.00    +0.243 C 
ATOM     19  O   UNL     1       3.211   3.406  -3.383  0.00  0.00    -0.273 OA
ATOM     20 BR   UNL     1       6.515  -0.389   2.453  0.00  0.00    -0.050 Br
ATOM     21  H   UNL     1       1.624   1.768  -1.981  0.00  0.00    +0.123 HD
ATOM     22  H   UNL     1       5.113   4.505  -1.959  0.00  0.00    +0.155 HD
ENDROOT
BRANCH   1  23
ATOM     23  C   UNL     1       0.718  -0.497  -1.257  0.00  0.00    +0.022 C 
BRANCH  23  25
ATOM     24  C   UNL     1      -0.019   1.526   0.010  0.00  0.00    +0.007 C 
ATOM     25  C   UNL     1       0.002  -0.004   0.002  0.00  0.00    -0.016 C 
ATOM     26  C   UNL     1      -1.433  -0.534   0.013  0.00  0.00    +0.007 C 
ENDBRANCH  23  25
ENDBRANCH   1  23
BRANCH   6  27
ATOM     27  C   UNL     1       1.676   0.348  -5.803  0.00  0.00    +0.121 C 
BRANCH  27  28
ATOM     28  C   UNL     1       2.288  -0.579  -6.855  0.00  0.00    +0.054 C 
BRANCH  28  29
ATOM     29  C   UNL     1       1.559  -0.406  -8.162  0.00  0.00    -0.046 A 
ATOM     30  C   UNL     1       0.453  -1.185  -8.446  0.00  0.00    +0.004 A 
ATOM     31  C   UNL     1      -0.216  -1.026  -9.645  0.00  0.00    +0.000 A 
ATOM     32  C   UNL     1       0.221  -0.087 -10.561  0.00  0.00    +0.000 A 
ATOM     33  C   UNL     1       1.327   0.692 -10.277  0.00  0.00    +0.000 A 
ATOM     34  C   UNL     1       1.993   0.536  -9.076  0.00  0.00    +0.004 A 
ENDBRANCH  28  29
ENDBRANCH  27  28
ENDBRANCH   6  27
TORSDOF 5
