REMARK  Name = ZINC24580827
REMARK  6 active torsions:
REMARK  status: ('A' for Active; 'I' for Inactive)
REMARK    1  A    between atoms: C_1  and  C_2
REMARK    2  A    between atoms: C_8  and  N_10
REMARK    3  A    between atoms: C_11  and  C_13
REMARK    4  A    between atoms: C_13  and  N_14
REMARK    5  A    between atoms: N_17  and  C_20
REMARK    6  A    between atoms: N_23  and  C_28
REMARK                            x       y       z     vdW  Elec       q    Type
REMARK                         _______ _______ _______ _____ _____    ______ ____
ROOT
ATOM      1  N   UNL     1       0.898   1.010   6.094  0.00  0.00    -0.291 NA
ATOM      2  C   UNL     1       0.906  -0.413   6.460  0.00  0.00    +0.104 C 
ATOM      3  C   UNL     1       2.118  -0.701   7.352  0.00  0.00    +0.120 C 
ATOM      4  N   UNL     1       2.095   0.233   8.487  0.00  0.00    -0.325 N 
ATOM      5  C   UNL     1       1.951   1.669   8.204  0.00  0.00    +0.120 C 
ATOM      6  C   UNL     1       0.745   1.864   7.279  0.00  0.00    +0.104 C 
ENDROOT
BRANCH   4   7
ATOM      7  C   UNL     1       2.206  -0.227   9.789  0.00  0.00    +0.074 A 
ATOM      8  C   UNL     1       1.140  -0.057  10.698  0.00  0.00    +0.158 A 
ATOM      9  N   UNL     1       1.243  -0.490  11.924  0.00  0.00    -0.170 NA
ATOM     10  N   UNL     1       2.405  -1.130  12.367  0.00  0.00    -0.195 N 
ATOM     11  C   UNL     1       3.447  -1.313  11.533  0.00  0.00    +0.292 A 
ATOM     12  O   UNL     1       4.458  -1.873  11.928  0.00  0.00    -0.264 OA
ATOM     13  C   UNL     1       3.361  -0.863  10.208  0.00  0.00    +0.129 A 
ATOM     14 CL   UNL     1       4.687  -1.095   9.112  0.00  0.00    -0.076 Cl
BRANCH  10  15
ATOM     15  C   UNL     1       2.485  -1.583  13.689  0.00  0.00    +0.069 A 
ATOM     16  C   UNL     1       3.600  -1.284  14.461  0.00  0.00    +0.028 A 
ATOM     17  C   UNL     1       3.676  -1.733  15.764  0.00  0.00    +0.002 A 
ATOM     18  C   UNL     1       2.644  -2.480  16.301  0.00  0.00    +0.000 A 
ATOM     19  C   UNL     1       1.533  -2.781  15.535  0.00  0.00    +0.002 A 
ATOM     20  C   UNL     1       1.448  -2.330  14.233  0.00  0.00    +0.028 A 
ENDBRANCH  10  15
ENDBRANCH   4   7
BRANCH   1  21
ATOM     21  C   UNL     1      -0.148   1.293   5.102  0.00  0.00    +0.180 C 
BRANCH  21  23
ATOM     22  N   UNL     1      -0.647   0.701   2.753  0.00  0.00    -0.311 N 
ATOM     23  C   UNL     1       0.178   0.585   3.812  0.00  0.00    +0.227 C 
ATOM     24  O   UNL     1       1.183  -0.089   3.727  0.00  0.00    -0.274 OA
ATOM     25  H   UNL     1      -1.450   1.240   2.820  0.00  0.00    +0.149 HD
BRANCH  22  32
ATOM     26  C   UNL     1      -0.475   2.184   0.271  0.00  0.00    +0.009 C 
ATOM     27  C   UNL     1      -0.995   0.746   0.332  0.00  0.00    +0.006 C 
ATOM     28  C   UNL     1      -2.511   0.760   0.537  0.00  0.00    +0.005 C 
ATOM     29  C   UNL     1      -3.031  -0.677   0.599  0.00  0.00    +0.000 C 
ATOM     30  C   UNL     1      -2.366  -1.411   1.765  0.00  0.00    +0.002 C 
ATOM     31  C   UNL     1      -0.850  -1.425   1.560  0.00  0.00    +0.022 C 
ATOM     32  C   UNL     1      -0.330   0.013   1.499  0.00  0.00    +0.076 C 
ENDBRANCH  22  32
ENDBRANCH  21  23
ENDBRANCH   1  21
TORSDOF 5
