REMARK  Name = ZINC16746075
REMARK  4 active torsions:
REMARK  status: ('A' for Active; 'I' for Inactive)
REMARK    1  A    between atoms: C_6  and  N_7
REMARK    2  A    between atoms: C_14  and  C_16
REMARK    3  A    between atoms: C_16  and  S_17
REMARK    4  A    between atoms: S_17  and  C_18
REMARK                            x       y       z     vdW  Elec       q    Type
REMARK                         _______ _______ _______ _____ _____    ______ ____
ROOT
ATOM      1  C   UNL     1       1.169   3.182  -0.059  0.00  0.00    +0.034 A 
ATOM      2  C   UNL     1      -0.036   3.855  -0.020  0.00  0.00    +0.026 A 
ATOM      3  C   UNL     1      -1.230   3.143  -0.000  0.00  0.00    +0.040 A 
ATOM      4  C   UNL     1      -1.212   1.757  -0.027  0.00  0.00    -0.024 A 
ATOM      5  C   UNL     1       0.001   1.090  -0.058  0.00  0.00    +0.038 A 
ATOM      6  C   UNL     1       1.187   1.800  -0.077  0.00  0.00    +0.127 A 
ATOM      7  C   UNL     1      -2.485   0.953  -0.011  0.00  0.00    +0.038 C 
ATOM      8  C   UNL     1      -3.643   1.792   0.530  0.00  0.00    +0.024 C 
ATOM      9  C   UNL     1      -3.691   3.122  -0.233  0.00  0.00    +0.114 C 
ATOM     10  N   UNL     1      -2.442   3.845   0.044  0.00  0.00    -0.270 N 
ATOM     11  C   UNL     1      -2.463   5.160   0.336  0.00  0.00    +0.230 C 
ATOM     12  O   UNL     1      -1.442   5.723   0.671  0.00  0.00    -0.274 OA
ENDROOT
BRANCH   6  13
ATOM     13  N   UNL     1       2.479   1.078  -0.117  0.00  0.00    +0.056 N 
ATOM     14  O   UNL     1       2.496  -0.140  -0.133  0.00  0.00    -0.126 OA
ATOM     15  O   UNL     1       3.525   1.702  -0.133  0.00  0.00    -0.126 OA
ENDBRANCH   6  13
BRANCH  11  16
ATOM     16  C   UNL     1      -3.754   5.932   0.246  0.00  0.00    +0.172 C 
BRANCH  16  17
ATOM     17  S   UNL     1      -3.427   7.693   0.536  0.00  0.00    -0.088 S 
BRANCH  17  18
ATOM     18  C   UNL     1      -5.012   8.449   0.399  0.00  0.00    +0.160 A 
ATOM     19  N   UNL     1      -6.183   7.896   0.146  0.00  0.00    -0.133 NA
ATOM     20  N   UNL     1      -7.311   8.681   0.083  0.00  0.00    -0.125 NA
ATOM     21  C   UNL     1      -7.217   9.982   0.276  0.00  0.00    +0.180 A 
ATOM     22  S   UNL     1      -5.465  10.168   0.573  0.00  0.00    -0.025 S 
ATOM     23  N   UNL     1      -8.215  10.950   0.257  0.00  0.00    -0.336 N 
ATOM     24  H   UNL     1      -9.134  10.695   0.083  0.00  0.00    +0.144 HD
ATOM     25  H   UNL     1      -7.992  11.880   0.419  0.00  0.00    +0.144 HD
ENDBRANCH  17  18
ENDBRANCH  16  17
ENDBRANCH  11  16
TORSDOF 4
