REMARK  Name = ZINC67648720
REMARK  8 active torsions:
REMARK  status: ('A' for Active; 'I' for Inactive)
REMARK    1  A    between atoms: C_1  and  C_2
REMARK    2  A    between atoms: C_4  and  N_27
REMARK    3  A    between atoms: C_7  and  N_8
REMARK    4  A    between atoms: C_9  and  C_11
REMARK    5  A    between atoms: C_11  and  C_13
REMARK    6  A    between atoms: C_11  and  N_14
REMARK    7  A    between atoms: N_17  and  C_20
REMARK    8  A    between atoms: C_20  and  C_21
REMARK                            x       y       z     vdW  Elec       q    Type
REMARK                         _______ _______ _______ _____ _____    ______ ____
ROOT
ATOM      1  C   UNL     1      -0.437   0.580   5.221  0.00  0.00    +0.140 C 
ATOM      2  C   UNL     1      -1.764   1.337   5.290  0.00  0.00    +0.034 C 
ENDROOT
BRANCH   1   3
ATOM      3  N   UNL     1      -0.430  -0.489   6.229  0.00  0.00    -0.295 NA
ATOM      4  C   UNL     1      -1.546  -1.422   6.014  0.00  0.00    +0.066 C 
ATOM      5  C   UNL     1      -1.469  -2.550   7.045  0.00  0.00    -0.063 C 
ATOM      6  N   UNL     1      -1.535  -1.983   8.398  0.00  0.00    +0.382 N 
ATOM      7  C   UNL     1      -0.401  -1.073   8.606  0.00  0.00    -0.063 C 
ATOM      8  C   UNL     1      -0.469   0.068   7.588  0.00  0.00    +0.066 C 
ATOM      9  H   UNL     1      -2.399  -1.473   8.507  0.00  0.00    -0.082 HD
BRANCH   6  10
ATOM     10  C   UNL     1      -1.479  -3.068   9.387  0.00  0.00    -0.075 C 
BRANCH  10  11
ATOM     11  C   UNL     1      -2.733  -3.936   9.263  0.00  0.00    -0.028 C 
ATOM     12  C   UNL     1      -3.969  -3.097   9.591  0.00  0.00    +0.002 C 
ATOM     13  C   UNL     1      -5.223  -3.965   9.467  0.00  0.00    +0.000 C 
ATOM     14  C   UNL     1      -5.129  -5.139  10.444  0.00  0.00    +0.000 C 
ATOM     15  C   UNL     1      -3.892  -5.978  10.116  0.00  0.00    +0.000 C 
ATOM     16  C   UNL     1      -2.639  -5.110  10.240  0.00  0.00    +0.002 C 
ENDBRANCH  10  11
ENDBRANCH   6  10
ENDBRANCH   1   3
BRANCH   1  18
ATOM     17  N   UNL     1      -0.250   0.775   2.762  0.00  0.00    -0.284 N 
ATOM     18  C   UNL     1      -0.273  -0.022   3.849  0.00  0.00    +0.234 C 
ATOM     19  O   UNL     1      -0.161  -1.223   3.723  0.00  0.00    -0.274 OA
ATOM     20  H   UNL     1      -0.263   1.739   2.867  0.00  0.00    +0.155 HD
BRANCH  17  27
ATOM     21  C   UNL     1      -1.612   2.117   0.656  0.00  0.00    +0.046 C 
ATOM     22  C   UNL     1      -0.858   0.833   0.426  0.00  0.00    -0.027 A 
ATOM     23  C   UNL     1      -0.809   0.277  -0.838  0.00  0.00    +0.038 A 
ATOM     24  C   UNL     1      -0.118  -0.902  -1.050  0.00  0.00    +0.127 A 
ATOM     25  C   UNL     1       0.527  -1.527   0.002  0.00  0.00    +0.034 A 
ATOM     26  C   UNL     1       0.483  -0.976   1.267  0.00  0.00    +0.026 A 
ATOM     27  C   UNL     1      -0.207   0.211   1.482  0.00  0.00    +0.036 A 
BRANCH  24  28
ATOM     28  N   UNL     1      -0.068  -1.495  -2.405  0.00  0.00    +0.056 N 
ATOM     29  O   UNL     1      -0.631  -0.950  -3.325  0.00  0.00    -0.126 OA
ATOM     30  O   UNL     1       0.537  -2.526  -2.591  0.00  0.00    -0.126 OA
ENDBRANCH  24  28
ENDBRANCH  17  27
ENDBRANCH   1  18
TORSDOF 6
