REMARK  Name = ZINC14382812
REMARK  9 active torsions:
REMARK  status: ('A' for Active; 'I' for Inactive)
REMARK    1  A    between atoms: C_1  and  N_2
REMARK    2  A    between atoms: N_2  and  C_3
REMARK    3  A    between atoms: N_2  and  S_4
REMARK    4  A    between atoms: S_4  and  C_7
REMARK    5  A    between atoms: C_11  and  C_13
REMARK    6  A    between atoms: N_15  and  N_16
REMARK    7  A    between atoms: C_17  and  C_19
REMARK    8  A    between atoms: C_19  and  O_20
REMARK    9  A    between atoms: O_20  and  C_21
REMARK                            x       y       z     vdW  Elec       q    Type
REMARK                         _______ _______ _______ _____ _____    ______ ____
ROOT
ATOM      1  N   UNL     1       7.298   5.849  -0.040  0.00  0.00    -0.231 N 
ATOM      2  C   UNL     1       5.968   5.631  -0.027  0.00  0.00    +0.267 C 
ATOM      3  O   UNL     1       5.199   6.569  -0.015  0.00  0.00    -0.271 OA
ATOM      4  H   UNL     1       7.912   5.099  -0.050  0.00  0.00    +0.173 HD
ENDROOT
BRANCH   1   7
ATOM      5  C   UNL     1       9.123   7.378  -0.050  0.00  0.00    +0.260 C 
ATOM      6  O   UNL     1       9.893   6.437  -0.062  0.00  0.00    -0.269 OA
ATOM      7  N   UNL     1       7.793   7.160  -0.038  0.00  0.00    -0.230 N 
ATOM      8  H   UNL     1       7.178   7.910  -0.028  0.00  0.00    +0.173 HD
BRANCH   5  13
ATOM      9  C   UNL     1      11.503  10.283  -0.059  0.00  0.00    +0.106 A 
ATOM     10  C   UNL     1      10.624  11.351  -0.045  0.00  0.00    +0.028 A 
ATOM     11  C   UNL     1       9.258  11.131  -0.033  0.00  0.00    +0.003 A 
ATOM     12  C   UNL     1       8.764   9.843  -0.039  0.00  0.00    +0.013 A 
ATOM     13  C   UNL     1       9.645   8.761  -0.048  0.00  0.00    +0.040 A 
ATOM     14  C   UNL     1      11.022   8.990  -0.061  0.00  0.00    +0.041 A 
BRANCH   9  15
ATOM     15  S   UNL     1      13.241  10.575  -0.076  0.00  0.00    +0.060 S 
ATOM     16  O   UNL     1      13.441  11.867   0.479  0.00  0.00    -0.153 OA
ATOM     17  O   UNL     1      13.853   9.411   0.463  0.00  0.00    -0.153 OA
BRANCH  15  19
ATOM     18  C   UNL     1      13.703  11.954  -2.356  0.00  0.00    +0.131 C 
ATOM     19  N   UNL     1      13.707  10.664  -1.662  0.00  0.00    -0.183 NA
ATOM     20  C   UNL     1      14.123   9.452  -2.372  0.00  0.00    +0.131 C 
ENDBRANCH  15  19
ENDBRANCH   9  15
ENDBRANCH   5  13
ENDBRANCH   1   7
BRANCH   2  21
ATOM     21  C   UNL     1       5.435   4.221  -0.029  0.00  0.00    +0.326 C 
BRANCH  21  22
ATOM     22  O   UNL     1       4.007   4.252  -0.015  0.00  0.00    -0.483 OA
BRANCH  22  23
ATOM     23  C   UNL     1       3.364   3.054  -0.014  0.00  0.00    +0.122 A 
ATOM     24  C   UNL     1       4.112   1.884  -0.028  0.00  0.00    +0.049 A 
ATOM     25  C   UNL     1       3.524   0.631  -0.029  0.00  0.00    +0.050 A 
ATOM     26  C   UNL     1       2.133   0.580  -0.016  0.00  0.00    +0.136 A 
ATOM     27  C   UNL     1       1.369   1.773  -0.002  0.00  0.00    +0.027 A 
ATOM     28  C   UNL     1       1.976   3.030  -0.001  0.00  0.00    +0.057 A 
ATOM     29  C   UNL     1      -0.016   1.343   0.009  0.00  0.00    +0.001 A 
ATOM     30  C   UNL     1       0.002  -0.004   0.002  0.00  0.00    +0.109 A 
ATOM     31  O   UNL     1       1.275  -0.445  -0.013  0.00  0.00    -0.459 OA
ATOM     32  C   UNL     1      -1.245  -0.857   0.011  0.00  0.00    +0.075 C 
ATOM     33  C   UNL     1      -2.429   0.012   0.450  0.00  0.00    +0.008 C 
ATOM     34  C   UNL     1      -2.453   1.299  -0.379  0.00  0.00    +0.005 C 
ATOM     35  C   UNL     1      -1.267   2.183   0.020  0.00  0.00    +0.039 C 
ENDBRANCH  22  23
ENDBRANCH  21  22
ENDBRANCH   2  21
TORSDOF 7
