REMARK  Name = ZINC36743392
REMARK  4 active torsions:
REMARK  status: ('A' for Active; 'I' for Inactive)
REMARK    1  A    between atoms: C_3  and  N_9
REMARK    2  A    between atoms: C_6  and  N_7
REMARK    3  A    between atoms: N_9  and  S_10
REMARK    4  A    between atoms: S_10  and  N_13
REMARK                            x       y       z     vdW  Elec       q    Type
REMARK                         _______ _______ _______ _____ _____    ______ ____
ROOT
ATOM      1  N   UNL     1       3.584   2.131  -0.022  0.00  0.00    -0.205 N 
ATOM      2  H   UNL     1       4.324   1.814  -0.563  0.00  0.00    +0.175 HD
ENDROOT
BRANCH   1   5
ATOM      3  C   UNL     1       0.069   1.132   0.391  0.00  0.00    +0.024 A 
ATOM      4  C   UNL     1       1.191   1.920   0.225  0.00  0.00    +0.027 A 
ATOM      5  C   UNL     1       2.447   1.333   0.147  0.00  0.00    +0.063 A 
ATOM      6  C   UNL     1       2.574  -0.048   0.237  0.00  0.00    +0.042 A 
ATOM      7  C   UNL     1       1.452  -0.836   0.404  0.00  0.00    +0.040 A 
ATOM      8  C   UNL     1       0.196  -0.248   0.480  0.00  0.00    +0.026 A 
ATOM      9 BR   UNL     1       4.284  -0.849   0.131  0.00  0.00    -0.048 Br
BRANCH   8  10
ATOM     10  N   UNL     1      -0.942  -1.046   0.649  0.00  0.00    -0.358 N 
ATOM     11  H   UNL     1      -1.819  -0.635   0.702  0.00  0.00    +0.142 HD
ATOM     12  H   UNL     1      -0.853  -2.010   0.712  0.00  0.00    +0.142 HD
ENDBRANCH   8  10
ENDBRANCH   1   5
BRANCH   1  13
ATOM     13  S   UNL     1       3.667   3.619   0.702  0.00  0.00    +0.112 S 
ATOM     14  O   UNL     1       4.971   4.122   0.448  0.00  0.00    -0.138 OA
ATOM     15  O   UNL     1       2.492   4.321   0.321  0.00  0.00    -0.138 OA
BRANCH  13  16
ATOM     16  N   UNL     1       3.564   3.374   2.336  0.00  0.00    -0.164 NA
ATOM     17  C   UNL     1       2.257   3.367   2.955  0.00  0.00    +0.111 C 
ATOM     18  C   UNL     1       1.877   4.807   3.382  0.00  0.00    +0.017 C 
ATOM     19  C   UNL     1       2.692   5.230   4.532  0.00  0.00    +0.001 C 
ATOM     20  C   UNL     1       4.189   5.303   4.248  0.00  0.00    +0.001 C 
ATOM     21  C   UNL     1       4.801   3.937   4.437  0.00  0.00    +0.017 C 
ATOM     22  C   UNL     1       4.809   3.166   3.100  0.00  0.00    +0.111 C 
ENDBRANCH  13  16
ENDBRANCH   1  13
TORSDOF 4
