REMARK  Name = ZINC66926079
REMARK  6 active torsions:
REMARK  status: ('A' for Active; 'I' for Inactive)
REMARK    1  A    between atoms: C_1  and  O_2
REMARK    2  A    between atoms: O_2  and  C_3
REMARK    3  A    between atoms: C_9  and  N_12
REMARK    4  A    between atoms: N_15  and  C_16
REMARK    5  A    between atoms: C_16  and  C_17
REMARK    6  A    between atoms: C_17  and  O_27
REMARK                            x       y       z     vdW  Elec       q    Type
REMARK                         _______ _______ _______ _____ _____    ______ ____
ROOT
ATOM      1  N   UNL     1      -3.910  -4.311  -0.754  0.00  0.00    -0.295 N 
ATOM      2  C   UNL     1      -4.993  -3.908  -1.448  0.00  0.00    +0.300 C 
ATOM      3  O   UNL     1      -4.951  -2.880  -2.097  0.00  0.00    -0.253 OA
ATOM      4  N   UNL     1      -6.122  -4.644  -1.423  0.00  0.00    -0.296 N 
ATOM      5  H   UNL     1      -3.943  -5.130  -0.236  0.00  0.00    +0.151 HD
ATOM      6  H   UNL     1      -6.155  -5.463  -0.905  0.00  0.00    +0.150 HD
ENDROOT
BRANCH   1  13
ATOM      7  C   UNL     1      -1.430  -0.360   0.200  0.00  0.00    +0.403 C 
ATOM      8  O   UNL     1      -2.455   0.275   0.048  0.00  0.00    -0.226 OA
ATOM      9  N   UNL     1      -1.480  -1.700   0.328  0.00  0.00    -0.266 N 
ATOM     10  C   UNL     1      -0.250  -2.481   0.518  0.00  0.00    +0.111 C 
ATOM     11  C   UNL     1      -0.195  -3.582  -0.545  0.00  0.00    +0.021 C 
ATOM     12  C   UNL     1      -1.480  -4.410  -0.484  0.00  0.00    +0.025 C 
ATOM     13  C   UNL     1      -2.683  -3.511  -0.781  0.00  0.00    +0.092 C 
ATOM     14  C   UNL     1      -2.767  -2.409   0.286  0.00  0.00    +0.133 C 
BRANCH   7  16
ATOM     15  C   UNL     1      -0.265   1.698   0.099  0.00  0.00    +0.282 C 
ATOM     16  O   UNL     1      -0.244   0.277   0.241  0.00  0.00    -0.454 OA
ENDBRANCH   7  16
ENDBRANCH   1  13
BRANCH   4  17
ATOM     17  C   UNL     1      -7.298  -4.206  -2.177  0.00  0.00    +0.145 C 
BRANCH  17  18
ATOM     18  C   UNL     1      -8.389  -5.275  -2.088  0.00  0.00    +0.107 C 
ATOM     19  C   UNL     1      -7.836  -6.602  -2.604  0.00  0.00    +0.041 C 
ATOM     20  C   UNL     1      -8.995  -7.600  -2.712  0.00  0.00    +0.008 C 
ATOM     21  C   UNL     1      -9.902  -7.162  -3.860  0.00  0.00    +0.035 C 
ATOM     22  C   UNL     1     -10.275  -5.710  -3.716  0.00  0.00    -0.041 A 
ATOM     23  C   UNL     1      -9.578  -4.842  -2.905  0.00  0.00    -0.011 A 
ATOM     24  C   UNL     1      -9.970  -3.513  -2.823  0.00  0.00    +0.007 A 
ATOM     25  C   UNL     1     -11.054  -3.055  -3.543  0.00  0.00    +0.000 A 
ATOM     26  C   UNL     1     -11.756  -3.927  -4.354  0.00  0.00    +0.000 A 
ATOM     27  C   UNL     1     -11.367  -5.248  -4.439  0.00  0.00    +0.004 A 
BRANCH  18  28
ATOM     28  O   UNL     1      -8.786  -5.430  -0.724  0.00  0.00    -0.382 OA
ATOM     29  H   UNL     1      -9.140  -4.625  -0.324  0.00  0.00    +0.211 HD
ENDBRANCH  18  28
ENDBRANCH  17  18
ENDBRANCH   4  17
TORSDOF 5
