REMARK  Name = ZINC36728917
REMARK  8 active torsions:
REMARK  status: ('A' for Active; 'I' for Inactive)
REMARK    1  A    between atoms: C_1  and  C_2
REMARK    2  A    between atoms: C_5  and  C_29
REMARK    3  A    between atoms: C_6  and  C_8
REMARK    4  A    between atoms: C_8  and  C_10
REMARK    5  A    between atoms: C_8  and  N_11
REMARK    6  A    between atoms: C_12  and  C_14
REMARK    7  A    between atoms: C_14  and  N_15
REMARK    8  A    between atoms: C_23  and  C_25
REMARK                            x       y       z     vdW  Elec       q    Type
REMARK                         _______ _______ _______ _____ _____    ______ ____
ROOT
ATOM      1  C   UNL     1      -1.695  -1.750   5.713  0.00  0.00    +0.213 C 
ENDROOT
BRANCH   1   2
ATOM      2  N   UNL     1      -2.226  -2.614   6.771  0.00  0.00    -0.215 N 
ATOM      3  C   UNL     1      -3.484  -3.100   6.793  0.00  0.00    +0.247 C 
ATOM      4  O   UNL     1      -4.357  -2.913   5.973  0.00  0.00    -0.273 OA
ATOM      5  C   UNL     1      -3.575  -3.928   8.054  0.00  0.00    +0.115 C 
ATOM      6  C   UNL     1      -4.638  -3.360   8.988  0.00  0.00    +0.035 C 
ATOM      7  C   UNL     1      -4.692  -4.194  10.270  0.00  0.00    +0.003 C 
ATOM      8  C   UNL     1      -5.022  -5.646   9.919  0.00  0.00    +0.000 C 
ATOM      9  C   UNL     1      -3.936  -6.210   9.001  0.00  0.00    +0.006 C 
ATOM     10  C   UNL     1      -3.878  -5.383   7.714  0.00  0.00    +0.018 C 
ATOM     11  C   UNL     1      -2.778  -5.934   6.804  0.00  0.00    +0.010 C 
ATOM     12  N   UNL     1      -2.242  -3.808   8.657  0.00  0.00    -0.285 N 
ATOM     13  C   UNL     1      -1.520  -3.025   7.832  0.00  0.00    +0.310 C 
ATOM     14  O   UNL     1      -0.360  -2.721   8.031  0.00  0.00    -0.252 OA
ATOM     15  H   UNL     1      -1.939  -4.214   9.484  0.00  0.00    +0.151 HD
ENDBRANCH   1   2
BRANCH   1  17
ATOM     16  N   UNL     1      -0.535  -2.018   3.545  0.00  0.00    -0.307 N 
ATOM     17  C   UNL     1      -1.089  -2.601   4.627  0.00  0.00    +0.231 C 
ATOM     18  O   UNL     1      -1.099  -3.809   4.726  0.00  0.00    -0.274 OA
ATOM     19  H   UNL     1      -0.527  -1.051   3.466  0.00  0.00    +0.149 HD
BRANCH  16  20
ATOM     20  C   UNL     1       0.054  -2.845   2.489  0.00  0.00    +0.100 C 
ATOM     21  C   UNL     1       1.497  -3.192   2.858  0.00  0.00    +0.033 C 
BRANCH  20  27
ATOM     22  C   UNL     1      -0.018   1.503   0.010  0.00  0.00    +0.044 C 
ATOM     23  C   UNL     1       0.002  -0.004   0.002  0.00  0.00    -0.050 A 
ATOM     24  C   UNL     1       0.006  -0.689  -1.199  0.00  0.00    +0.003 A 
ATOM     25  C   UNL     1       0.025  -2.071  -1.207  0.00  0.00    +0.004 A 
ATOM     26  C   UNL     1       0.040  -2.768  -0.013  0.00  0.00    -0.046 A 
ATOM     27  C   UNL     1       0.037  -2.084   1.188  0.00  0.00    -0.024 A 
ATOM     28  C   UNL     1       0.023  -0.702   1.195  0.00  0.00    +0.009 A 
ATOM     29  C   UNL     1       0.059  -4.275  -0.021  0.00  0.00    +0.044 C 
ENDBRANCH  20  27
ENDBRANCH  16  20
ENDBRANCH   1  17
TORSDOF 4
