REMARK  Name = ZINC01154534
REMARK  4 active torsions:
REMARK  status: ('A' for Active; 'I' for Inactive)
REMARK    1  A    between atoms: C_4  and  N_7
REMARK    2  A    between atoms: C_11  and  C_12
REMARK    3  A    between atoms: N_16  and  C_17
REMARK    4  A    between atoms: C_21  and  N_23
REMARK                            x       y       z     vdW  Elec       q    Type
REMARK                         _______ _______ _______ _____ _____    ______ ____
ROOT
ATOM      1  N   UNL     1       5.342   4.221  -0.182  0.00  0.00    -0.184 N 
ATOM      2  C   UNL     1       5.331   2.875  -0.230  0.00  0.00    +0.272 C 
ATOM      3  O   UNL     1       6.296   2.147  -0.368  0.00  0.00    -0.268 OA
ATOM      4  C   UNL     1       3.927   2.453  -0.087  0.00  0.00    +0.104 C 
ATOM      5  C   UNL     1       3.433   1.157  -0.082  0.00  0.00    +0.044 C 
ATOM      6  C   UNL     1       3.162   3.704   0.054  0.00  0.00    +0.266 C 
ATOM      7  O   UNL     1       1.958   3.804   0.201  0.00  0.00    -0.268 OA
ATOM      8  N   UNL     1       4.049   4.715  -0.009  0.00  0.00    -0.223 N 
ATOM      9  H   UNL     1       3.820   5.655   0.056  0.00  0.00    +0.174 HD
ENDROOT
BRANCH   1  13
ATOM     10  C   UNL     1       8.762   6.579  -0.489  0.00  0.00    +0.000 A 
ATOM     11  C   UNL     1       7.526   7.175  -0.319  0.00  0.00    +0.002 A 
ATOM     12  C   UNL     1       6.390   6.396  -0.217  0.00  0.00    +0.025 A 
ATOM     13  C   UNL     1       6.490   5.013  -0.285  0.00  0.00    +0.056 A 
ATOM     14  C   UNL     1       7.734   4.417  -0.451  0.00  0.00    +0.025 A 
ATOM     15  C   UNL     1       8.865   5.202  -0.556  0.00  0.00    +0.002 A 
ENDBRANCH   1  13
BRANCH   5  16
ATOM     16  C   UNL     1       2.077   0.922   0.206  0.00  0.00    +0.047 A 
ATOM     17  C   UNL     1       1.152   0.310  -0.630  0.00  0.00    +0.027 A 
ATOM     18  C   UNL     1      -0.064   0.286   0.052  0.00  0.00    +0.020 A 
ATOM     19  C   UNL     1       0.124   0.868   1.265  0.00  0.00    +0.092 A 
ATOM     20  N   UNL     1       1.418   1.259   1.373  0.00  0.00    -0.316 N 
BRANCH  20  21
ATOM     21  C   UNL     1       1.991   1.896   2.481  0.00  0.00    +0.049 A 
ATOM     22  C   UNL     1       3.135   1.374   3.070  0.00  0.00    +0.028 A 
ATOM     23  C   UNL     1       3.697   2.005   4.162  0.00  0.00    +0.024 A 
ATOM     24  C   UNL     1       3.121   3.156   4.671  0.00  0.00    +0.071 A 
ATOM     25  C   UNL     1       1.981   3.678   4.086  0.00  0.00    +0.146 A 
ATOM     26  C   UNL     1       1.418   3.055   2.989  0.00  0.00    +0.060 A 
ATOM     27 CL   UNL     1       3.830   3.946   6.044  0.00  0.00    -0.081 Cl
BRANCH  25  28
ATOM     28  N   UNL     1       1.367   4.909   4.632  0.00  0.00    +0.058 N 
ATOM     29  O   UNL     1       0.363   5.369   4.118  0.00  0.00    -0.126 OA
ATOM     30  O   UNL     1       1.866   5.462   5.596  0.00  0.00    -0.126 OA
ENDBRANCH  25  28
ENDBRANCH  20  21
ENDBRANCH   5  16
TORSDOF 4
