REMARK  Name = ZINC39699708
REMARK  2 active torsions:
REMARK  status: ('A' for Active; 'I' for Inactive)
REMARK    1  A    between atoms: C_3  and  C_9
REMARK    2  A    between atoms: N_10  and  N_11
REMARK                            x       y       z     vdW  Elec       q    Type
REMARK                         _______ _______ _______ _____ _____    ______ ____
ROOT
ATOM      1  N   UNL     1       5.990   2.239  -0.044  0.00  0.00    -0.206 N 
ATOM      2  C   UNL     1       7.194   1.563  -0.059  0.00  0.00    +0.227 C 
ATOM      3  N   UNL     1       7.166   0.252  -0.071  0.00  0.00    -0.220 NA
ATOM      4  C   UNL     1       8.442  -0.456  -0.008  0.00  0.00    +0.253 C 
ATOM      5  C   UNL     1       9.475   0.466  -0.640  0.00  0.00    +0.115 C 
ATOM      6  C   UNL     1      10.155  -0.305  -1.533  0.00  0.00    +0.026 A 
ATOM      7  C   UNL     1      11.290  -0.048  -2.341  0.00  0.00    +0.027 A 
ATOM      8  C   UNL     1      11.720  -1.052  -3.154  0.00  0.00    +0.019 A 
ATOM      9  C   UNL     1      11.112  -2.309  -3.239  0.00  0.00    +0.017 A 
ATOM     10  C   UNL     1      10.024  -2.667  -2.507  0.00  0.00    +0.027 A 
ATOM     11  C   UNL     1       9.492  -1.644  -1.591  0.00  0.00    +0.046 A 
ATOM     12  N   UNL     1       8.493  -1.699  -0.764  0.00  0.00    -0.358 N 
ATOM     13 BR   UNL     1      13.233  -0.725  -4.239  0.00  0.00    -0.050 Br
ATOM     14  N   UNL     1       9.484   1.777  -0.381  0.00  0.00    -0.171 NA
ATOM     15  N   UNL     1       8.336   2.292  -0.067  0.00  0.00    -0.247 N 
ATOM     16  H   UNL     1       5.979   3.209  -0.039  0.00  0.00    +0.177 HD
ATOM     17  H   UNL     1       8.294   3.231   0.175  0.00  0.00    +0.192 HD
ATOM     18  H   UNL     1       7.881  -2.445  -0.667  0.00  0.00    +0.162 HD
ENDROOT
BRANCH   1  20
ATOM     19  C   UNL     1       3.654   2.161  -0.022  0.00  0.00    +0.139 C 
ATOM     20  N   UNL     1       4.785   1.525  -0.036  0.00  0.00    -0.188 NA
BRANCH  19  23
ATOM     21  C   UNL     1      -0.017   1.381   0.010  0.00  0.00    +0.021 A 
ATOM     22  C   UNL     1       1.166   2.090   0.002  0.00  0.00    +0.012 A 
ATOM     23  C   UNL     1       2.385   1.409  -0.013  0.00  0.00    +0.013 A 
ATOM     24  C   UNL     1       2.398   0.011  -0.021  0.00  0.00    +0.051 A 
ATOM     25  C   UNL     1       1.207  -0.687  -0.013  0.00  0.00    +0.040 A 
ATOM     26  C   UNL     1       0.002  -0.004   0.002  0.00  0.00    +0.042 A 
ATOM     27 CL   UNL     1      -1.492  -0.888   0.012  0.00  0.00    -0.083 Cl
ATOM     28 CL   UNL     1       3.908  -0.846  -0.040  0.00  0.00    -0.083 Cl
ENDBRANCH  19  23
ENDBRANCH   1  20
TORSDOF 2
