REMARK  Name = ZINC12374967
REMARK  1 active torsions:
REMARK  status: ('A' for Active; 'I' for Inactive)
REMARK    1  A    between atoms: C_3  and  C_6
REMARK                            x       y       z     vdW  Elec       q    Type
REMARK                         _______ _______ _______ _____ _____    ______ ____
ROOT
ATOM      1  C   UNL     1      -1.206   2.714   0.023  0.00  0.00    +0.075 C 
ATOM      2  C   UNL     1      -2.067   2.474  -1.226  0.00  0.00    +0.110 C 
ATOM      3  C   UNL     1      -2.908   1.241  -1.057  0.00  0.00    +0.219 C 
ATOM      4  O   UNL     1      -3.083   0.525  -2.021  0.00  0.00    -0.275 OA
ATOM      5  N   UNL     1      -3.478   0.892   0.110  0.00  0.00    -0.270 N 
ATOM      6  C   UNL     1      -3.113   1.597   1.288  0.00  0.00    +0.138 A 
ATOM      7  C   UNL     1      -2.045   2.447   1.224  0.00  0.00    +0.041 A 
ATOM      8  S   UNL     1      -1.960   3.089   2.869  0.00  0.00    -0.055 S 
ATOM      9  C   UNL     1      -3.304   2.195   3.517  0.00  0.00    +0.158 A 
ATOM     10  N   UNL     1      -3.709   1.499   2.471  0.00  0.00    -0.210 NA
ATOM     11  N   UNL     1      -3.818   2.209   4.804  0.00  0.00    -0.337 N 
ATOM     12  H   UNL     1      -4.126   0.171   0.147  0.00  0.00    +0.156 HD
ATOM     13  H   UNL     1      -4.581   1.653   5.028  0.00  0.00    +0.144 HD
ATOM     14  H   UNL     1      -3.416   2.776   5.481  0.00  0.00    +0.144 HD
ENDROOT
BRANCH   1  17
ATOM     15  C   UNL     1       2.220   1.048  -0.013  0.00  0.00    +0.008 A 
ATOM     16  C   UNL     1       1.300   2.079   0.001  0.00  0.00    +0.012 A 
ATOM     17  C   UNL     1      -0.022   1.781   0.012  0.00  0.00    -0.002 A 
ATOM     18  S   UNL     1       0.002  -0.004   0.002  0.00  0.00    -0.101 S 
ATOM     19  C   UNL     1       1.773  -0.232  -0.016  0.00  0.00    +0.045 A 
ENDBRANCH   1  17
TORSDOF 1
