REMARK  Name = ZINC39530308
REMARK  10 active torsions:
REMARK  status: ('A' for Active; 'I' for Inactive)
REMARK    1  A    between atoms: C_1  and  C_2
REMARK    2  A    between atoms: C_2  and  C_3
REMARK    3  A    between atoms: C_2  and  S_4
REMARK    4  A    between atoms: S_4  and  C_7
REMARK    5  A    between atoms: C_10  and  N_20
REMARK    6  A    between atoms: C_11  and  C_13
REMARK    7  A    between atoms: C_18  and  O_19
REMARK    8  A    between atoms: C_24  and  S_27
REMARK    9  A    between atoms: S_27  and  O_30
REMARK   10  A    between atoms: O_30  and  C_31
REMARK                            x       y       z     vdW  Elec       q    Type
REMARK                         _______ _______ _______ _____ _____    ______ ____
ROOT
ATOM      1  C   UNL     1      -1.978  -2.088  -0.836  0.00  0.00    +0.089 A 
ATOM      2  C   UNL     1      -1.671  -3.038  -1.795  0.00  0.00    +0.029 A 
ATOM      3  C   UNL     1      -1.424  -4.346  -1.427  0.00  0.00    +0.025 A 
ATOM      4  C   UNL     1      -1.481  -4.715  -0.090  0.00  0.00    +0.038 A 
ATOM      5  C   UNL     1      -1.791  -3.755   0.881  0.00  0.00    +0.008 A 
ATOM      6  C   UNL     1      -2.033  -2.438   0.498  0.00  0.00    +0.037 A 
ENDROOT
BRANCH   4   7
ATOM      7  N   UNL     1      -1.232  -6.035   0.284  0.00  0.00    -0.331 N 
ATOM      8  C   UNL     1       0.144  -6.522   0.470  0.00  0.00    +0.086 C 
ATOM      9  C   UNL     1       0.313  -7.819  -0.328  0.00  0.00    -0.061 C 
ATOM     10  N   UNL     1      -0.728  -8.776   0.070  0.00  0.00    +0.398 N 
ATOM     11  C   UNL     1      -2.051  -8.256  -0.296  0.00  0.00    +0.133 C 
ATOM     12  C   UNL     1      -2.337  -6.979   0.509  0.00  0.00    +0.115 C 
ATOM     13  H   UNL     1      -0.572  -9.655  -0.399  0.00  0.00    -0.083 HD
ATOM     14  H   UNL     1      -0.688  -8.919   1.068  0.00  0.00    -0.083 HD
BRANCH  11  15
ATOM     15  S   UNL     1      -3.315  -9.502   0.081  0.00  0.00    +0.109 S 
ATOM     16  O   UNL     1      -3.201  -9.922   1.433  0.00  0.00    -0.138 OA
ATOM     17  O   UNL     1      -4.571  -9.101  -0.450  0.00  0.00    -0.138 OA
BRANCH  15  18
ATOM     18  O   UNL     1      -2.919 -10.721  -0.740  0.00  0.00    -0.347 OA
BRANCH  18  19
ATOM     19  C   UNL     1      -3.178 -10.602  -2.068  0.00  0.00    +0.156 A 
ATOM     20  C   UNL     1      -4.434 -10.923  -2.563  0.00  0.00    +0.048 A 
ATOM     21  C   UNL     1      -4.695 -10.800  -3.914  0.00  0.00    +0.004 A 
ATOM     22  C   UNL     1      -3.706 -10.357  -4.773  0.00  0.00    +0.000 A 
ATOM     23  C   UNL     1      -2.453 -10.037  -4.282  0.00  0.00    +0.004 A 
ATOM     24  C   UNL     1      -2.189 -10.153  -2.931  0.00  0.00    +0.048 A 
ENDBRANCH  18  19
ENDBRANCH  15  18
ENDBRANCH  11  15
ENDBRANCH   4   7
BRANCH   5  25
ATOM     25  C   UNL     1      -1.855  -4.138   2.312  0.00  0.00    +0.025 A 
ATOM     26  C   UNL     1      -3.075  -4.127   2.986  0.00  0.00    +0.012 A 
ATOM     27  C   UNL     1      -3.130  -4.485   4.317  0.00  0.00    +0.001 A 
ATOM     28  C   UNL     1      -1.977  -4.855   4.987  0.00  0.00    +0.004 A 
ATOM     29  C   UNL     1      -0.762  -4.870   4.329  0.00  0.00    +0.046 A 
ATOM     30  C   UNL     1      -0.693  -4.519   2.991  0.00  0.00    +0.125 A 
BRANCH  30  31
ATOM     31  O   UNL     1       0.500  -4.538   2.341  0.00  0.00    -0.506 OA
ATOM     32  H   UNL     1       0.985  -3.703   2.385  0.00  0.00    +0.292 HD
ENDBRANCH  30  31
ENDBRANCH   5  25
BRANCH   1  33
ATOM     33  S   UNL     1      -2.291  -0.423  -1.319  0.00  0.00    -0.001 S 
ATOM     34  O   UNL     1      -3.126   0.101  -0.295  0.00  0.00    -0.169 OA
ATOM     35  O   UNL     1      -2.759  -0.516  -2.658  0.00  0.00    -0.169 OA
BRANCH  33  37
ATOM     36  C   UNL     1      -0.838   1.881  -1.564  0.00  0.00    +0.032 C 
ATOM     37  C   UNL     1      -0.669   0.388  -1.279  0.00  0.00    +0.130 C 
ATOM     38  C   UNL     1      -0.039   0.200   0.102  0.00  0.00    +0.032 C 
ENDBRANCH  33  37
ENDBRANCH   1  33
TORSDOF 8
