REMARK  Name = ZINC14094572
REMARK  6 active torsions:
REMARK  status: ('A' for Active; 'I' for Inactive)
REMARK    1  A    between atoms: C_1  and  C_2
REMARK    2  A    between atoms: C_2  and  C_4
REMARK    3  A    between atoms: C_2  and  N_13
REMARK    4  A    between atoms: C_14  and  C_16
REMARK    5  A    between atoms: C_16  and  N_17
REMARK    6  A    between atoms: C_24  and  C_27
REMARK                            x       y       z     vdW  Elec       q    Type
REMARK                         _______ _______ _______ _____ _____    ______ ____
ROOT
ATOM      1  C   UNL     1      -2.446   0.951   0.018  0.00  0.00    +0.222 C 
ENDROOT
BRANCH   1   2
ATOM      2  N   UNL     1      -1.204   1.727   0.017  0.00  0.00    -0.290 N 
ATOM      3  C   UNL     1      -0.013   1.076   0.008  0.00  0.00    +0.203 A 
ATOM      4  N   UNL     1       1.116   1.733   0.001  0.00  0.00    -0.230 NA
ATOM      5  C   UNL     1       1.135   3.063   0.008  0.00  0.00    +0.116 A 
ATOM      6  C   UNL     1      -0.047   3.822   0.023  0.00  0.00    +0.080 A 
ATOM      7  C   UNL     1      -1.266   3.071   0.030  0.00  0.00    +0.263 A 
ATOM      8  O   UNL     1      -2.344   3.641   0.043  0.00  0.00    -0.267 OA
ATOM      9  C   UNL     1       0.146   5.267   0.029  0.00  0.00    +0.004 A 
ATOM     10  C   UNL     1       1.410   5.755   0.019  0.00  0.00    +0.056 A 
ATOM     11  S   UNL     1       2.420   4.286   0.002  0.00  0.00    -0.076 S 
BRANCH   9  12
ATOM     12  C   UNL     1      -1.018   6.185   0.045  0.00  0.00    -0.017 A 
ATOM     13  C   UNL     1      -2.053   6.018  -0.874  0.00  0.00    +0.008 A 
ATOM     14  C   UNL     1      -3.136   6.873  -0.851  0.00  0.00    +0.001 A 
ATOM     15  C   UNL     1      -3.191   7.900   0.074  0.00  0.00    +0.000 A 
ATOM     16  C   UNL     1      -2.164   8.073   0.985  0.00  0.00    +0.001 A 
ATOM     17  C   UNL     1      -1.079   7.222   0.975  0.00  0.00    +0.008 A 
ENDBRANCH   9  12
ENDBRANCH   1   2
BRANCH   1  19
ATOM     18  N   UNL     1      -3.989  -0.027   1.687  0.00  0.00    -0.307 N 
ATOM     19  C   UNL     1      -2.866   0.676   1.440  0.00  0.00    +0.233 C 
ATOM     20  O   UNL     1      -2.193   1.089   2.361  0.00  0.00    -0.274 OA
ATOM     21  H   UNL     1      -4.527  -0.357   0.950  0.00  0.00    +0.149 HD
BRANCH  18  23
ATOM     22  C   UNL     1      -5.199   0.895   3.602  0.00  0.00    +0.033 C 
ATOM     23  C   UNL     1      -4.396  -0.294   3.069  0.00  0.00    +0.100 C 
BRANCH  23  24
ATOM     24  C   UNL     1      -5.250  -1.535   3.110  0.00  0.00    -0.024 A 
ATOM     25  C   UNL     1      -6.184  -1.764   2.116  0.00  0.00    +0.009 A 
ATOM     26  C   UNL     1      -6.968  -2.901   2.149  0.00  0.00    +0.050 A 
ATOM     27  C   UNL     1      -6.821  -3.816   3.180  0.00  0.00    +0.166 A 
ATOM     28  C   UNL     1      -5.880  -3.586   4.181  0.00  0.00    +0.167 A 
ATOM     29  C   UNL     1      -5.093  -2.446   4.138  0.00  0.00    +0.055 A 
ATOM     30  O   UNL     1      -5.927  -4.620   5.070  0.00  0.00    -0.453 OA
ATOM     31  C   UNL     1      -6.617  -5.683   4.386  0.00  0.00    +0.466 C 
ATOM     32  O   UNL     1      -7.457  -4.994   3.442  0.00  0.00    -0.453 OA
ENDBRANCH  23  24
ENDBRANCH  18  23
ENDBRANCH   1  19
TORSDOF 5
