REMARK  Name = ZINC56645071
REMARK  6 active torsions:
REMARK  status: ('A' for Active; 'I' for Inactive)
REMARK    1  A    between atoms: C_4  and  N_11
REMARK    2  A    between atoms: C_5  and  C_7
REMARK    3  A    between atoms: C_7  and  C_8
REMARK    4  A    between atoms: N_14  and  C_15
REMARK    5  A    between atoms: C_15  and  C_16
REMARK    6  A    between atoms: C_16  and  C_21
REMARK                            x       y       z     vdW  Elec       q    Type
REMARK                         _______ _______ _______ _____ _____    ______ ____
ROOT
ATOM      1  N   UNL     1       3.717  -0.679   0.493  0.00  0.00    -0.269 N 
ATOM      2  C   UNL     1       4.823   0.013   0.158  0.00  0.00    +0.304 C 
ATOM      3  O   UNL     1       4.765   1.219   0.010  0.00  0.00    -0.253 OA
ATOM      4  N   UNL     1       5.995  -0.630  -0.014  0.00  0.00    -0.298 N 
ATOM      5  H   UNL     1       3.776  -1.630   0.676  0.00  0.00    +0.156 HD
ATOM      6  H   UNL     1       6.042  -1.592   0.104  0.00  0.00    +0.150 HD
ENDROOT
BRANCH   1  10
ATOM      7  C   UNL     1       0.040   1.265   0.745  0.00  0.00    +0.000 A 
ATOM      8  C   UNL     1       1.208   1.964   0.988  0.00  0.00    +0.002 A 
ATOM      9  C   UNL     1       2.429   1.323   0.906  0.00  0.00    +0.023 A 
ATOM     10  C   UNL     1       2.482  -0.026   0.578  0.00  0.00    +0.038 A 
ATOM     11  C   UNL     1       1.307  -0.725   0.334  0.00  0.00    -0.017 A 
ATOM     12  C   UNL     1       0.090  -0.078   0.418  0.00  0.00    +0.006 A 
BRANCH  11  13
ATOM     13  C   UNL     1       1.361  -2.188  -0.022  0.00  0.00    +0.132 C 
BRANCH  13  14
ATOM     14  C   UNL     1       1.418  -3.011   1.239  0.00  0.00    +0.215 C 
ATOM     15  O   UNL     1       1.415  -2.463   2.321  0.00  0.00    -0.276 OA
ATOM     16  N   UNL     1       1.471  -4.356   1.165  0.00  0.00    -0.329 N 
ATOM     17  H   UNL     1       1.473  -4.794   0.299  0.00  0.00    +0.145 HD
ATOM     18  H   UNL     1       1.508  -4.885   1.977  0.00  0.00    +0.145 HD
ENDBRANCH  13  14
ENDBRANCH  11  13
ENDBRANCH   1  10
BRANCH   4  19
ATOM     19  C   UNL     1       7.198   0.122  -0.379  0.00  0.00    +0.117 C 
BRANCH  19  20
ATOM     20  C   UNL     1       8.353  -0.850  -0.624  0.00  0.00    +0.011 C 
ATOM     21  C   UNL     1       8.593  -1.711   0.629  0.00  0.00    +0.013 C 
ATOM     22  C   UNL     1      10.035  -1.421   1.093  0.00  0.00    +0.001 C 
ATOM     23  C   UNL     1      10.348  -0.021   0.508  0.00  0.00    +0.001 C 
ATOM     24  C   UNL     1       9.658  -0.068  -0.878  0.00  0.00    +0.013 C 
BRANCH  20  25
ATOM     25  C   UNL     1       8.043  -1.733  -1.806  0.00  0.00    -0.040 A 
ATOM     26  C   UNL     1       6.902  -1.510  -2.554  0.00  0.00    +0.005 A 
ATOM     27  C   UNL     1       6.616  -2.319  -3.637  0.00  0.00    +0.020 A 
ATOM     28  C   UNL     1       7.473  -3.352  -3.974  0.00  0.00    +0.041 A 
ATOM     29  C   UNL     1       8.615  -3.575  -3.225  0.00  0.00    +0.020 A 
ATOM     30  C   UNL     1       8.902  -2.761  -2.144  0.00  0.00    +0.005 A 
ATOM     31 CL   UNL     1       7.115  -4.369  -5.334  0.00  0.00    -0.084 Cl
ENDBRANCH  20  25
ENDBRANCH  19  20
ENDBRANCH   4  19
TORSDOF 6
