REMARK  Name = ZINC20558680
REMARK  4 active torsions:
REMARK  status: ('A' for Active; 'I' for Inactive)
REMARK    1  A    between atoms: C_4  and  N_10
REMARK    2  A    between atoms: C_5  and  C_7
REMARK    3  A    between atoms: C_7  and  N_9
REMARK    4  A    between atoms: N_10  and  C_11
REMARK                            x       y       z     vdW  Elec       q    Type
REMARK                         _______ _______ _______ _____ _____    ______ ____
ROOT
ATOM      1  N   UNL     1      -2.434   3.769   0.025  0.00  0.00    -0.314 N 
ATOM      2  H   UNL     1      -2.428   4.844   0.259  0.00  0.00    +0.152 HD
ENDROOT
BRANCH   1   3
ATOM      3  C   UNL     1      -1.228   3.092  -0.183  0.00  0.00    +0.035 A 
ATOM      4  C   UNL     1      -1.227   1.715  -0.365  0.00  0.00    +0.027 A 
ATOM      5  C   UNL     1      -0.036   1.044  -0.566  0.00  0.00    +0.051 A 
ATOM      6  C   UNL     1       1.160   1.743  -0.595  0.00  0.00    +0.173 A 
ATOM      7  C   UNL     1       1.162   3.124  -0.416  0.00  0.00    +0.174 A 
ATOM      8  C   UNL     1      -0.031   3.796  -0.211  0.00  0.00    +0.073 A 
ATOM      9  O   UNL     1       2.450   3.572  -0.487  0.00  0.00    -0.395 OA
ATOM     10  C   UNL     1       3.192   2.510  -1.117  0.00  0.00    +0.589 C 
ATOM     11  O   UNL     1       2.448   1.325  -0.778  0.00  0.00    -0.395 OA
ATOM     12  F   UNL     1       3.225   2.690  -2.504  0.00  0.00    -0.125 F 
ATOM     13  F   UNL     1       4.490   2.444  -0.600  0.00  0.00    -0.125 F 
ENDBRANCH   1   3
BRANCH   1  17
ATOM     14  C   UNL     1      -6.051   1.716  -0.244  0.00  0.00    +0.001 A 
ATOM     15  C   UNL     1      -5.554   2.404  -1.340  0.00  0.00    +0.002 A 
ATOM     16  C   UNL     1      -4.360   3.089  -1.253  0.00  0.00    +0.024 A 
ATOM     17  C   UNL     1      -3.640   3.085  -0.064  0.00  0.00    +0.041 A 
ATOM     18  C   UNL     1      -4.141   2.389   1.048  0.00  0.00    +0.024 A 
ATOM     19  C   UNL     1      -5.355   1.705   0.944  0.00  0.00    +0.012 A 
BRANCH  18  20
ATOM     20  C   UNL     1      -3.391   2.381   2.316  0.00  0.00    +0.079 C 
ATOM     21  S   UNL     1      -1.992   3.351   2.489  0.00  0.00    -0.035 S 
BRANCH  20  22
ATOM     22  N   UNL     1      -3.807   1.609   3.339  0.00  0.00    -0.352 N 
ATOM     23  H   UNL     1      -3.247   1.602   4.286  0.00  0.00    +0.143 HD
ATOM     24  H   UNL     1      -4.706   0.985   3.228  0.00  0.00    +0.143 HD
ENDBRANCH  20  22
ENDBRANCH  18  20
ENDBRANCH   1  17
TORSDOF 4
