REMARK  Name = ZINC08789263
REMARK  12 active torsions:
REMARK  status: ('A' for Active; 'I' for Inactive)
REMARK    1  A    between atoms: C_1  and  C_2
REMARK    2  A    between atoms: C_2  and  C_3
REMARK    3  A    between atoms: C_3  and  O_4
REMARK    4  A    between atoms: O_4  and  C_5
REMARK    5  A    between atoms: C_8  and  C_13
REMARK    6  A    between atoms: C_10  and  O_11
REMARK    7  A    between atoms: O_11  and  C_12
REMARK    8  A    between atoms: N_20  and  C_35
REMARK    9  A    between atoms: C_23  and  C_34
REMARK   10  A    between atoms: C_35  and  C_36
REMARK   11  A    between atoms: C_36  and  C_37
REMARK   12  A    between atoms: C_36  and  C_38
REMARK                            x       y       z     vdW  Elec       q    Type
REMARK                         _______ _______ _______ _____ _____    ______ ____
ROOT
ATOM      1  C   UNL     1      -0.254   1.016  -0.123  0.00  0.00    +0.069 C 
ATOM      2  C   UNL     1      -1.017   1.306  -1.421  0.00  0.00    +0.122 C 
ATOM      3  N   UNL     1      -0.085   1.187  -2.558  0.00  0.00    -0.280 N 
ATOM      4  C   UNL     1      -0.272   0.218  -3.458  0.00  0.00    +0.234 C 
ATOM      5  O   UNL     1      -1.294  -0.431  -3.388  0.00  0.00    -0.274 OA
ATOM      6  C   UNL     1       0.696  -0.117  -4.546  0.00  0.00    +0.203 C 
ATOM      7  N   UNL     1       1.892   0.707  -4.489  0.00  0.00    -0.290 N 
ATOM      8  C   UNL     1       2.053   1.718  -3.636  0.00  0.00    +0.245 C 
ATOM      9  O   UNL     1       3.096   2.336  -3.673  0.00  0.00    -0.273 OA
ATOM     10  C   UNL     1       1.026   2.136  -2.637  0.00  0.00    +0.151 C 
ATOM     11  C   UNL     1       1.639   2.256  -1.262  0.00  0.00    +0.054 A 
ATOM     12  C   UNL     1       1.060   1.755  -0.148  0.00  0.00    -0.008 A 
ATOM     13  C   UNL     1       1.938   2.067   0.961  0.00  0.00    +0.004 A 
ATOM     14  C   UNL     1       1.859   1.808   2.333  0.00  0.00    +0.010 A 
ATOM     15  C   UNL     1       2.898   2.259   3.109  0.00  0.00    +0.001 A 
ATOM     16  C   UNL     1       3.978   2.939   2.571  0.00  0.00    +0.002 A 
ATOM     17  C   UNL     1       4.080   3.210   1.218  0.00  0.00    +0.026 A 
ATOM     18  C   UNL     1       3.040   2.765   0.405  0.00  0.00    +0.047 A 
ATOM     19  N   UNL     1       2.824   2.861  -0.940  0.00  0.00    -0.356 N 
ATOM     20  H   UNL     1       3.420   3.293  -1.572  0.00  0.00    +0.166 HD
ATOM     21  C   UNL     1       0.463   3.499  -3.047  0.00  0.00    +0.048 C 
ENDROOT
BRANCH   1  25
ATOM     22  C   UNL     1      -2.567   2.333   3.224  0.00  0.00    +0.162 A 
ATOM     23  C   UNL     1      -2.177   3.237   2.249  0.00  0.00    +0.050 A 
ATOM     24  C   UNL     1      -1.424   2.810   1.171  0.00  0.00    +0.008 A 
ATOM     25  C   UNL     1      -1.069   1.478   1.057  0.00  0.00    -0.035 A 
ATOM     26  C   UNL     1      -1.455   0.571   2.026  0.00  0.00    +0.053 A 
ATOM     27  C   UNL     1      -2.205   0.994   3.111  0.00  0.00    +0.162 A 
BRANCH  27  28
ATOM     28  O   UNL     1      -2.586   0.103   4.066  0.00  0.00    -0.491 OA
ATOM     29  C   UNL     1      -2.178  -1.254   3.885  0.00  0.00    +0.277 C 
ENDBRANCH  27  28
BRANCH  22  30
ATOM     30  O   UNL     1      -3.303   2.753   4.288  0.00  0.00    -0.488 OA
BRANCH  30  31
ATOM     31  C   UNL     1      -3.638   4.142   4.337  0.00  0.00    +0.229 C 
BRANCH  31  33
ATOM     32  C   UNL     1      -4.819   5.910   5.649  0.00  0.00    +0.007 C 
ATOM     33  C   UNL     1      -4.460   4.423   5.596  0.00  0.00    +0.038 C 
ENDBRANCH  31  33
ENDBRANCH  30  31
ENDBRANCH  22  30
ENDBRANCH   1  25
BRANCH   7  34
ATOM     34  C   UNL     1       2.982   0.408  -5.420  0.00  0.00    +0.111 C 
BRANCH  34  35
ATOM     35  C   UNL     1       3.858  -0.705  -4.841  0.00  0.00    +0.000 C 
ATOM     36  C   UNL     1       4.913  -1.112  -5.872  0.00  0.00    +0.009 C 
ATOM     37  C   UNL     1       4.551  -0.202  -3.573  0.00  0.00    +0.009 C 
ENDBRANCH  34  35
ENDBRANCH   7  34
TORSDOF 7
