REMARK  Name = ZINC50829546
REMARK  4 active torsions:
REMARK  status: ('A' for Active; 'I' for Inactive)
REMARK    1  A    between atoms: C_3  and  N_18
REMARK    2  A    between atoms: C_4  and  C_10
REMARK    3  A    between atoms: C_6  and  N_7
REMARK    4  A    between atoms: C_10  and  N_11
REMARK                            x       y       z     vdW  Elec       q    Type
REMARK                         _______ _______ _______ _____ _____    ______ ____
ROOT
ATOM      1  C   UNL     1      -0.017   1.378   0.010  0.00  0.00    +0.034 A 
ATOM      2  C   UNL     1       1.169   2.087   0.002  0.00  0.00    +0.025 A 
ATOM      3  C   UNL     1       2.381   1.409  -0.013  0.00  0.00    +0.029 A 
ATOM      4  C   UNL     1       2.396   0.020  -0.021  0.00  0.00    -0.009 A 
ATOM      5  C   UNL     1       1.207  -0.682  -0.013  0.00  0.00    +0.039 A 
ATOM      6  C   UNL     1       0.002  -0.004   0.002  0.00  0.00    +0.127 A 
ENDROOT
BRANCH   6   7
ATOM      7  N   UNL     1      -1.270  -0.760   0.010  0.00  0.00    +0.056 N 
ATOM      8  O   UNL     1      -2.325  -0.168   0.023  0.00  0.00    -0.126 OA
ATOM      9  O   UNL     1      -1.256  -1.969   0.004  0.00  0.00    -0.126 OA
ENDBRANCH   6   7
BRANCH   3  10
ATOM     10  N   UNL     1       3.582   2.122  -0.021  0.00  0.00    -0.358 N 
ATOM     11  H   UNL     1       3.570   3.092  -0.016  0.00  0.00    +0.142 HD
ATOM     12  H   UNL     1       4.428   1.647  -0.032  0.00  0.00    +0.142 HD
ENDBRANCH   3  10
BRANCH   4  13
ATOM     13  C   UNL     1       3.709  -0.720  -0.038  0.00  0.00    +0.146 C 
BRANCH  13  14
ATOM     14  N   UNL     1       4.266  -0.758   1.317  0.00  0.00    -0.177 NA
ATOM     15  C   UNL     1       5.082   0.280   1.971  0.00  0.00    +0.111 C 
ATOM     16  C   UNL     1       4.874   0.259   3.497  0.00  0.00    +0.041 C 
ATOM     17  C   UNL     1       4.950  -1.246   3.894  0.00  0.00    +0.186 C 
ATOM     18  S   UNL     1       4.099  -1.989   2.443  0.00  0.00    +0.032 S 
ATOM     19  O   UNL     1       4.849  -3.080   1.926  0.00  0.00    -0.158 OA
ATOM     20  O   UNL     1       2.703  -2.101   2.679  0.00  0.00    -0.158 OA
ENDBRANCH  13  14
ENDBRANCH   4  13
TORSDOF 4
