REMARK  Name = ZINC39939062
REMARK  8 active torsions:
REMARK  status: ('A' for Active; 'I' for Inactive)
REMARK    1  A    between atoms: C_1  and  N_2
REMARK    2  A    between atoms: C_8  and  O_9
REMARK    3  A    between atoms: O_9  and  C_10
REMARK    4  A    between atoms: C_13  and  C_16
REMARK    5  A    between atoms: C_17  and  C_18
REMARK    6  A    between atoms: C_17  and  C_20
REMARK    7  A    between atoms: N_29  and  C_36
REMARK    8  A    between atoms: N_32  and  C_35
REMARK                            x       y       z     vdW  Elec       q    Type
REMARK                         _______ _______ _______ _____ _____    ______ ____
ROOT
ATOM      1  C   UNL     1       3.476  -1.455   1.704  0.00  0.00    +0.132 A 
ATOM      2  C   UNL     1       3.226  -2.538   0.871  0.00  0.00    +0.047 A 
ATOM      3  C   UNL     1       4.240  -3.414   0.552  0.00  0.00    +0.011 A 
ATOM      4  C   UNL     1       5.524  -3.211   1.070  0.00  0.00    -0.024 A 
ATOM      5  C   UNL     1       5.771  -2.118   1.908  0.00  0.00    +0.011 A 
ATOM      6  C   UNL     1       4.751  -1.246   2.216  0.00  0.00    +0.047 A 
ENDROOT
BRANCH   4   7
ATOM      7  C   UNL     1       6.611  -4.143   0.734  0.00  0.00    +0.026 C 
ATOM      8  C   UNL     1       7.870  -3.683   0.580  0.00  0.00    +0.072 C 
BRANCH   8   9
ATOM      9  C   UNL     1       8.138  -2.200   0.587  0.00  0.00    +0.216 C 
ATOM     10  N   UNL     1       8.967  -1.832  -0.567  0.00  0.00    -0.359 N 
ATOM     11  C   UNL     1      10.071  -1.318  -0.107  0.00  0.00    +0.060 A 
ATOM     12  C   UNL     1      11.269  -0.774  -0.761  0.00  0.00    +0.027 A 
ATOM     13  C   UNL     1      12.281  -0.299  -0.008  0.00  0.00    +0.002 A 
ATOM     14  C   UNL     1      12.244  -0.300   1.398  0.00  0.00    +0.002 A 
ATOM     15  C   UNL     1      11.195  -0.775   2.097  0.00  0.00    +0.027 A 
ATOM     16  C   UNL     1      10.032  -1.318   1.381  0.00  0.00    +0.060 A 
ATOM     17  N   UNL     1       8.906  -1.832   1.783  0.00  0.00    -0.359 N 
ATOM     18  H   UNL     1       8.735  -1.950  -1.502  0.00  0.00    +0.162 HD
ATOM     19  H   UNL     1       8.625  -1.950   2.704  0.00  0.00    +0.162 HD
ENDBRANCH   8   9
BRANCH   8  20
ATOM     20  C   UNL     1       8.953  -4.605   0.410  0.00  0.00    +0.099 C 
ATOM     21  N   UNL     1       9.812  -5.336   0.276  0.00  0.00    -0.191 NA
ENDBRANCH   8  20
ENDBRANCH   4   7
BRANCH   1  22
ATOM     22  O   UNL     1       2.472  -0.594   2.015  0.00  0.00    -0.427 OA
BRANCH  22  28
ATOM     23  C   UNL     1      -0.123   0.958   2.748  0.00  0.00    +0.134 C 
ATOM     24  N   UNL     1       0.533  -0.172   3.410  0.00  0.00    -0.273 N 
ATOM     25  C   UNL     1       0.276  -0.725   4.738  0.00  0.00    +0.206 C 
ATOM     26  C   UNL     1       0.392  -2.233   4.350  0.00  0.00    +0.229 C 
ATOM     27  N   UNL     1       1.529  -2.194   3.462  0.00  0.00    -0.211 NA
ATOM     28  C   UNL     1       1.556  -0.990   2.926  0.00  0.00    +0.288 C 
ATOM     29  N   UNL     1       0.378  -2.981   5.578  0.00  0.00    -0.264 N 
ATOM     30  C   UNL     1      -0.582  -2.615   6.477  0.00  0.00    +0.312 C 
ATOM     31  O   UNL     1      -0.699  -3.244   7.510  0.00  0.00    -0.252 OA
ATOM     32  N   UNL     1      -1.403  -1.571   6.246  0.00  0.00    -0.227 N 
ATOM     33  C   UNL     1      -1.075  -0.569   5.353  0.00  0.00    +0.247 C 
ATOM     34  O   UNL     1      -1.808   0.360   5.090  0.00  0.00    -0.273 OA
ATOM     35  C   UNL     1      -2.678  -1.491   6.962  0.00  0.00    +0.143 C 
ATOM     36  C   UNL     1       1.329  -4.062   5.847  0.00  0.00    +0.136 C 
ENDBRANCH  22  28
ENDBRANCH   1  22
TORSDOF 5
