REMARK  Name = ZINC54427550
REMARK  5 active torsions:
REMARK  status: ('A' for Active; 'I' for Inactive)
REMARK    1  A    between atoms: C_1  and  N_2
REMARK    2  A    between atoms: C_3  and  C_5
REMARK    3  A    between atoms: C_5  and  N_6
REMARK    4  A    between atoms: N_15  and  C_27
REMARK    5  A    between atoms: C_16  and  C_18
REMARK                            x       y       z     vdW  Elec       q    Type
REMARK                         _______ _______ _______ _____ _____    ______ ____
ROOT
ATOM      1  N   UNL     1       1.552  -2.733   2.163  0.00  0.00    -0.298 N 
ATOM      2  C   UNL     1       2.926  -2.943   2.149  0.00  0.00    +0.044 A 
ATOM      3  C   UNL     1       3.770  -2.192   1.348  0.00  0.00    +0.024 A 
ATOM      4  C   UNL     1       5.128  -2.444   1.360  0.00  0.00    +0.002 A 
ATOM      5  C   UNL     1       5.653  -3.443   2.165  0.00  0.00    +0.001 A 
ATOM      6  C   UNL     1       4.827  -4.197   2.972  0.00  0.00    +0.015 A 
ATOM      7  C   UNL     1       3.455  -3.950   2.974  0.00  0.00    +0.058 A 
ATOM      8  C   UNL     1       2.535  -4.712   3.836  0.00  0.00    +0.250 C 
ATOM      9  O   UNL     1       2.928  -5.694   4.437  0.00  0.00    -0.270 OA
ATOM     10  N   UNL     1       1.253  -4.311   3.953  0.00  0.00    -0.278 N 
ATOM     11  C   UNL     1       0.804  -3.034   3.389  0.00  0.00    +0.199 C 
ATOM     12  C   UNL     1       0.294  -5.164   4.659  0.00  0.00    +0.134 C 
ENDROOT
BRANCH  11  13
ATOM     13  C   UNL     1       1.029  -1.933   4.394  0.00  0.00    +0.036 A 
ATOM     14  C   UNL     1       2.028  -2.057   5.342  0.00  0.00    +0.011 A 
ATOM     15  C   UNL     1       2.237  -1.049   6.265  0.00  0.00    +0.004 A 
ATOM     16  C   UNL     1       1.449   0.087   6.243  0.00  0.00    +0.049 A 
ATOM     17  C   UNL     1       0.447   0.218   5.296  0.00  0.00    +0.167 A 
ATOM     18  C   UNL     1       0.240  -0.796   4.362  0.00  0.00    +0.173 A 
ATOM     19  O   UNL     1      -0.789  -0.430   3.543  0.00  0.00    -0.452 OA
ATOM     20  C   UNL     1      -1.472   0.633   4.234  0.00  0.00    +0.466 C 
ATOM     21  O   UNL     1      -0.453   1.216   5.062  0.00  0.00    -0.453 OA
ENDBRANCH  11  13
BRANCH   1  22
ATOM     22  C   UNL     1       0.864  -2.216   0.978  0.00  0.00    +0.202 C 
BRANCH  22  25
ATOM     23  C   UNL     1       0.569   1.442  -0.113  0.00  0.00    +0.128 C 
ATOM     24  N   UNL     1       0.473  -0.020  -0.092  0.00  0.00    -0.317 N 
ATOM     25  C   UNL     1       0.962  -0.712   0.956  0.00  0.00    +0.230 C 
ATOM     26  O   UNL     1       1.481  -0.125   1.882  0.00  0.00    -0.274 OA
ATOM     27  H   UNL     1       0.059  -0.490  -0.832  0.00  0.00    +0.148 HD
ENDBRANCH  22  25
ENDBRANCH   1  22
TORSDOF 3
