REMARK  Name = ZINC20858065
REMARK  11 active torsions:
REMARK  status: ('A' for Active; 'I' for Inactive)
REMARK    1  A    between atoms: C_1  and  O_2
REMARK    2  A    between atoms: O_2  and  C_3
REMARK    3  A    between atoms: C_6  and  C_11
REMARK    4  A    between atoms: C_8  and  O_9
REMARK    5  A    between atoms: O_9  and  C_10
REMARK    6  A    between atoms: C_13  and  C_30
REMARK    7  A    between atoms: C_14  and  C_19
REMARK    8  A    between atoms: C_19  and  S_20
REMARK    9  A    between atoms: S_20  and  C_23
REMARK   10  A    between atoms: C_30  and  O_32
REMARK   11  A    between atoms: O_32  and  C_33
REMARK                            x       y       z     vdW  Elec       q    Type
REMARK                         _______ _______ _______ _____ _____    ______ ____
ROOT
ATOM      1  C   UNL     1      -5.684  -2.255   2.054  0.00  0.00    +0.144 C 
ATOM      2  C   UNL     1      -4.375  -1.496   2.145  0.00  0.00    +0.080 C 
ATOM      3  C   UNL     1      -4.425  -0.148   2.080  0.00  0.00    +0.045 C 
ATOM      4  N   UNL     1      -5.615   0.507   1.942  0.00  0.00    -0.271 N 
ATOM      5  C   UNL     1      -6.798  -0.113   1.852  0.00  0.00    +0.304 C 
ATOM      6  O   UNL     1      -7.805   0.557   1.725  0.00  0.00    -0.252 OA
ATOM      7  N   UNL     1      -6.910  -1.455   1.901  0.00  0.00    -0.288 N 
ATOM      8  H   UNL     1      -5.636   1.606   1.900  0.00  0.00    +0.156 HD
ATOM      9  H   UNL     1      -7.888  -1.954   1.830  0.00  0.00    +0.151 HD
ENDROOT
BRANCH   1  13
ATOM     10  C   UNL     1      -5.430  -4.922  -1.280  0.00  0.00    +0.162 A 
ATOM     11  C   UNL     1      -5.716  -3.581  -1.482  0.00  0.00    +0.050 A 
ATOM     12  C   UNL     1      -5.798  -2.722  -0.402  0.00  0.00    +0.009 A 
ATOM     13  C   UNL     1      -5.594  -3.197   0.881  0.00  0.00    -0.019 A 
ATOM     14  C   UNL     1      -5.303  -4.532   1.088  0.00  0.00    +0.055 A 
ATOM     15  C   UNL     1      -5.225  -5.400   0.011  0.00  0.00    +0.162 A 
BRANCH  10  17
ATOM     16  C   UNL     1      -5.569  -5.208  -3.637  0.00  0.00    +0.277 C 
ATOM     17  O   UNL     1      -5.348  -5.769  -2.341  0.00  0.00    -0.491 OA
ENDBRANCH  10  17
BRANCH  15  18
ATOM     18  O   UNL     1      -4.944  -6.715   0.214  0.00  0.00    -0.491 OA
ATOM     19  C   UNL     1      -4.746  -7.135   1.566  0.00  0.00    +0.277 C 
ENDBRANCH  15  18
ENDBRANCH   1  13
BRANCH   2  20
ATOM     20  C   UNL     1      -3.144  -2.177   2.292  0.00  0.00    +0.339 C 
ATOM     21  O   UNL     1      -2.807  -2.596   3.384  0.00  0.00    -0.245 OA
BRANCH  20  22
ATOM     22  O   UNL     1      -2.342  -2.361   1.222  0.00  0.00    -0.465 OA
ATOM     23  C   UNL     1      -1.114  -3.056   1.444  0.00  0.00    +0.280 C 
ENDBRANCH  20  22
ENDBRANCH   2  20
BRANCH   3  24
ATOM     24  C   UNL     1      -3.147   0.645   2.166  0.00  0.00    +0.223 C 
BRANCH  24  25
ATOM     25  S   UNL     1      -2.713   1.274   0.521  0.00  0.00    +0.002 S 
ATOM     26  O   UNL     1      -3.659   2.249   0.104  0.00  0.00    -0.169 OA
ATOM     27  O   UNL     1      -2.356   0.198  -0.336  0.00  0.00    -0.169 OA
BRANCH  25  28
ATOM     28  C   UNL     1      -1.217   2.174   0.761  0.00  0.00    +0.090 A 
ATOM     29  C   UNL     1       0.002   1.532   0.641  0.00  0.00    +0.027 A 
ATOM     30  C   UNL     1       1.176   2.239   0.823  0.00  0.00    +0.003 A 
ATOM     31  C   UNL     1       1.132   3.586   1.130  0.00  0.00    +0.020 A 
ATOM     32  C   UNL     1      -0.087   4.227   1.256  0.00  0.00    +0.043 A 
ATOM     33  C   UNL     1      -1.262   3.519   1.073  0.00  0.00    +0.047 A 
ATOM     34 CL   UNL     1      -0.143   5.919   1.642  0.00  0.00    -0.083 Cl
ENDBRANCH  25  28
ENDBRANCH  24  25
ENDBRANCH   3  24
TORSDOF 8
