REMARK  Name = ZINC13042045
REMARK  5 active torsions:
REMARK  status: ('A' for Active; 'I' for Inactive)
REMARK    1  A    between atoms: C_3  and  N_18
REMARK    2  A    between atoms: C_5  and  S_7
REMARK    3  A    between atoms: S_7  and  N_10
REMARK    4  A    between atoms: N_18  and  S_19
REMARK    5  A    between atoms: S_19  and  C_22
REMARK                            x       y       z     vdW  Elec       q    Type
REMARK                         _______ _______ _______ _____ _____    ______ ____
ROOT
ATOM      1  C   UNL     1      -0.017   1.378   0.010  0.00  0.00    +0.004 A 
ATOM      2  C   UNL     1       1.169   2.087   0.002  0.00  0.00    +0.024 A 
ATOM      3  C   UNL     1       2.381   1.409  -0.013  0.00  0.00    +0.050 A 
ATOM      4  C   UNL     1       2.396   0.020  -0.021  0.00  0.00    +0.053 A 
ATOM      5  C   UNL     1       1.207  -0.682  -0.013  0.00  0.00    +0.114 A 
ATOM      6  C   UNL     1       0.002  -0.004   0.002  0.00  0.00    +0.029 A 
ENDROOT
BRANCH   5   7
ATOM      7  S   UNL     1       1.225  -2.444  -0.023  0.00  0.00    +0.100 S 
ATOM      8  O   UNL     1      -0.021  -2.860  -0.565  0.00  0.00    -0.146 OA
ATOM      9  O   UNL     1       2.469  -2.834  -0.589  0.00  0.00    -0.146 OA
BRANCH   7  10
ATOM     10  N   UNL     1       1.246  -2.943   1.556  0.00  0.00    -0.118 NA
ATOM     11  C   UNL     1       1.262  -4.205   1.835  0.00  0.00    +0.117 C 
ATOM     12  C   UNL     1       1.268  -5.238   0.710  0.00  0.00    +0.073 C 
ATOM     13  C   UNL     1       2.629  -5.900   0.715  0.00  0.00    +0.008 C 
ATOM     14  C   UNL     1       2.712  -7.115   1.640  0.00  0.00    +0.002 C 
ATOM     15  C   UNL     1       2.031  -6.889   2.990  0.00  0.00    +0.019 C 
ATOM     16  C   UNL     1       2.322  -5.527   3.585  0.00  0.00    +0.102 C 
ATOM     17  N   UNL     1       1.278  -4.604   3.091  0.00  0.00    -0.331 N 
ATOM     18  H   UNL     1       0.594  -4.289   3.703  0.00  0.00    +0.147 HD
ENDBRANCH   7  10
ENDBRANCH   5   7
BRANCH   3  19
ATOM     19  N   UNL     1       3.582   2.122  -0.021  0.00  0.00    -0.216 N 
ATOM     20  H   UNL     1       4.296   1.862  -0.624  0.00  0.00    +0.174 HD
BRANCH  19  21
ATOM     21  S   UNL     1       3.786   3.412   0.997  0.00  0.00    +0.072 S 
ATOM     22  O   UNL     1       5.101   3.902   0.774  0.00  0.00    -0.150 OA
ATOM     23  O   UNL     1       2.633   4.229   0.853  0.00  0.00    -0.150 OA
BRANCH  21  24
ATOM     24  C   UNL     1       3.756   2.785   2.644  0.00  0.00    +0.109 A 
ATOM     25  C   UNL     1       2.557   2.691   3.326  0.00  0.00    +0.030 A 
ATOM     26  C   UNL     1       2.533   2.200   4.617  0.00  0.00    +0.022 A 
ATOM     27  C   UNL     1       3.708   1.801   5.228  0.00  0.00    +0.041 A 
ATOM     28  C   UNL     1       4.908   1.895   4.545  0.00  0.00    +0.022 A 
ATOM     29  C   UNL     1       4.930   2.381   3.251  0.00  0.00    +0.030 A 
ATOM     30 CL   UNL     1       3.679   1.184   6.850  0.00  0.00    -0.084 Cl
ENDBRANCH  21  24
ENDBRANCH  19  21
ENDBRANCH   3  19
TORSDOF 5
