REMARK  Name = ZINC00381547
REMARK  8 active torsions:
REMARK  status: ('A' for Active; 'I' for Inactive)
REMARK    1  A    between atoms: C_1  and  C_2
REMARK    2  A    between atoms: C_2  and  O_3
REMARK    3  A    between atoms: O_3  and  C_4
REMARK    4  A    between atoms: C_8  and  C_11
REMARK    5  A    between atoms: C_9  and  O_10
REMARK    6  A    between atoms: N_12  and  N_13
REMARK    7  A    between atoms: C_14  and  C_16
REMARK    8  A    between atoms: C_16  and  N_17
REMARK                            x       y       z     vdW  Elec       q    Type
REMARK                         _______ _______ _______ _____ _____    ______ ____
ROOT
ATOM      1  N   UNL     1      -5.489   3.497  -1.596  0.00  0.00    -0.205 N 
ATOM      2  C   UNL     1      -4.183   3.729  -1.361  0.00  0.00    +0.254 C 
ATOM      3  O   UNL     1      -3.415   3.871  -2.289  0.00  0.00    -0.272 OA
ATOM      4  H   UNL     1      -6.103   3.383  -0.853  0.00  0.00    +0.177 HD
ENDROOT
BRANCH   1   6
ATOM      5  C   UNL     1      -7.220   3.199  -3.139  0.00  0.00    +0.142 C 
ATOM      6  N   UNL     1      -5.962   3.421  -2.913  0.00  0.00    -0.188 NA
BRANCH   5  11
ATOM      7  C   UNL     1      -7.313   3.207  -6.901  0.00  0.00    +0.162 A 
ATOM      8  C   UNL     1      -8.659   2.969  -7.132  0.00  0.00    +0.049 A 
ATOM      9  C   UNL     1      -9.531   2.805  -6.070  0.00  0.00    +0.004 A 
ATOM     10  C   UNL     1      -9.071   2.879  -4.772  0.00  0.00    +0.013 A 
ATOM     11  C   UNL     1      -7.716   3.119  -4.525  0.00  0.00    +0.040 A 
ATOM     12  C   UNL     1      -6.835   3.289  -5.599  0.00  0.00    +0.167 A 
BRANCH  12  13
ATOM     13  O   UNL     1      -5.517   3.528  -5.369  0.00  0.00    -0.503 OA
ATOM     14  H   UNL     1      -4.976   2.728  -5.309  0.00  0.00    +0.292 HD
ENDBRANCH  12  13
BRANCH   7  15
ATOM     15  O   UNL     1      -6.461   3.366  -7.949  0.00  0.00    -0.489 OA
BRANCH  15  17
ATOM     16  C   UNL     1      -5.920   3.480 -10.302  0.00  0.00    +0.048 C 
ATOM     17  C   UNL     1      -7.022   3.276  -9.261  0.00  0.00    +0.226 C 
ENDBRANCH  15  17
ENDBRANCH   7  15
ENDBRANCH   5  11
ENDBRANCH   1   6
BRANCH   2  18
ATOM     18  C   UNL     1      -3.675   3.810   0.056  0.00  0.00    +0.243 C 
BRANCH  18  19
ATOM     19  N   UNL     1      -2.233   4.067   0.044  0.00  0.00    -0.235 N 
ATOM     20  C   UNL     1      -1.230   3.127   0.030  0.00  0.00    +0.090 A 
ATOM     21  C   UNL     1      -1.209   1.737   0.017  0.00  0.00    +0.029 A 
ATOM     22  C   UNL     1      -0.013   1.076   0.008  0.00  0.00    +0.002 A 
ATOM     23  C   UNL     1       1.184   1.781   0.000  0.00  0.00    +0.002 A 
ATOM     24  C   UNL     1       1.191   3.145   0.007  0.00  0.00    +0.032 A 
ATOM     25  C   UNL     1      -0.022   3.847   0.022  0.00  0.00    +0.113 A 
ATOM     26  N   UNL     1      -0.328   5.160   0.032  0.00  0.00    -0.129 NA
ATOM     27  N   UNL     1      -1.604   5.321   0.044  0.00  0.00    -0.064 NA
ENDBRANCH  18  19
ENDBRANCH   2  18
TORSDOF 7
