REMARK  Name = ZINC63944521
REMARK  6 active torsions:
REMARK  status: ('A' for Active; 'I' for Inactive)
REMARK    1  A    between atoms: C_1  and  O_2
REMARK    2  A    between atoms: O_2  and  C_3
REMARK    3  A    between atoms: C_3  and  C_4
REMARK    4  A    between atoms: C_4  and  N_5
REMARK    5  A    between atoms: C_7  and  N_11
REMARK    6  A    between atoms: C_17  and  C_20
REMARK                            x       y       z     vdW  Elec       q    Type
REMARK                         _______ _______ _______ _____ _____    ______ ____
ROOT
ATOM      1  N   UNL     1      -0.033  -2.442   4.609  0.00  0.00    -0.290 N 
ATOM      2  C   UNL     1       0.494  -2.850   5.781  0.00  0.00    +0.303 C 
ATOM      3  O   UNL     1       0.889  -3.994   5.904  0.00  0.00    -0.253 OA
ATOM      4  N   UNL     1       0.585  -1.991   6.815  0.00  0.00    -0.282 N 
ATOM      5  C   UNL     1       1.258  -2.371   8.069  0.00  0.00    +0.114 C 
ATOM      6  C   UNL     1       2.463  -1.447   8.258  0.00  0.00    +0.054 C 
ATOM      7  C   UNL     1       2.077  -0.022   7.994  0.00  0.00    -0.043 C 
ATOM      8  C   UNL     1       0.998   0.344   7.313  0.00  0.00    -0.004 C 
ATOM      9  C   UNL     1       0.022  -0.636   6.733  0.00  0.00    +0.137 C 
ATOM     10  H   UNL     1      -0.414  -1.554   4.533  0.00  0.00    +0.151 HD
ENDROOT
BRANCH   7  11
ATOM     11  C   UNL     1       2.913   0.994   8.502  0.00  0.00    -0.016 C 
ATOM     12  C   UNL     1       4.140   0.833   9.134  0.00  0.00    +0.003 A 
ATOM     13  C   UNL     1       4.905  -0.311   9.458  0.00  0.00    +0.010 A 
ATOM     14  C   UNL     1       6.095  -0.166  10.092  0.00  0.00    +0.001 A 
ATOM     15  C   UNL     1       6.593   1.094  10.439  0.00  0.00    +0.002 A 
ATOM     16  C   UNL     1       5.915   2.233  10.161  0.00  0.00    +0.026 A 
ATOM     17  C   UNL     1       4.660   2.164   9.498  0.00  0.00    +0.043 A 
ATOM     18  N   UNL     1       3.821   3.104   9.121  0.00  0.00    -0.380 N 
ATOM     19  C   UNL     1       2.665   2.485   8.466  0.00  0.00    +0.149 C 
ATOM     20  H   UNL     1       3.949   4.057   9.253  0.00  0.00    +0.160 HD
ENDBRANCH   7  11
BRANCH   1  23
ATOM     21  N   UNL     1      -0.447  -2.620   1.240  0.00  0.00    -0.252 N 
ATOM     22  C   UNL     1      -1.165  -2.971   2.477  0.00  0.00    +0.154 C 
ATOM     23  C   UNL     1      -0.030  -3.340   3.452  0.00  0.00    +0.136 C 
ATOM     24  C   UNL     1       1.226  -3.151   2.632  0.00  0.00    +0.127 C 
ATOM     25  N   UNL     1       0.920  -2.770   1.460  0.00  0.00    -0.195 NA
BRANCH  21  26
ATOM     26  C   UNL     1      -1.068  -2.191  -0.016  0.00  0.00    +0.154 C 
BRANCH  26  27
ATOM     27  C   UNL     1      -1.204  -0.667  -0.023  0.00  0.00    +0.180 C 
BRANCH  27  29
ATOM     28  C   UNL     1       0.082   1.355  -0.029  0.00  0.00    +0.194 C 
ATOM     29  O   UNL     1       0.096  -0.074  -0.022  0.00  0.00    -0.381 OA
ENDBRANCH  27  29
ENDBRANCH  26  27
ENDBRANCH  21  26
ENDBRANCH   1  23
TORSDOF 5
