REMARK  Name = ZINC46031625
REMARK  4 active torsions:
REMARK  status: ('A' for Active; 'I' for Inactive)
REMARK    1  A    between atoms: C_4  and  C_7
REMARK    2  A    between atoms: C_13  and  S_15
REMARK    3  A    between atoms: S_15  and  C_16
REMARK    4  A    between atoms: C_16  and  C_17
REMARK                            x       y       z     vdW  Elec       q    Type
REMARK                         _______ _______ _______ _____ _____    ______ ____
ROOT
ATOM      1  C   UNL     1       3.695  -0.684  -0.038  0.00  0.00    +0.250 C 
ATOM      2  O   UNL     1       4.738  -0.059  -0.046  0.00  0.00    -0.270 OA
ATOM      3  N   UNL     1       3.717  -2.032  -0.046  0.00  0.00    -0.259 N 
ATOM      4  C   UNL     1       4.933  -2.708  -0.062  0.00  0.00    +0.189 A 
ATOM      5  N   UNL     1       6.169  -2.235  -0.066  0.00  0.00    -0.125 NA
ATOM      6  N   UNL     1       7.175  -2.995  -0.081  0.00  0.00    -0.133 NA
ATOM      7  C   UNL     1       7.056  -4.315  -0.093  0.00  0.00    +0.160 A 
ATOM      8  S   UNL     1       5.272  -4.466  -0.075  0.00  0.00    -0.024 S 
ATOM      9  H   UNL     1       2.885  -2.530  -0.040  0.00  0.00    +0.157 HD
ENDROOT
BRANCH   1  13
ATOM     10  C   UNL     1      -0.017   1.379   0.010  0.00  0.00    +0.000 A 
ATOM     11  C   UNL     1       1.168   2.094   0.002  0.00  0.00    +0.001 A 
ATOM     12  C   UNL     1       2.377   1.430  -0.013  0.00  0.00    +0.013 A 
ATOM     13  C   UNL     1       2.404   0.034  -0.021  0.00  0.00    +0.037 A 
ATOM     14  C   UNL     1       1.204  -0.681  -0.013  0.00  0.00    +0.013 A 
ATOM     15  C   UNL     1       0.002  -0.004   0.002  0.00  0.00    +0.001 A 
ENDBRANCH   1  13
BRANCH   7  16
ATOM     16  S   UNL     1       8.299  -5.564  -0.116  0.00  0.00    -0.091 S 
BRANCH  16  17
ATOM     17  C   UNL     1       9.856  -4.634  -0.118  0.00  0.00    +0.132 C 
BRANCH  17  18
ATOM     18  C   UNL     1      11.016  -5.596  -0.136  0.00  0.00    +0.059 A 
ATOM     19  C   UNL     1      11.740  -5.783  -1.298  0.00  0.00    +0.094 A 
ATOM     20  C   UNL     1      12.813  -6.681  -1.290  0.00  0.00    +0.259 A 
ATOM     21  O   UNL     1      13.472  -6.868  -2.301  0.00  0.00    -0.267 OA
ATOM     22  N   UNL     1      13.107  -7.338  -0.148  0.00  0.00    -0.267 N 
ATOM     23  C   UNL     1      14.149  -8.216  -0.125  0.00  0.00    +0.116 A 
ATOM     24  C   UNL     1      14.463  -8.886   1.008  0.00  0.00    +0.058 A 
ATOM     25  C   UNL     1      13.715  -8.682   2.177  0.00  0.00    +0.025 A 
ATOM     26  C   UNL     1      12.672  -7.806   2.163  0.00  0.00    +0.048 A 
ATOM     27  C   UNL     1      12.361  -7.119   0.975  0.00  0.00    +0.141 A 
ATOM     28  N   UNL     1      11.344  -6.258   0.962  0.00  0.00    -0.233 NA
ATOM     29 CL   UNL     1      15.794 -10.000   1.014  0.00  0.00    -0.082 Cl
ENDBRANCH  17  18
ENDBRANCH  16  17
ENDBRANCH   7  16
TORSDOF 4
