REMARK  Name = ZINC02092533
REMARK  7 active torsions:
REMARK  status: ('A' for Active; 'I' for Inactive)
REMARK    1  A    between atoms: C_1  and  C_2
REMARK    2  A    between atoms: C_6  and  O_8
REMARK    3  A    between atoms: O_8  and  C_9
REMARK    4  A    between atoms: C_9  and  C_10
REMARK    5  A    between atoms: C_25  and  C_27
REMARK    6  A    between atoms: C_27  and  O_29
REMARK    7  A    between atoms: O_29  and  C_30
REMARK                            x       y       z     vdW  Elec       q    Type
REMARK                         _______ _______ _______ _____ _____    ______ ____
ROOT
ATOM      1  C   UNL     1      -0.287  -4.950  -2.010  0.00  0.00    +0.254 C 
ATOM      2  O   UNL     1       0.899  -5.186  -1.922  0.00  0.00    -0.272 OA
ATOM      3  N   UNL     1      -1.152  -5.504  -1.136  0.00  0.00    -0.279 N 
ATOM      4  C   UNL     1      -2.579  -5.143  -1.154  0.00  0.00    +0.162 C 
ATOM      5  C   UNL     1      -3.012  -4.927   0.279  0.00  0.00    +0.038 A 
ATOM      6  C   UNL     1      -2.255  -5.267   1.345  0.00  0.00    -0.015 A 
ATOM      7  C   UNL     1      -3.009  -4.910   2.530  0.00  0.00    +0.003 A 
ATOM      8  C   UNL     1      -2.737  -5.026   3.896  0.00  0.00    +0.010 A 
ATOM      9  C   UNL     1      -3.702  -4.572   4.761  0.00  0.00    +0.001 A 
ATOM     10  C   UNL     1      -4.892  -4.021   4.314  0.00  0.00    +0.002 A 
ATOM     11  C   UNL     1      -5.186  -3.894   2.967  0.00  0.00    +0.026 A 
ATOM     12  C   UNL     1      -4.226  -4.347   2.066  0.00  0.00    +0.047 A 
ATOM     13  N   UNL     1      -4.191  -4.374   0.701  0.00  0.00    -0.356 N 
ATOM     14  H   UNL     1      -4.896  -4.050   0.119  0.00  0.00    +0.166 HD
ATOM     15  C   UNL     1      -0.888  -5.898   1.263  0.00  0.00    +0.071 C 
ATOM     16  C   UNL     1      -0.694  -6.489  -0.144  0.00  0.00    +0.189 C 
ENDROOT
BRANCH  16  17
ATOM     17  C   UNL     1       0.764  -6.793  -0.371  0.00  0.00    +0.328 C 
ATOM     18  O   UNL     1       1.609  -6.018   0.011  0.00  0.00    -0.249 OA
BRANCH  17  19
ATOM     19  O   UNL     1       1.125  -7.925  -0.997  0.00  0.00    -0.467 OA
ATOM     20  C   UNL     1       2.547  -8.152  -1.181  0.00  0.00    +0.280 C 
ENDBRANCH  17  19
ENDBRANCH  16  17
BRANCH   1  21
ATOM     21  C   UNL     1      -0.795  -4.037  -3.096  0.00  0.00    +0.324 C 
BRANCH  21  22
ATOM     22  O   UNL     1       0.304  -3.580  -3.887  0.00  0.00    -0.482 OA
BRANCH  22  28
ATOM     23  C   UNL     1      -3.015  -1.115  -6.475  0.00  0.00    +0.044 C 
ATOM     24  C   UNL     1      -1.585  -1.511  -6.214  0.00  0.00    -0.043 A 
ATOM     25  C   UNL     1      -0.582  -1.023  -7.029  0.00  0.00    +0.050 A 
ATOM     26  C   UNL     1       0.737  -1.387  -6.800  0.00  0.00    +0.143 A 
ATOM     27  C   UNL     1       1.043  -2.253  -5.737  0.00  0.00    +0.063 A 
ATOM     28  C   UNL     1       0.017  -2.743  -4.915  0.00  0.00    +0.132 A 
ATOM     29  C   UNL     1      -1.292  -2.365  -5.164  0.00  0.00    +0.050 A 
ATOM     30  C   UNL     1       2.441  -2.632  -5.500  0.00  0.00    -0.023 A 
ATOM     31  C   UNL     1       3.388  -2.134  -6.324  0.00  0.00    +0.041 A 
ATOM     32  C   UNL     1       3.007  -1.263  -7.375  0.00  0.00    +0.341 A 
ATOM     33  O   UNL     1       3.868  -0.813  -8.109  0.00  0.00    -0.245 OA
ATOM     34  O   UNL     1       1.730  -0.918  -7.586  0.00  0.00    -0.422 OA
ATOM     35  C   UNL     1       4.850  -2.467  -6.178  0.00  0.00    +0.042 C 
ATOM     36  C   UNL     1       5.138  -3.029  -4.787  0.00  0.00    +0.005 C 
ATOM     37  C   UNL     1       4.143  -4.162  -4.509  0.00  0.00    +0.005 C 
ATOM     38  C   UNL     1       2.752  -3.549  -4.350  0.00  0.00    +0.036 C 
ENDBRANCH  22  28
ENDBRANCH  21  22
ENDBRANCH   1  21
TORSDOF 5
