REMARK  Name = ZINC26918326
REMARK  3 active torsions:
REMARK  status: ('A' for Active; 'I' for Inactive)
REMARK    1  A    between atoms: C_9  and  N_11
REMARK    2  A    between atoms: C_12  and  C_14
REMARK    3  A    between atoms: N_17  and  C_19
REMARK                            x       y       z     vdW  Elec       q    Type
REMARK                         _______ _______ _______ _____ _____    ______ ____
ROOT
ATOM      1  C   UNL     1      -1.337   7.369  -0.193  0.00  0.00    +0.151 A 
ATOM      2  C   UNL     1      -2.489   8.174  -0.229  0.00  0.00    +0.006 A 
ATOM      3  C   UNL     1      -2.047   9.455  -0.278  0.00  0.00    +0.049 A 
ATOM      4  N   UNL     1      -0.697   9.411  -0.278  0.00  0.00    -0.236 N 
ATOM      5  N   UNL     1      -0.298   8.186  -0.229  0.00  0.00    -0.161 NA
ATOM      6  C   UNL     1      -2.956  10.656  -0.330  0.00  0.00    +0.056 C 
ATOM      7  C   UNL     1      -4.360  10.182  -0.725  0.00  0.00    +0.006 C 
ATOM      8  C   UNL     1      -4.775   9.005   0.162  0.00  0.00    +0.005 C 
ATOM      9  C   UNL     1      -3.937   7.770  -0.199  0.00  0.00    +0.039 C 
ENDROOT
BRANCH   4  10
ATOM     10  C   UNL     1       0.145  10.530  -0.324  0.00  0.00    +0.066 A 
ATOM     11  C   UNL     1       1.276  10.517  -1.130  0.00  0.00    +0.030 A 
ATOM     12  C   UNL     1       2.101  11.623  -1.178  0.00  0.00    +0.040 A 
ATOM     13  C   UNL     1       1.808  12.741  -0.414  0.00  0.00    +0.124 A 
ATOM     14  C   UNL     1       0.683  12.754   0.394  0.00  0.00    +0.040 A 
ATOM     15  C   UNL     1      -0.148  11.652   0.440  0.00  0.00    +0.030 A 
ATOM     16  F   UNL     1       2.620  13.820  -0.458  0.00  0.00    -0.205 F 
ENDBRANCH   4  10
BRANCH   1  18
ATOM     17  N   UNL     1      -0.110   5.254  -0.110  0.00  0.00    -0.278 N 
ATOM     18  C   UNL     1      -1.296   5.894  -0.134  0.00  0.00    +0.269 C 
ATOM     19  O   UNL     1      -2.331   5.257  -0.106  0.00  0.00    -0.268 OA
ATOM     20  H   UNL     1       0.825   5.830  -0.045  0.00  0.00    +0.155 HD
BRANCH  17  29
ATOM     21  C   UNL     1      -1.114   1.762  -0.723  0.00  0.00    +0.003 A 
ATOM     22  C   UNL     1      -0.016   1.072  -0.300  0.00  0.00    +0.011 A 
ATOM     23  C   UNL     1       1.097   1.764   0.199  0.00  0.00    +0.021 A 
ATOM     24  C   UNL     1       2.357   1.354   0.699  0.00  0.00    +0.142 A 
ATOM     25  N   UNL     1       3.035   2.412   1.038  0.00  0.00    -0.181 NA
ATOM     26  N   UNL     1       2.275   3.561   0.786  0.00  0.00    -0.275 N 
ATOM     27  H   UNL     1       2.690   4.555   1.012  0.00  0.00    +0.189 HD
ATOM     28  C   UNL     1       1.069   3.169   0.265  0.00  0.00    +0.087 A 
ATOM     29  C   UNL     1      -0.068   3.857  -0.169  0.00  0.00    +0.059 A 
ATOM     30  C   UNL     1      -1.151   3.148  -0.656  0.00  0.00    +0.025 A 
ENDBRANCH  17  29
ENDBRANCH   1  18
TORSDOF 3
