REMARK  Name = ZINC66663119
REMARK  6 active torsions:
REMARK  status: ('A' for Active; 'I' for Inactive)
REMARK    1  A    between atoms: C_1  and  C_2
REMARK    2  A    between atoms: C_2  and  N_3
REMARK    3  A    between atoms: C_6  and  N_9
REMARK    4  A    between atoms: C_10  and  N_14
REMARK    5  A    between atoms: C_15  and  C_17
REMARK    6  A    between atoms: N_20  and  C_22
REMARK                            x       y       z     vdW  Elec       q    Type
REMARK                         _______ _______ _______ _____ _____    ______ ____
ROOT
ATOM      1  N   UNL     1       0.005  -3.901  -5.882  0.00  0.00    -0.266 N 
ATOM      2  C   UNL     1      -0.267  -4.715  -6.921  0.00  0.00    +0.252 C 
ATOM      3  O   UNL     1       0.566  -4.893  -7.789  0.00  0.00    -0.270 OA
ATOM      4  H   UNL     1      -0.660  -3.759  -5.190  0.00  0.00    +0.157 HD
ENDROOT
BRANCH   1   6
ATOM      5  N   UNL     1       1.647  -2.425  -4.820  0.00  0.00    -0.248 N 
ATOM      6  C   UNL     1       1.242  -3.263  -5.801  0.00  0.00    +0.124 A 
ATOM      7  C   UNL     1       2.262  -3.371  -6.696  0.00  0.00    +0.065 A 
ATOM      8  C   UNL     1       3.316  -2.573  -6.242  0.00  0.00    +0.136 A 
ATOM      9  N   UNL     1       2.947  -2.003  -5.123  0.00  0.00    -0.178 NA
BRANCH   5  13
ATOM     10  N   UNL     1       0.690  -0.478  -1.207  0.00  0.00    +0.380 N 
ATOM     11  C   UNL     1      -0.082  -0.085  -2.392  0.00  0.00    -0.077 C 
ATOM     12  C   UNL     1       0.671  -0.505  -3.657  0.00  0.00    +0.008 C 
ATOM     13  C   UNL     1       0.861  -2.025  -3.650  0.00  0.00    +0.106 C 
ATOM     14  C   UNL     1       1.601  -2.431  -2.373  0.00  0.00    +0.008 C 
ATOM     15  C   UNL     1       0.815  -1.939  -1.155  0.00  0.00    -0.077 C 
ATOM     16  H   UNL     1       1.609  -0.064  -1.253  0.00  0.00    -0.082 HD
BRANCH  10  18
ATOM     17  C   UNL     1      -0.019   1.526   0.010  0.00  0.00    -0.017 C 
ATOM     18  C   UNL     1       0.002  -0.004   0.002  0.00  0.00    -0.082 C 
ENDBRANCH  10  18
ENDBRANCH   5  13
ENDBRANCH   1   6
BRANCH   2  19
ATOM     19  C   UNL     1      -1.575  -5.389  -7.006  0.00  0.00    +0.075 A 
ATOM     20  C   UNL     1      -2.639  -5.276  -6.083  0.00  0.00    +0.147 A 
ATOM     21  N   UNL     1      -3.622  -6.022  -6.505  0.00  0.00    -0.174 NA
ATOM     22  N   UNL     1      -3.241  -6.640  -7.702  0.00  0.00    -0.239 N 
ATOM     23  C   UNL     1      -1.992  -6.245  -8.006  0.00  0.00    +0.127 A 
BRANCH  22  24
ATOM     24  C   UNL     1      -4.031  -7.518  -8.458  0.00  0.00    +0.065 A 
ATOM     25  C   UNL     1      -3.530  -8.070  -9.629  0.00  0.00    +0.029 A 
ATOM     26  C   UNL     1      -4.309  -8.934 -10.373  0.00  0.00    +0.022 A 
ATOM     27  C   UNL     1      -5.589  -9.250  -9.951  0.00  0.00    +0.041 A 
ATOM     28  C   UNL     1      -6.091  -8.700  -8.784  0.00  0.00    +0.022 A 
ATOM     29  C   UNL     1      -5.313  -7.840  -8.034  0.00  0.00    +0.029 A 
ATOM     30 CL   UNL     1      -6.567 -10.336 -10.888  0.00  0.00    -0.084 Cl
ENDBRANCH  22  24
ENDBRANCH   2  19
TORSDOF 5
