REMARK  Name = ZINC40348728
REMARK  6 active torsions:
REMARK  status: ('A' for Active; 'I' for Inactive)
REMARK    1  A    between atoms: C_3  and  S_10
REMARK    2  A    between atoms: C_4  and  C_8
REMARK    3  A    between atoms: C_6  and  N_7
REMARK    4  A    between atoms: S_10  and  N_13
REMARK    5  A    between atoms: N_13  and  C_14
REMARK    6  A    between atoms: C_14  and  C_15
REMARK                            x       y       z     vdW  Elec       q    Type
REMARK                         _______ _______ _______ _____ _____    ______ ____
ROOT
ATOM      1  S   UNL     1       3.884   2.348  -0.024  0.00  0.00    +0.060 S 
ATOM      2  O   UNL     1       4.685   1.798  -1.060  0.00  0.00    -0.153 OA
ATOM      3  O   UNL     1       3.525   3.723   0.014  0.00  0.00    -0.153 OA
ENDROOT
BRANCH   1   6
ATOM      4  C   UNL     1      -0.017   1.386   0.010  0.00  0.00    +0.025 A 
ATOM      5  C   UNL     1       1.168   2.098   0.002  0.00  0.00    +0.031 A 
ATOM      6  C   UNL     1       2.378   1.434  -0.013  0.00  0.00    +0.123 A 
ATOM      7  C   UNL     1       2.408   0.038  -0.021  0.00  0.00    +0.080 A 
ATOM      8  C   UNL     1       1.212  -0.681  -0.013  0.00  0.00    +0.043 A 
ATOM      9  C   UNL     1       0.002  -0.004   0.002  0.00  0.00    +0.026 A 
BRANCH   9  10
ATOM     10  N   UNL     1      -1.198  -0.719   0.010  0.00  0.00    -0.358 N 
ATOM     11  H   UNL     1      -2.045  -0.245   0.021  0.00  0.00    +0.142 HD
ATOM     12  H   UNL     1      -1.185  -1.689   0.005  0.00  0.00    +0.142 HD
ENDBRANCH   9  10
BRANCH   7  13
ATOM     13  C   UNL     1       3.662  -0.654  -0.038  0.00  0.00    +0.101 C 
ATOM     14  N   UNL     1       4.656  -1.202  -0.051  0.00  0.00    -0.191 NA
ENDBRANCH   7  13
ENDBRANCH   1   6
BRANCH   1  15
ATOM     15  N   UNL     1       4.664   2.023   1.400  0.00  0.00    -0.190 NA
ATOM     16  H   UNL     1       4.804   2.731   2.049  0.00  0.00    +0.148 HD
BRANCH  15  17
ATOM     17  C   UNL     1       5.143   0.667   1.681  0.00  0.00    +0.111 C 
BRANCH  17  18
ATOM     18  C   UNL     1       6.131   0.707   2.848  0.00  0.00    +0.027 C 
ATOM     19  C   UNL     1       7.398   1.472   2.430  0.00  0.00    +0.029 C 
ATOM     20  C   UNL     1       8.519   1.245   3.473  0.00  0.00    +0.166 C 
ATOM     21  S   UNL     1       8.106  -0.411   4.156  0.00  0.00    -0.031 S 
ATOM     22  O   UNL     1       9.095  -1.343   3.740  0.00  0.00    -0.174 OA
ATOM     23  O   UNL     1       7.808  -0.280   5.539  0.00  0.00    -0.174 OA
ATOM     24  C   UNL     1       6.546  -0.742   3.234  0.00  0.00    +0.170 C 
ENDBRANCH  17  18
ENDBRANCH  15  17
ENDBRANCH   1  15
TORSDOF 6
