REMARK  Name = ZINC48252965
REMARK  5 active torsions:
REMARK  status: ('A' for Active; 'I' for Inactive)
REMARK    1  A    between atoms: C_1  and  C_2
REMARK    2  A    between atoms: C_2  and  C_4
REMARK    3  A    between atoms: C_2  and  O_14
REMARK    4  A    between atoms: O_14  and  C_15
REMARK    5  A    between atoms: C_15  and  C_17
REMARK                            x       y       z     vdW  Elec       q    Type
REMARK                         _______ _______ _______ _____ _____    ______ ____
ROOT
ATOM      1  O   UNL     1       0.668  -0.469  -1.174  0.00  0.00    -0.449 OA
ENDROOT
BRANCH   1   3
ATOM      2  C   UNL     1      -0.021   1.523   0.009  0.00  0.00    +0.062 C 
ATOM      3  C   UNL     1       0.000  -0.007   0.002  0.00  0.00    +0.259 C 
BRANCH   3   4
ATOM      4  C   UNL     1       0.730  -0.505   1.223  0.00  0.00    +0.259 C 
ATOM      5  O   UNL     1       1.774  -1.110   1.101  0.00  0.00    -0.271 OA
ATOM      6  N   UNL     1       0.223  -0.277   2.451  0.00  0.00    -0.267 N 
ATOM      7  C   UNL     1       0.841  -0.827   3.573  0.00  0.00    +0.125 A 
ATOM      8  C   UNL     1       0.255  -0.676   4.825  0.00  0.00    +0.045 A 
ATOM      9  C   UNL     1       0.877  -1.227   5.931  0.00  0.00    +0.025 A 
ATOM     10  C   UNL     1       2.071  -1.913   5.745  0.00  0.00    +0.059 A 
ATOM     11  C   UNL     1       2.597  -2.023   4.472  0.00  0.00    +0.132 A 
ATOM     12  N   UNL     1       1.977  -1.492   3.436  0.00  0.00    -0.239 NA
ATOM     13 CL   UNL     1       2.894  -2.623   7.099  0.00  0.00    -0.082 Cl
ATOM     14  H   UNL     1      -0.571   0.271   2.553  0.00  0.00    +0.156 HD
ENDBRANCH   3   4
ENDBRANCH   1   3
BRANCH   1  15
ATOM     15  C   UNL     1      -0.092  -0.679  -2.267  0.00  0.00    +0.340 C 
ATOM     16  O   UNL     1      -1.289  -0.475  -2.223  0.00  0.00    -0.245 OA
BRANCH  15  17
ATOM     17  C   UNL     1       0.529  -1.155  -3.516  0.00  0.00    +0.059 A 
ATOM     18  C   UNL     1       1.906  -1.396  -3.567  0.00  0.00    +0.017 A 
ATOM     19  C   UNL     1       2.482  -1.842  -4.735  0.00  0.00    +0.024 A 
ATOM     20  C   UNL     1       1.697  -2.053  -5.865  0.00  0.00    +0.037 A 
ATOM     21  C   UNL     1       0.327  -1.813  -5.817  0.00  0.00    -0.025 A 
ATOM     22  C   UNL     1      -0.257  -1.374  -4.651  0.00  0.00    +0.020 A 
ATOM     23  C   UNL     1      -0.517  -2.044  -7.044  0.00  0.00    +0.046 C 
ATOM     24  C   UNL     1       0.296  -1.702  -8.294  0.00  0.00    +0.101 C 
ATOM     25  C   UNL     1       1.646  -2.364  -8.222  0.00  0.00    +0.218 C 
ATOM     26  O   UNL     1       2.166  -2.775  -9.238  0.00  0.00    -0.275 OA
ATOM     27  N   UNL     1       2.283  -2.504  -7.046  0.00  0.00    -0.285 N 
ATOM     28  H   UNL     1       3.158  -2.923  -7.020  0.00  0.00    +0.155 HD
ENDBRANCH  15  17
ENDBRANCH   1  15
TORSDOF 4
