REMARK  Name = ZINC38688898
REMARK  12 active torsions:
REMARK  status: ('A' for Active; 'I' for Inactive)
REMARK    1  A    between atoms: C_1  and  C_2
REMARK    2  A    between atoms: C_2  and  O_3
REMARK    3  A    between atoms: O_3  and  C_4
REMARK    4  A    between atoms: C_9  and  C_31
REMARK    5  A    between atoms: C_11  and  N_14
REMARK    6  A    between atoms: C_15  and  C_17
REMARK    7  A    between atoms: C_17  and  N_18
REMARK    8  A    between atoms: C_21  and  C_24
REMARK    9  A    between atoms: C_24  and  C_25
REMARK   10  A    between atoms: C_31  and  O_33
REMARK   11  A    between atoms: O_33  and  C_34
REMARK   12  A    between atoms: C_34  and  C_35
REMARK                            x       y       z     vdW  Elec       q    Type
REMARK                         _______ _______ _______ _____ _____    ______ ____
ROOT
ATOM      1  N   UNL     1       2.529  -3.908  -4.908  0.00  0.00    -0.288 N 
ATOM      2  C   UNL     1       2.753  -2.584  -5.025  0.00  0.00    +0.200 C 
ATOM      3  O   UNL     1       2.567  -1.852  -4.076  0.00  0.00    -0.278 OA
ATOM      4  H   UNL     1       2.757  -4.505  -5.639  0.00  0.00    +0.155 HD
ENDROOT
BRANCH   1  11
ATOM      5  C   UNL     1       1.923  -8.139  -3.502  0.00  0.00    +0.121 A 
ATOM      6  C   UNL     1       1.313  -8.219  -2.242  0.00  0.00    +0.047 A 
ATOM      7  C   UNL     1       0.957  -7.111  -1.549  0.00  0.00    +0.029 A 
ATOM      8  C   UNL     1       1.200  -5.825  -2.097  0.00  0.00    +0.045 A 
ATOM      9  N   UNL     1       0.951  -4.617  -1.630  0.00  0.00    -0.367 N 
ATOM     10  C   UNL     1       1.407  -3.623  -2.607  0.00  0.00    +0.234 C 
ATOM     11  C   UNL     1       1.983  -4.410  -3.764  0.00  0.00    +0.053 C 
ATOM     12  C   UNL     1       1.841  -5.742  -3.421  0.00  0.00    +0.021 A 
ATOM     13  C   UNL     1       2.191  -6.942  -4.087  0.00  0.00    +0.057 A 
ATOM     14  H   UNL     1       0.533  -4.419  -0.778  0.00  0.00    +0.161 HD
BRANCH  10  15
ATOM     15  C   UNL     1       0.246  -2.784  -3.074  0.00  0.00    +0.336 C 
ATOM     16  O   UNL     1      -0.878  -3.225  -3.022  0.00  0.00    -0.248 OA
BRANCH  15  17
ATOM     17  O   UNL     1       0.460  -1.547  -3.550  0.00  0.00    -0.463 OA
BRANCH  17  18
ATOM     18  C   UNL     1      -0.686  -0.808  -3.975  0.00  0.00    +0.229 C 
ATOM     19  C   UNL     1      -0.247   0.567  -4.481  0.00  0.00    +0.048 C 
ENDBRANCH  17  18
ENDBRANCH  15  17
ENDBRANCH  10  15
BRANCH   5  20
ATOM     20  O   UNL     1       2.258  -9.286  -4.151  0.00  0.00    -0.492 OA
BRANCH  20  22
ATOM     21  C   UNL     1       2.401 -11.689  -4.370  0.00  0.00    +0.048 C 
ATOM     22  C   UNL     1       1.954 -10.518  -3.493  0.00  0.00    +0.225 C 
ENDBRANCH  20  22
ENDBRANCH   5  20
ENDBRANCH   1  11
BRANCH   2  23
ATOM     23  C   UNL     1       3.234  -2.014  -6.334  0.00  0.00    +0.019 C 
BRANCH  23  24
ATOM     24  N   UNL     1       3.400  -0.560  -6.203  0.00  0.00    +0.385 N 
ATOM     25  C   UNL     1       4.464  -0.276  -5.232  0.00  0.00    -0.078 C 
ATOM     26  C   UNL     1       4.586   1.236  -5.031  0.00  0.00    -0.015 C 
ATOM     27  C   UNL     1       4.925   1.897  -6.370  0.00  0.00    -0.010 C 
ATOM     28  C   UNL     1       3.847   1.534  -7.395  0.00  0.00    -0.015 C 
ATOM     29  C   UNL     1       3.752   0.011  -7.509  0.00  0.00    -0.078 C 
ATOM     30  H   UNL     1       2.536  -0.151  -5.881  0.00  0.00    -0.081 HD
BRANCH  27  31
ATOM     31  C   UNL     1       4.971   3.416  -6.193  0.00  0.00    +0.038 C 
BRANCH  31  32
ATOM     32  C   UNL     1       5.424   4.059  -7.479  0.00  0.00    -0.047 A 
ATOM     33  C   UNL     1       6.771   4.271  -7.708  0.00  0.00    +0.003 A 
ATOM     34  C   UNL     1       7.186   4.860  -8.888  0.00  0.00    +0.000 A 
ATOM     35  C   UNL     1       6.255   5.236  -9.838  0.00  0.00    +0.000 A 
ATOM     36  C   UNL     1       4.909   5.023  -9.609  0.00  0.00    +0.000 A 
ATOM     37  C   UNL     1       4.494   4.430  -8.431  0.00  0.00    +0.003 A 
ENDBRANCH  31  32
ENDBRANCH  27  31
ENDBRANCH  23  24
ENDBRANCH   2  23
TORSDOF 10
