REMARK  Name = ZINC20504894
REMARK  4 active torsions:
REMARK  status: ('A' for Active; 'I' for Inactive)
REMARK    1  A    between atoms: C_1  and  C_2
REMARK    2  A    between atoms: C_4  and  C_9
REMARK    3  A    between atoms: C_7  and  N_8
REMARK    4  A    between atoms: N_11  and  C_12
REMARK                            x       y       z     vdW  Elec       q    Type
REMARK                         _______ _______ _______ _____ _____    ______ ____
ROOT
ATOM      1  C   UNL     1      -0.755  -1.443   1.067  0.00  0.00    +0.248 C 
ATOM      2  O   UNL     1      -1.396  -1.391   2.099  0.00  0.00    -0.270 OA
ATOM      3  N   UNL     1      -1.244  -2.108   0.002  0.00  0.00    -0.279 N 
ATOM      4  H   UNL     1      -0.704  -2.087  -0.956  0.00  0.00    +0.155 HD
ENDROOT
BRANCH   3   5
ATOM      5  C   UNL     1      -2.441  -2.826   0.115  0.00  0.00    +0.071 A 
ATOM      6  C   UNL     1      -2.419  -4.157   0.515  0.00  0.00    +0.065 A 
ATOM      7  C   UNL     1      -3.602  -4.862   0.630  0.00  0.00    +0.042 A 
ATOM      8  C   UNL     1      -4.807  -4.247   0.337  0.00  0.00    +0.044 A 
ATOM      9  C   UNL     1      -4.831  -2.924  -0.067  0.00  0.00    +0.042 A 
ATOM     10  C   UNL     1      -3.652  -2.212  -0.179  0.00  0.00    +0.065 A 
ATOM     11 CL   UNL     1      -3.684  -0.552  -0.685  0.00  0.00    -0.082 Cl
ATOM     12 CL   UNL     1      -6.290  -5.138   0.476  0.00  0.00    -0.083 Cl
ATOM     13 CL   UNL     1      -0.907  -4.931   0.876  0.00  0.00    -0.082 Cl
ENDBRANCH   3   5
BRANCH   1  17
ATOM     14  C   UNL     1       2.843   1.278   3.190  0.00  0.00    +0.045 C 
ATOM     15  C   UNL     1       2.294   0.533   2.001  0.00  0.00    -0.029 A 
ATOM     16  C   UNL     1       1.068  -0.087   2.085  0.00  0.00    +0.018 A 
ATOM     17  C   UNL     1       0.559  -0.777   0.981  0.00  0.00    +0.037 A 
ATOM     18  C   UNL     1       1.297  -0.836  -0.205  0.00  0.00    +0.015 A 
ATOM     19  C   UNL     1       2.522  -0.213  -0.282  0.00  0.00    +0.024 A 
ATOM     20  C   UNL     1       3.026   0.474   0.819  0.00  0.00    +0.028 A 
BRANCH  20  21
ATOM     21  N   UNL     1       4.264   1.102   0.737  0.00  0.00    -0.358 N 
ATOM     22  H   UNL     1       4.844   1.056  -0.196  0.00  0.00    +0.142 HD
ATOM     23  H   UNL     1       4.664   1.645   1.607  0.00  0.00    +0.142 HD
ENDBRANCH  20  21
ENDBRANCH   1  17
TORSDOF 3
