REMARK  Name = ZINC30553736
REMARK  6 active torsions:
REMARK  status: ('A' for Active; 'I' for Inactive)
REMARK    1  A    between atoms: C_2  and  C_3
REMARK    2  A    between atoms: C_3  and  N_4
REMARK    3  A    between atoms: C_17  and  S_18
REMARK    4  A    between atoms: S_18  and  C_19
REMARK    5  A    between atoms: C_19  and  C_20
REMARK    6  A    between atoms: N_25  and  C_28
REMARK                            x       y       z     vdW  Elec       q    Type
REMARK                         _______ _______ _______ _____ _____    ______ ____
ROOT
ATOM      1  N   UNL     1       4.665   9.453   3.509  0.00  0.00    -0.273 N 
ATOM      2  C   UNL     1       5.434   9.457   4.617  0.00  0.00    +0.263 A 
ATOM      3  O   UNL     1       5.857  10.502   5.073  0.00  0.00    -0.267 OA
ATOM      4  C   UNL     1       5.761   8.171   5.260  0.00  0.00    +0.064 A 
ATOM      5  C   UNL     1       6.559   8.115   6.402  0.00  0.00    +0.015 A 
ATOM      6  C   UNL     1       6.843   6.894   6.976  0.00  0.00    +0.001 A 
ATOM      7  C   UNL     1       6.339   5.727   6.423  0.00  0.00    +0.002 A 
ATOM      8  C   UNL     1       5.548   5.769   5.293  0.00  0.00    +0.027 A 
ATOM      9  C   UNL     1       5.252   6.988   4.703  0.00  0.00    +0.064 A 
ATOM     10  N   UNL     1       4.455   7.059   3.562  0.00  0.00    -0.256 N 
ATOM     11  C   UNL     1       4.172   8.267   2.985  0.00  0.00    +0.240 A 
ATOM     12  N   UNL     1       3.406   8.044   1.941  0.00  0.00    -0.109 NA
ATOM     13  N   UNL     1       3.197   6.663   1.841  0.00  0.00    -0.120 NA
ATOM     14  C   UNL     1       3.840   6.083   2.825  0.00  0.00    +0.198 A 
ENDROOT
BRANCH   1  15
ATOM     15  C   UNL     1       4.329  10.722   2.860  0.00  0.00    +0.155 C 
BRANCH  15  17
ATOM     16  C   UNL     1       3.045  12.484   3.959  0.00  0.00    +0.005 C 
ATOM     17  C   UNL     1       3.061  11.273   3.460  0.00  0.00    -0.013 C 
ENDBRANCH  15  17
ENDBRANCH   1  15
BRANCH  14  18
ATOM     18  S   UNL     1       3.897   4.352   3.147  0.00  0.00    -0.076 S 
BRANCH  18  19
ATOM     19  C   UNL     1       2.885   3.626   1.828  0.00  0.00    +0.173 C 
BRANCH  19  20
ATOM     20  C   UNL     1       2.850   2.128   1.988  0.00  0.00    +0.226 C 
ATOM     21  O   UNL     1       3.449   1.602   2.901  0.00  0.00    -0.275 OA
ATOM     22  N   UNL     1       2.154   1.374   1.115  0.00  0.00    -0.298 N 
ATOM     23  C   UNL     1       1.421   1.992  -0.001  0.00  0.00    +0.126 C 
ATOM     24  C   UNL     1      -0.018   1.465   0.010  0.00  0.00    +0.124 C 
ATOM     25  N   UNL     1       0.002  -0.004   0.002  0.00  0.00    -0.326 N 
ATOM     26  C   UNL     1       0.640  -0.535   1.214  0.00  0.00    +0.124 C 
ATOM     27  C   UNL     1       2.106  -0.090   1.252  0.00  0.00    +0.126 C 
BRANCH  25  28
ATOM     28  C   UNL     1      -1.287  -0.522  -0.153  0.00  0.00    +0.048 A 
ATOM     29  C   UNL     1      -2.270  -0.233   0.784  0.00  0.00    +0.024 A 
ATOM     30  C   UNL     1      -3.544  -0.742   0.625  0.00  0.00    +0.002 A 
ATOM     31  C   UNL     1      -3.839  -1.547  -0.460  0.00  0.00    +0.002 A 
ATOM     32  C   UNL     1      -2.862  -1.841  -1.393  0.00  0.00    +0.022 A 
ATOM     33  C   UNL     1      -1.586  -1.331  -1.243  0.00  0.00    +0.062 A 
ATOM     34 CL   UNL     1      -0.359  -1.701  -2.414  0.00  0.00    -0.082 Cl
ENDBRANCH  25  28
ENDBRANCH  19  20
ENDBRANCH  18  19
ENDBRANCH  14  18
TORSDOF 6
