REMARK  Name = ZINC16309831
REMARK  7 active torsions:
REMARK  status: ('A' for Active; 'I' for Inactive)
REMARK    1  A    between atoms: C_1  and  C_2
REMARK    2  A    between atoms: C_2  and  O_3
REMARK    3  A    between atoms: O_3  and  C_4
REMARK    4  A    between atoms: C_8  and  C_11
REMARK    5  A    between atoms: C_9  and  O_10
REMARK    6  A    between atoms: N_12  and  N_13
REMARK    7  A    between atoms: C_14  and  C_16
REMARK                            x       y       z     vdW  Elec       q    Type
REMARK                         _______ _______ _______ _____ _____    ______ ____
ROOT
ATOM      1  C   UNL     1      -3.148  10.279   0.336  0.00  0.00    +0.142 C 
ATOM      2  N   UNL     1      -2.173   9.486   0.009  0.00  0.00    -0.187 NA
ENDROOT
BRANCH   1   7
ATOM      3  C   UNL     1      -1.958  13.551  -1.092  0.00  0.00    +0.163 A 
ATOM      4  C   UNL     1      -3.004  14.389  -0.739  0.00  0.00    +0.064 A 
ATOM      5  C   UNL     1      -4.092  13.893  -0.039  0.00  0.00    +0.022 A 
ATOM      6  C   UNL     1      -4.147  12.558   0.307  0.00  0.00    +0.028 A 
ATOM      7  C   UNL     1      -3.096  11.704  -0.038  0.00  0.00    +0.041 A 
ATOM      8  C   UNL     1      -1.997  12.206  -0.744  0.00  0.00    +0.167 A 
ATOM      9 BR   UNL     1      -5.511  15.048   0.436  0.00  0.00    -0.050 Br
BRANCH   8  10
ATOM     10  O   UNL     1      -0.973  11.382  -1.089  0.00  0.00    -0.503 OA
ATOM     11  H   UNL     1      -1.082  10.958  -1.952  0.00  0.00    +0.292 HD
ENDBRANCH   8  10
BRANCH   3  12
ATOM     12  O   UNL     1      -0.893  14.045  -1.778  0.00  0.00    -0.489 OA
BRANCH  12  14
ATOM     13  C   UNL     1       0.352  15.806  -2.868  0.00  0.00    +0.048 C 
ATOM     14  C   UNL     1      -0.919  15.437  -2.102  0.00  0.00    +0.226 C 
ENDBRANCH  12  14
ENDBRANCH   3  12
ENDBRANCH   1   7
BRANCH   2  15
ATOM     15  N   UNL     1      -2.222   8.132   0.364  0.00  0.00    -0.204 N 
ATOM     16  C   UNL     1      -1.210   7.309   0.025  0.00  0.00    +0.276 C 
ATOM     17  O   UNL     1      -0.256   7.742  -0.587  0.00  0.00    -0.270 OA
ATOM     18  H   UNL     1      -2.985   7.786   0.854  0.00  0.00    +0.177 HD
BRANCH  16  19
ATOM     19  C   UNL     1      -1.263   5.852   0.407  0.00  0.00    +0.297 C 
ATOM     20  C   UNL     1      -2.424   5.167  -0.326  0.00  0.00    +0.283 C 
ATOM     21  O   UNL     1      -2.437   3.785   0.048  0.00  0.00    -0.484 OA
ATOM     22  C   UNL     1      -1.241   3.136   0.030  0.00  0.00    +0.162 A 
ATOM     23  C   UNL     1      -1.219   1.749   0.017  0.00  0.00    +0.049 A 
ATOM     24  C   UNL     1      -0.013   1.076   0.008  0.00  0.00    +0.004 A 
ATOM     25  C   UNL     1       1.176   1.782   0.000  0.00  0.00    +0.004 A 
ATOM     26  C   UNL     1       1.161   3.164   0.007  0.00  0.00    +0.049 A 
ATOM     27  C   UNL     1      -0.046   3.846   0.020  0.00  0.00    +0.163 A 
ATOM     28  O   UNL     1      -0.045   5.207   0.019  0.00  0.00    -0.472 OA
ENDBRANCH  16  19
ENDBRANCH   2  15
TORSDOF 6
