REMARK  Name = ZINC67269549
REMARK  7 active torsions:
REMARK  status: ('A' for Active; 'I' for Inactive)
REMARK    1  A    between atoms: C_1  and  C_2
REMARK    2  A    between atoms: C_7  and  C_9
REMARK    3  A    between atoms: C_7  and  N_25
REMARK    4  A    between atoms: C_9  and  N_10
REMARK    5  A    between atoms: C_11  and  C_13
REMARK    6  A    between atoms: N_25  and  C_26
REMARK    7  A    between atoms: N_25  and  C_27
REMARK                            x       y       z     vdW  Elec       q    Type
REMARK                         _______ _______ _______ _____ _____    ______ ____
ROOT
ATOM      1  N   UNL     1       1.173  -3.642   1.824  0.00  0.00    -0.316 N 
ATOM      2  C   UNL     1       1.456  -4.336   2.944  0.00  0.00    +0.216 C 
ATOM      3  O   UNL     1       1.777  -3.748   3.956  0.00  0.00    -0.276 OA
ATOM      4  H   UNL     1       0.916  -4.112   1.015  0.00  0.00    +0.149 HD
ENDROOT
BRANCH   2   5
ATOM      5  C   UNL     1       1.375  -5.840   2.940  0.00  0.00    +0.075 C 
ATOM      6  C   UNL     1      -0.049  -6.273   2.586  0.00  0.00    +0.015 C 
ATOM      7  C   UNL     1      -0.129  -7.802   2.571  0.00  0.00    +0.036 C 
ATOM      8  C   UNL     1       0.260  -8.345   3.942  0.00  0.00    +0.112 C 
ATOM      9  C   UNL     1       1.670  -7.904   4.318  0.00  0.00    +0.036 C 
ATOM     10  C   UNL     1       1.743  -6.375   4.326  0.00  0.00    +0.015 C 
ATOM     11  C   UNL     1       0.155  -9.852   3.961  0.00  0.00    +0.244 C 
ATOM     12  O   UNL     1       0.774 -10.640   3.278  0.00  0.00    -0.273 OA
ATOM     13  N   UNL     1      -0.772 -10.137   4.899  0.00  0.00    -0.238 N 
ATOM     14  C   UNL     1      -1.258  -9.026   5.465  0.00  0.00    +0.307 C 
ATOM     15  O   UNL     1      -2.105  -9.027   6.338  0.00  0.00    -0.252 OA
ATOM     16  N   UNL     1      -0.704  -7.907   4.960  0.00  0.00    -0.285 N 
ATOM     17  H   UNL     1      -1.051 -11.036   5.134  0.00  0.00    +0.159 HD
ATOM     18  H   UNL     1      -0.903  -6.994   5.218  0.00  0.00    +0.151 HD
ENDBRANCH   2   5
BRANCH   1  19
ATOM     19  C   UNL     1       1.252  -2.179   1.828  0.00  0.00    +0.092 C 
BRANCH  19  25
ATOM     20  C   UNL     1       0.740   1.930  -0.969  0.00  0.00    +0.007 C 
ATOM     21  C   UNL     1       0.793   0.401  -0.993  0.00  0.00    -0.015 C 
ATOM     22  C   UNL     1      -0.520  -0.146  -1.556  0.00  0.00    +0.003 C 
ATOM     23  C   UNL     1      -0.467  -1.675  -1.580  0.00  0.00    -0.001 C 
ATOM     24  C   UNL     1      -0.264  -2.201  -0.158  0.00  0.00    -0.010 C 
ATOM     25  C   UNL     1       1.049  -1.654   0.406  0.00  0.00    -0.050 C 
ATOM     26  C   UNL     1       0.996  -0.125   0.429  0.00  0.00    -0.007 C 
BRANCH  25  27
ATOM     27  N   UNL     1       2.166  -2.092  -0.443  0.00  0.00    +0.381 N 
ATOM     28  C   UNL     1       3.437  -1.692   0.176  0.00  0.00    -0.096 C 
ATOM     29  C   UNL     1       2.129  -3.553  -0.585  0.00  0.00    -0.096 C 
ATOM     30  H   UNL     1       2.085  -1.663  -1.353  0.00  0.00    -0.082 HD
ENDBRANCH  25  27
ENDBRANCH  19  25
ENDBRANCH   1  19
TORSDOF 4
