REMARK  Name = ZINC31732402
REMARK  8 active torsions:
REMARK  status: ('A' for Active; 'I' for Inactive)
REMARK    1  A    between atoms: C_1  and  C_2
REMARK    2  A    between atoms: C_2  and  C_3
REMARK    3  A    between atoms: C_3  and  C_4
REMARK    4  A    between atoms: C_4  and  N_5
REMARK    5  A    between atoms: C_9  and  C_11
REMARK    6  A    between atoms: C_11  and  C_13
REMARK    7  A    between atoms: C_11  and  N_14
REMARK    8  A    between atoms: C_16  and  C_19
REMARK                            x       y       z     vdW  Elec       q    Type
REMARK                         _______ _______ _______ _____ _____    ______ ____
ROOT
ATOM      1  C   UNL     1      -2.482   0.853   0.018  0.00  0.00    +0.213 C 
ATOM      2  C   UNL     1      -2.557  -0.021  -1.235  0.00  0.00    +0.044 C 
ENDROOT
BRANCH   1   7
ATOM      3  N   UNL     1       2.323   0.998  -0.015  0.00  0.00    -0.299 N 
ATOM      4  C   UNL     1       1.147   1.655   0.000  0.00  0.00    +0.306 C 
ATOM      5  O   UNL     1       1.130   2.871   0.007  0.00  0.00    -0.252 OA
ATOM      6  N   UNL     1      -0.011   0.966   0.007  0.00  0.00    -0.238 N 
ATOM      7  C   UNL     1      -1.187   1.624   0.017  0.00  0.00    +0.247 C 
ATOM      8  O   UNL     1      -1.204   2.836   0.023  0.00  0.00    -0.273 OA
ATOM      9  H   UNL     1       2.338  -0.102  -0.021  0.00  0.00    +0.150 HD
ATOM     10  H   UNL     1       0.004  -0.134   0.006  0.00  0.00    +0.159 HD
BRANCH   3  11
ATOM     11  C   UNL     1       3.582   1.747  -0.023  0.00  0.00    +0.106 C 
BRANCH  11  12
ATOM     12  C   UNL     1       4.758   0.769  -0.039  0.00  0.00    +0.018 C 
BRANCH  12  14
ATOM     13  C   UNL     1       7.249   0.574  -0.064  0.00  0.00    +0.004 C 
ATOM     14  C   UNL     1       6.072   1.552  -0.048  0.00  0.00    -0.002 C 
ENDBRANCH  12  14
ENDBRANCH  11  12
ENDBRANCH   3  11
ENDBRANCH   1   7
BRANCH   1  15
ATOM     15  N   UNL     1      -3.608   1.789   0.029  0.00  0.00    -0.151 N 
ATOM     16  N   UNL     1      -4.513   1.857   0.944  0.00  0.00    -0.130 NA
ATOM     17  C   UNL     1      -5.354   2.815   0.609  0.00  0.00    +0.205 A 
ATOM     18  N   UNL     1      -4.916   3.324  -0.551  0.00  0.00    -0.108 NA
ATOM     19  N   UNL     1      -3.846   2.678  -0.872  0.00  0.00    -0.045 NA
BRANCH  17  20
ATOM     20  C   UNL     1      -6.554   3.247   1.370  0.00  0.00    +0.023 A 
ATOM     21  C   UNL     1      -6.888   2.616   2.566  0.00  0.00    +0.013 A 
ATOM     22  C   UNL     1      -8.001   3.025   3.272  0.00  0.00    +0.016 A 
ATOM     23  C   UNL     1      -8.792   4.053   2.787  0.00  0.00    +0.018 A 
ATOM     24  C   UNL     1      -8.467   4.680   1.597  0.00  0.00    +0.016 A 
ATOM     25  C   UNL     1      -7.352   4.282   0.887  0.00  0.00    +0.013 A 
ATOM     26 BR   UNL     1     -10.320   4.603   3.756  0.00  0.00    -0.050 Br
ENDBRANCH  17  20
ENDBRANCH   1  15
TORSDOF 6
