REMARK  Name = ZINC63751936
REMARK  7 active torsions:
REMARK  status: ('A' for Active; 'I' for Inactive)
REMARK    1  A    between atoms: C_1  and  C_2
REMARK    2  A    between atoms: C_2  and  O_3
REMARK    3  A    between atoms: O_3  and  C_4
REMARK    4  A    between atoms: C_9  and  C_10
REMARK    5  A    between atoms: C_16  and  S_18
REMARK    6  A    between atoms: S_18  and  C_19
REMARK    7  A    between atoms: C_19  and  C_20
REMARK                            x       y       z     vdW  Elec       q    Type
REMARK                         _______ _______ _______ _____ _____    ______ ____
ROOT
ATOM      1  C   UNL     1      -3.971  -1.527   0.031  0.00  0.00    +0.253 C 
ATOM      2  O   UNL     1      -3.836  -0.319   0.036  0.00  0.00    -0.270 OA
ATOM      3  N   UNL     1      -5.206  -2.067   0.040  0.00  0.00    -0.259 N 
ATOM      4  C   UNL     1      -6.326  -1.241   0.055  0.00  0.00    +0.189 A 
ATOM      5  N   UNL     1      -6.409   0.080   0.056  0.00  0.00    -0.125 NA
ATOM      6  N   UNL     1      -7.519   0.680   0.071  0.00  0.00    -0.133 NA
ATOM      7  C   UNL     1      -8.670   0.024   0.085  0.00  0.00    +0.160 A 
ATOM      8  S   UNL     1      -8.067  -1.662   0.069  0.00  0.00    -0.024 S 
ATOM      9  H   UNL     1      -5.315  -3.031   0.036  0.00  0.00    +0.157 HD
ENDROOT
BRANCH   1  15
ATOM     10  C   UNL     1      -1.498  -1.846   0.006  0.00  0.00    +0.133 A 
ATOM     11  C   UNL     1      -0.389  -2.679  -0.003  0.00  0.00    +0.046 A 
ATOM     12  C   UNL     1      -0.553  -4.050  -0.008  0.00  0.00    +0.004 A 
ATOM     13  C   UNL     1      -1.823  -4.604  -0.005  0.00  0.00    +0.001 A 
ATOM     14  C   UNL     1      -2.936  -3.792   0.004  0.00  0.00    +0.017 A 
ATOM     15  C   UNL     1      -2.784  -2.402   0.016  0.00  0.00    +0.079 A 
BRANCH  10  16
ATOM     16  O   UNL     1      -1.339  -0.499   0.012  0.00  0.00    -0.491 OA
BRANCH  16  18
ATOM     17  C   UNL     1      -0.019   1.526   0.010  0.00  0.00    +0.048 C 
ATOM     18  C   UNL     1       0.002  -0.004   0.002  0.00  0.00    +0.226 C 
ENDBRANCH  16  18
ENDBRANCH  10  16
ENDBRANCH   1  15
BRANCH   7  19
ATOM     19  S   UNL     1     -10.322   0.636   0.107  0.00  0.00    -0.094 S 
BRANCH  19  20
ATOM     20  C   UNL     1     -10.122   2.439   0.106  0.00  0.00    +0.110 C 
BRANCH  20  21
ATOM     21  C   UNL     1     -11.499   3.105   0.124  0.00  0.00    +0.176 C 
ATOM     22  C   UNL     1     -11.288   4.598   0.225  0.00  0.00    +0.240 C 
ATOM     23  O   UNL     1     -10.666   5.071   1.155  0.00  0.00    -0.273 OA
ATOM     24  N   UNL     1     -11.794   5.391  -0.723  0.00  0.00    -0.282 N 
ATOM     25  C   UNL     1     -12.475   4.902  -1.745  0.00  0.00    +0.057 A 
ATOM     26  C   UNL     1     -12.996   5.770  -2.731  0.00  0.00    +0.025 A 
ATOM     27  C   UNL     1     -13.694   5.275  -3.780  0.00  0.00    +0.002 A 
ATOM     28  C   UNL     1     -13.937   3.902  -3.951  0.00  0.00    +0.002 A 
ATOM     29  C   UNL     1     -13.483   2.986  -3.068  0.00  0.00    +0.027 A 
ATOM     30  C   UNL     1     -12.715   3.445  -1.899  0.00  0.00    +0.057 A 
ATOM     31  N   UNL     1     -12.261   2.594  -1.026  0.00  0.00    -0.372 N 
ATOM     32  H   UNL     1     -12.421   1.643  -1.132  0.00  0.00    +0.160 HD
ATOM     33  H   UNL     1     -11.659   6.350  -0.659  0.00  0.00    +0.155 HD
ENDBRANCH  20  21
ENDBRANCH  19  20
ENDBRANCH   7  19
TORSDOF 6
