REMARK  Name = ZINC49206013
REMARK  3 active torsions:
REMARK  status: ('A' for Active; 'I' for Inactive)
REMARK    1  A    between atoms: C_1  and  N_2
REMARK    2  A    between atoms: N_2  and  C_3
REMARK    3  A    between atoms: C_13  and  C_16
REMARK                            x       y       z     vdW  Elec       q    Type
REMARK                         _______ _______ _______ _____ _____    ______ ____
ROOT
ATOM      1  C   UNL     1      -0.018   1.461   0.010  0.00  0.00    +0.134 C 
ATOM      2  N   UNL     1       0.002  -0.004   0.002  0.00  0.00    -0.285 N 
ATOM      3  C   UNL     1       0.000  -0.672  -1.169  0.00  0.00    +0.308 C 
ATOM      4  O   UNL     1       0.017  -1.887  -1.175  0.00  0.00    -0.252 OA
ATOM      5  N   UNL     1      -0.020   0.009  -2.332  0.00  0.00    -0.248 N 
ATOM      6  C   UNL     1      -0.022  -0.680  -3.539  0.00  0.00    +0.166 A 
ATOM      7  N   UNL     1      -0.035  -0.204  -4.770  0.00  0.00    -0.223 NA
ATOM      8  C   UNL     1      -0.034  -1.019  -5.823  0.00  0.00    +0.096 A 
ATOM      9  C   UNL     1      -0.020  -2.372  -5.621  0.00  0.00    +0.078 A 
ATOM     10  S   UNL     1      -0.001  -2.442  -3.835  0.00  0.00    -0.060 S 
ATOM     11  H   UNL     1      -0.033   0.978  -2.327  0.00  0.00    +0.158 HD
ENDROOT
BRANCH   8  12
ATOM     12  C   UNL     1      -0.049  -0.468  -7.196  0.00  0.00    +0.066 A 
ATOM     13  C   UNL     1      -0.058   0.853  -7.529  0.00  0.00    +0.029 A 
ATOM     14  C   UNL     1      -0.071   0.932  -8.932  0.00  0.00    +0.019 A 
ATOM     15  C   UNL     1      -0.070  -0.329  -9.413  0.00  0.00    +0.083 A 
ATOM     16  N   UNL     1      -0.051  -1.195  -8.357  0.00  0.00    -0.359 N 
ATOM     17  H   UNL     1      -0.042  -2.163  -8.419  0.00  0.00    +0.165 HD
ENDBRANCH   8  12
BRANCH   2  18
ATOM     18  C   UNL     1       0.024  -0.743   1.267  0.00  0.00    +0.077 C 
ATOM     19  C   UNL     1      -1.191  -0.348   2.131  0.00  0.00    +0.022 C 
ATOM     20  C   UNL     1      -0.641  -0.342   3.579  0.00  0.00    +0.002 C 
ATOM     21  C   UNL     1       0.782   0.242   3.402  0.00  0.00    +0.002 C 
ATOM     22  C   UNL     1       1.279  -0.368   2.075  0.00  0.00    +0.022 C 
ENDBRANCH   2  18
TORSDOF 2
