REMARK  Name = ZINC06238784
REMARK  9 active torsions:
REMARK  status: ('A' for Active; 'I' for Inactive)
REMARK    1  A    between atoms: C_1  and  O_2
REMARK    2  A    between atoms: O_2  and  C_3
REMARK    3  A    between atoms: C_3  and  C_5
REMARK    4  A    between atoms: C_9  and  S_11
REMARK    5  A    between atoms: S_11  and  N_14
REMARK    6  A    between atoms: N_14  and  C_15
REMARK    7  A    between atoms: N_14  and  C_22
REMARK    8  A    between atoms: C_15  and  C_16
REMARK    9  A    between atoms: C_22  and  C_23
REMARK                            x       y       z     vdW  Elec       q    Type
REMARK                         _______ _______ _______ _____ _____    ______ ____
ROOT
ATOM      1  N   UNL     1      -2.994   0.471   1.545  0.00  0.00    -0.168 NA
ENDROOT
BRANCH   1   2
ATOM      2  S   UNL     1      -2.396   0.921   0.067  0.00  0.00    +0.061 S 
ATOM      3  O   UNL     1      -3.446   1.603  -0.605  0.00  0.00    -0.153 OA
ATOM      4  O   UNL     1      -1.760  -0.225  -0.480  0.00  0.00    -0.153 OA
BRANCH   2   9
ATOM      5  C   UNL     1      -0.453   4.378   0.771  0.00  0.00    +0.061 A 
ATOM      6  C   UNL     1       0.882   3.968   0.807  0.00  0.00    +0.015 A 
ATOM      7  C   UNL     1       1.198   2.639   0.622  0.00  0.00    +0.003 A 
ATOM      8  C   UNL     1       0.195   1.711   0.401  0.00  0.00    +0.028 A 
ATOM      9  C   UNL     1      -1.129   2.110   0.358  0.00  0.00    +0.106 A 
ATOM     10  C   UNL     1      -1.459   3.436   0.547  0.00  0.00    +0.043 A 
BRANCH   5  11
ATOM     11  C   UNL     1      -0.798   5.800   0.968  0.00  0.00    +0.339 C 
ATOM     12  O   UNL     1      -1.960   6.153   0.936  0.00  0.00    -0.245 OA
BRANCH  11  14
ATOM     13  C   UNL     1      -0.238   8.086   1.369  0.00  0.00    +0.280 C 
ATOM     14  O   UNL     1       0.175   6.706   1.183  0.00  0.00    -0.464 OA
ENDBRANCH  11  14
ENDBRANCH   5  11
ENDBRANCH   2   9
ENDBRANCH   1   2
BRANCH   1  15
ATOM     15  C   UNL     1      -4.031   1.278   2.192  0.00  0.00    +0.145 C 
BRANCH  15  16
ATOM     16  C   UNL     1      -5.387   0.704   1.871  0.00  0.00    -0.032 A 
ATOM     17  C   UNL     1      -6.076   1.141   0.755  0.00  0.00    +0.005 A 
ATOM     18  C   UNL     1      -7.318   0.611   0.458  0.00  0.00    +0.000 A 
ATOM     19  C   UNL     1      -7.875  -0.349   1.282  0.00  0.00    +0.000 A 
ATOM     20  C   UNL     1      -7.188  -0.782   2.401  0.00  0.00    +0.000 A 
ATOM     21  C   UNL     1      -5.944  -0.256   2.695  0.00  0.00    +0.005 A 
ENDBRANCH  15  16
ENDBRANCH   1  15
BRANCH   1  22
ATOM     22  C   UNL     1      -2.484  -0.734   2.204  0.00  0.00    +0.150 C 
BRANCH  22  23
ATOM     23  C   UNL     1      -1.751  -0.346   3.463  0.00  0.00    +0.033 A 
ATOM     24  C   UNL     1      -2.406  -0.338   4.652  0.00  0.00    +0.020 A 
ATOM     25  C   UNL     1      -1.667   0.042   5.855  0.00  0.00    +0.003 A 
ATOM     26  C   UNL     1      -2.291   0.066   7.109  0.00  0.00    +0.059 A 
ATOM     27  C   UNL     1      -1.568   0.427   8.224  0.00  0.00    +0.167 A 
ATOM     28  C   UNL     1      -0.215   0.770   8.108  0.00  0.00    +0.168 A 
ATOM     29  C   UNL     1       0.408   0.750   6.874  0.00  0.00    +0.075 A 
ATOM     30  C   UNL     1      -0.306   0.387   5.739  0.00  0.00    +0.053 A 
ATOM     31  N   UNL     1       0.301   0.359   4.500  0.00  0.00    -0.322 N 
ATOM     32  H   UNL     1       1.266   0.608   4.418  0.00  0.00    +0.169 HD
ATOM     33  C   UNL     1      -0.387   0.002   3.401  0.00  0.00    +0.254 A 
ATOM     34  O   UNL     1       0.183  -0.016   2.324  0.00  0.00    -0.268 OA
ATOM     35  O   UNL     1       0.259   1.084   9.348  0.00  0.00    -0.453 OA
ATOM     36  C   UNL     1      -0.695   0.536  10.276  0.00  0.00    +0.466 C 
ATOM     37  O   UNL     1      -1.930   0.529   9.537  0.00  0.00    -0.453 OA
ENDBRANCH  22  23
ENDBRANCH   1  22
TORSDOF 8
