REMARK  Name = ZINC18415250
REMARK  9 active torsions:
REMARK  status: ('A' for Active; 'I' for Inactive)
REMARK    1  A    between atoms: C_1  and  C_2
REMARK    2  A    between atoms: C_5  and  C_8
REMARK    3  A    between atoms: C_8  and  C_31
REMARK    4  A    between atoms: N_11  and  C_15
REMARK    5  A    between atoms: C_15  and  C_16
REMARK    6  A    between atoms: N_18  and  C_19
REMARK    7  A    between atoms: N_18  and  C_20
REMARK    8  A    between atoms: C_20  and  C_21
REMARK    9  A    between atoms: N_23  and  C_24
REMARK                            x       y       z     vdW  Elec       q    Type
REMARK                         _______ _______ _______ _____ _____    ______ ____
ROOT
ATOM      1  C   UNL     1       0.543   5.693  -1.161  0.00  0.00    +0.213 C 
ENDROOT
BRANCH   1   5
ATOM      2  C   UNL     1      -0.373   6.773  -4.595  0.00  0.00    +0.135 C 
ATOM      3  C   UNL     1      -0.728   6.205  -3.235  0.00  0.00    +0.251 C 
ATOM      4  O   UNL     1      -1.823   5.850  -2.853  0.00  0.00    -0.272 OA
ATOM      5  N   UNL     1       0.426   6.174  -2.540  0.00  0.00    -0.215 N 
ATOM      6  C   UNL     1       1.449   6.644  -3.262  0.00  0.00    +0.310 C 
ATOM      7  O   UNL     1       2.590   6.720  -2.848  0.00  0.00    -0.252 OA
ATOM      8  N   UNL     1       1.076   7.020  -4.499  0.00  0.00    -0.281 N 
ATOM      9  C   UNL     1      -0.677   5.758  -5.699  0.00  0.00    +0.047 C 
ATOM     10  H   UNL     1       1.649   7.386  -5.191  0.00  0.00    +0.152 HD
BRANCH   2  15
ATOM     11  C   UNL     1      -3.220  11.711  -5.543  0.00  0.00    +0.044 C 
ATOM     12  C   UNL     1      -2.478  10.423  -5.296  0.00  0.00    -0.050 A 
ATOM     13  C   UNL     1      -1.234  10.222  -5.865  0.00  0.00    +0.004 A 
ATOM     14  C   UNL     1      -0.553   9.040  -5.639  0.00  0.00    +0.006 A 
ATOM     15  C   UNL     1      -1.115   8.060  -4.842  0.00  0.00    -0.015 A 
ATOM     16  C   UNL     1      -2.361   8.260  -4.277  0.00  0.00    +0.006 A 
ATOM     17  C   UNL     1      -3.040   9.443  -4.500  0.00  0.00    +0.004 A 
ENDBRANCH   2  15
ENDBRANCH   1   5
BRANCH   1  18
ATOM     18  C   UNL     1       0.839   4.215  -1.169  0.00  0.00    +0.234 C 
ATOM     19  O   UNL     1       0.942   3.623  -2.223  0.00  0.00    -0.274 OA
ATOM     20  N   UNL     1       0.990   3.552  -0.006  0.00  0.00    -0.294 N 
ATOM     21  C   UNL     1       0.867   4.267   1.266  0.00  0.00    +0.132 C 
BRANCH  20  22
ATOM     22  C   UNL     1       1.278   2.115  -0.014  0.00  0.00    +0.203 C 
BRANCH  22  23
ATOM     23  C   UNL     1      -0.017   1.344   0.005  0.00  0.00    +0.235 C 
ATOM     24  O   UNL     1      -1.075   1.935   0.018  0.00  0.00    -0.274 OA
ATOM     25  N   UNL     1       0.002  -0.004   0.002  0.00  0.00    -0.283 N 
ATOM     26  H   UNL     1       0.845  -0.477  -0.079  0.00  0.00    +0.155 HD
BRANCH  25  27
ATOM     27  C   UNL     1      -1.195  -0.721   0.115  0.00  0.00    +0.052 A 
ATOM     28  C   UNL     1      -2.358  -0.229  -0.462  0.00  0.00    +0.025 A 
ATOM     29  C   UNL     1      -3.536  -0.941  -0.354  0.00  0.00    +0.002 A 
ATOM     30  C   UNL     1      -3.562  -2.138   0.339  0.00  0.00    +0.002 A 
ATOM     31  C   UNL     1      -2.407  -2.629   0.920  0.00  0.00    +0.022 A 
ATOM     32  C   UNL     1      -1.223  -1.924   0.811  0.00  0.00    +0.062 A 
ATOM     33 CL   UNL     1       0.226  -2.539   1.541  0.00  0.00    -0.082 Cl
ENDBRANCH  25  27
ENDBRANCH  22  23
ENDBRANCH  20  22
ENDBRANCH   1  18
TORSDOF 6
