REMARK  Name = ZINC39710984
REMARK  9 active torsions:
REMARK  status: ('A' for Active; 'I' for Inactive)
REMARK    1  A    between atoms: C_1  and  C_2
REMARK    2  A    between atoms: C_4  and  C_36
REMARK    3  A    between atoms: C_9  and  C_14
REMARK    4  A    between atoms: C_14  and  C_16
REMARK    5  A    between atoms: C_14  and  N_26
REMARK    6  A    between atoms: N_21  and  C_22
REMARK    7  A    between atoms: C_22  and  C_23
REMARK    8  A    between atoms: C_22  and  C_24
REMARK    9  A    between atoms: C_22  and  C_25
REMARK                            x       y       z     vdW  Elec       q    Type
REMARK                         _______ _______ _______ _____ _____    ______ ____
ROOT
ATOM      1  C   UNL     1       1.353  -5.139   3.265  0.00  0.00    +0.114 C 
ENDROOT
BRANCH   1  10
ATOM      2  C   UNL     1      -1.230  -0.635  -1.639  0.00  0.00    +0.044 C 
ATOM      3  C   UNL     1      -1.034  -2.003  -1.039  0.00  0.00    -0.050 A 
ATOM      4  C   UNL     1      -1.172  -3.131  -1.849  0.00  0.00    +0.008 A 
ATOM      5  C   UNL     1      -1.011  -4.395  -1.379  0.00  0.00    -0.028 A 
ATOM      6  C   UNL     1      -0.691  -4.619  -0.027  0.00  0.00    +0.043 A 
ATOM      7  N   UNL     1      -0.534  -5.864   0.423  0.00  0.00    -0.284 N 
ATOM      8  C   UNL     1      -0.235  -6.146   1.680  0.00  0.00    +0.226 C 
ATOM      9  O   UNL     1      -0.104  -7.302   2.032  0.00  0.00    -0.275 OA
ATOM     10  C   UNL     1      -0.055  -5.023   2.677  0.00  0.00    +0.119 C 
ATOM     11  C   UNL     1      -0.231  -3.605   2.170  0.00  0.00    -0.003 C 
ATOM     12  C   UNL     1      -0.540  -3.447   0.852  0.00  0.00    -0.006 A 
ATOM     13  C   UNL     1      -0.723  -2.113   0.279  0.00  0.00    +0.012 A 
ATOM     14  C   UNL     1      -1.175  -5.567  -2.312  0.00  0.00    +0.046 C 
ATOM     15  H   UNL     1      -0.646  -6.599  -0.201  0.00  0.00    +0.155 HD
ENDBRANCH   1  10
BRANCH   1  16
ATOM     16  N   UNL     1       1.545  -4.100   4.285  0.00  0.00    -0.290 NA
ATOM     17  C   UNL     1       0.288  -3.823   4.998  0.00  0.00    +0.090 C 
ATOM     18  C   UNL     1       0.613  -3.028   6.263  0.00  0.00    +0.051 C 
ATOM     19  C   UNL     1       1.489  -1.851   5.921  0.00  0.00    -0.042 A 
ATOM     20  C   UNL     1       1.601  -0.820   6.841  0.00  0.00    +0.004 A 
ATOM     21  C   UNL     1       2.396   0.275   6.569  0.00  0.00    +0.000 A 
ATOM     22  C   UNL     1       3.085   0.344   5.372  0.00  0.00    +0.000 A 
ATOM     23  C   UNL     1       2.973  -0.681   4.455  0.00  0.00    +0.005 A 
ATOM     24  C   UNL     1       2.172  -1.781   4.726  0.00  0.00    -0.030 A 
ATOM     25  C   UNL     1       2.073  -2.869   3.689  0.00  0.00    +0.120 C 
ENDBRANCH   1  16
BRANCH   1  26
ATOM     26  C   UNL     1       1.528  -6.519   3.903  0.00  0.00    +0.214 C 
ATOM     27  N   UNL     1       0.583  -6.700   5.021  0.00  0.00    -0.226 N 
ATOM     28  N   UNL     1       1.372  -6.886   6.162  0.00  0.00    -0.064 NA
ATOM     29  N   UNL     1       2.575  -6.847   5.918  0.00  0.00    -0.061 NA
ATOM     30  N   UNL     1       2.845  -6.628   4.558  0.00  0.00    -0.208 N 
ATOM     31  H   UNL     1      -0.386  -6.692   4.975  0.00  0.00    +0.172 HD
BRANCH  30  32
ATOM     32  C   UNL     1       4.160  -6.528   3.920  0.00  0.00    +0.047 C 
ATOM     33  C   UNL     1       4.370  -5.102   3.406  0.00  0.00    +0.033 C 
ATOM     34  C   UNL     1       5.249  -6.869   4.939  0.00  0.00    +0.033 C 
ATOM     35  C   UNL     1       4.234  -7.508   2.748  0.00  0.00    +0.033 C 
ENDBRANCH  30  32
ENDBRANCH   1  26
TORSDOF 4
