REMARK  Name = ZINC32525446
REMARK  9 active torsions:
REMARK  status: ('A' for Active; 'I' for Inactive)
REMARK    1  A    between atoms: C_1  and  C_2
REMARK    2  A    between atoms: C_2  and  O_3
REMARK    3  A    between atoms: O_3  and  C_4
REMARK    4  A    between atoms: C_7  and  N_22
REMARK    5  A    between atoms: C_9  and  S_10
REMARK    6  A    between atoms: S_10  and  N_13
REMARK    7  A    between atoms: N_13  and  C_14
REMARK    8  A    between atoms: C_19  and  C_20
REMARK    9  A    between atoms: C_25  and  C_31
REMARK                            x       y       z     vdW  Elec       q    Type
REMARK                         _______ _______ _______ _____ _____    ______ ____
ROOT
ATOM      1  C   UNL     1       0.214   1.345  -0.509  0.00  0.00    +0.147 A 
ATOM      2  C   UNL     1       1.454   1.947  -0.674  0.00  0.00    +0.049 A 
ATOM      3  C   UNL     1       2.607   1.198  -0.550  0.00  0.00    +0.029 A 
ATOM      4  C   UNL     1       2.527  -0.157  -0.260  0.00  0.00    +0.061 A 
ATOM      5  C   UNL     1       1.287  -0.759  -0.094  0.00  0.00    +0.057 A 
ATOM      6  C   UNL     1       0.134  -0.009  -0.219  0.00  0.00    +0.152 A 
ENDROOT
BRANCH   4   7
ATOM      7  N   UNL     1       3.697  -0.917  -0.133  0.00  0.00    -0.143 N 
ATOM      8  C   UNL     1       3.831  -2.047   0.578  0.00  0.00    +0.243 C 
ATOM      9  O   UNL     1       2.885  -2.526   1.167  0.00  0.00    -0.273 OA
ATOM     10  C   UNL     1       5.176  -2.707   0.625  0.00  0.00    +0.097 C 
ATOM     11  C   UNL     1       6.032  -2.177  -0.556  0.00  0.00    +0.201 C 
ATOM     12  S   UNL     1       5.177  -0.572  -0.836  0.00  0.00    +0.053 S 
ATOM     13  O   UNL     1       4.909  -0.374  -2.217  0.00  0.00    -0.155 OA
ATOM     14  O   UNL     1       5.751   0.454  -0.039  0.00  0.00    -0.155 OA
ATOM     15  C   UNL     1       5.863  -2.371   1.950  0.00  0.00    +0.019 C 
ENDBRANCH   4   7
BRANCH   6  16
ATOM     16  S   UNL     1      -1.441  -0.772  -0.009  0.00  0.00    +0.076 S 
ATOM     17  O   UNL     1      -1.194  -2.151   0.232  0.00  0.00    -0.150 OA
ATOM     18  O   UNL     1      -2.169   0.042   0.900  0.00  0.00    -0.150 OA
BRANCH  16  19
ATOM     19  N   UNL     1      -2.228  -0.679  -1.463  0.00  0.00    -0.216 N 
ATOM     20  H   UNL     1      -3.186  -0.144  -1.536  0.00  0.00    +0.174 HD
BRANCH  19  21
ATOM     21  C   UNL     1      -1.674  -1.280  -2.597  0.00  0.00    +0.051 A 
ATOM     22  C   UNL     1      -0.979  -2.477  -2.481  0.00  0.00    +0.026 A 
ATOM     23  C   UNL     1      -0.439  -3.072  -3.604  0.00  0.00    +0.022 A 
ATOM     24  C   UNL     1      -0.578  -2.470  -4.843  0.00  0.00    +0.041 A 
ATOM     25  C   UNL     1      -1.265  -1.274  -4.960  0.00  0.00    +0.025 A 
ATOM     26  C   UNL     1      -1.813  -0.678  -3.841  0.00  0.00    -0.027 A 
ATOM     27  C   UNL     1      -2.560   0.624  -3.970  0.00  0.00    +0.046 C 
ATOM     28 CL   UNL     1       0.109  -3.216  -6.251  0.00  0.00    -0.084 Cl
ENDBRANCH  19  21
ENDBRANCH  16  19
ENDBRANCH   6  16
BRANCH   1  29
ATOM     29  O   UNL     1      -0.921   2.082  -0.636  0.00  0.00    -0.490 OA
BRANCH  29  31
ATOM     30  C   UNL     1      -2.138   4.161  -0.826  0.00  0.00    +0.048 C 
ATOM     31  C   UNL     1      -0.764   3.489  -0.826  0.00  0.00    +0.226 C 
ENDBRANCH  29  31
ENDBRANCH   1  29
TORSDOF 6
