REMARK  Name = ZINC11751532
REMARK  7 active torsions:
REMARK  status: ('A' for Active; 'I' for Inactive)
REMARK    1  A    between atoms: C_1  and  C_2
REMARK    2  A    between atoms: C_2  and  C_3
REMARK    3  A    between atoms: C_2  and  C_4
REMARK    4  A    between atoms: C_4  and  C_6
REMARK    5  A    between atoms: C_4  and  N_22
REMARK    6  A    between atoms: N_22  and  S_23
REMARK    7  A    between atoms: S_23  and  C_26
REMARK                            x       y       z     vdW  Elec       q    Type
REMARK                         _______ _______ _______ _____ _____    ______ ____
ROOT
ATOM      1  C   UNL     1       0.132   1.621   4.183  0.00  0.00    +0.238 C 
ATOM      2  O   UNL     1       0.287   0.777   5.040  0.00  0.00    -0.274 OA
ATOM      3  N   UNL     1       0.034   2.921   4.528  0.00  0.00    -0.263 N 
ATOM      4  C   UNL     1       0.216   3.304   5.848  0.00  0.00    +0.165 A 
ATOM      5  N   UNL     1       0.161   4.506   6.371  0.00  0.00    -0.224 NA
ATOM      6  C   UNL     1       0.361   4.735   7.688  0.00  0.00    +0.084 A 
ATOM      7  C   UNL     1       0.330   5.972   8.372  0.00  0.00    +0.078 A 
ATOM      8  C   UNL     1       0.558   6.039   9.728  0.00  0.00    +0.164 A 
ATOM      9  C   UNL     1       0.823   4.886  10.467  0.00  0.00    +0.163 A 
ATOM     10  C   UNL     1       0.861   3.659   9.825  0.00  0.00    +0.066 A 
ATOM     11  C   UNL     1       0.635   3.592   8.472  0.00  0.00    +0.044 A 
ATOM     12  S   UNL     1       0.579   2.285   7.270  0.00  0.00    -0.052 S 
ATOM     13  O   UNL     1       1.043   4.946  11.808  0.00  0.00    -0.485 OA
ATOM     14  C   UNL     1       1.365   6.232  12.350  0.00  0.00    +0.270 C 
ATOM     15  C   UNL     1       0.383   7.257  11.767  0.00  0.00    +0.270 C 
ATOM     16  O   UNL     1       0.526   7.257  10.343  0.00  0.00    -0.485 OA
ATOM     17  H   UNL     1      -0.165   3.588   3.852  0.00  0.00    +0.157 HD
ENDROOT
BRANCH   1  18
ATOM     18  C   UNL     1       0.049   1.218   2.734  0.00  0.00    +0.165 C 
BRANCH  18  20
ATOM     19  C   UNL     1      -2.168   0.112   3.054  0.00  0.00    +0.009 C 
ATOM     20  C   UNL     1      -1.415   1.204   2.291  0.00  0.00    +0.010 C 
ATOM     21  C   UNL     1      -1.492   0.921   0.789  0.00  0.00    +0.009 C 
ENDBRANCH  18  20
BRANCH  18  22
ATOM     22  N   UNL     1       0.623  -0.119   2.566  0.00  0.00    -0.177 NA
ATOM     23  H   UNL     1       0.195  -0.886   2.978  0.00  0.00    +0.149 HD
BRANCH  22  24
ATOM     24  S   UNL     1       2.003  -0.322   1.672  0.00  0.00    +0.065 S 
ATOM     25  O   UNL     1       2.339  -1.700   1.752  0.00  0.00    -0.153 OA
ATOM     26  O   UNL     1       1.785   0.339   0.433  0.00  0.00    -0.153 OA
BRANCH  24  27
ATOM     27  C   UNL     1       3.289   0.558   2.494  0.00  0.00    +0.142 A 
ATOM     28  C   UNL     1       4.147   0.123   3.449  0.00  0.00    +0.036 A 
ATOM     29  C   UNL     1       5.088   1.000   3.955  0.00  0.00    +0.010 A 
ATOM     30  C   UNL     1       5.125   2.269   3.482  0.00  0.00    +0.047 A 
ATOM     31  S   UNL     1       3.807   2.253   2.278  0.00  0.00    -0.077 S 
ENDBRANCH  24  27
ENDBRANCH  22  24
ENDBRANCH  18  22
ENDBRANCH   1  18
TORSDOF 5
