REMARK  Name = ZINC40794751
REMARK  9 active torsions:
REMARK  status: ('A' for Active; 'I' for Inactive)
REMARK    1  A    between atoms: C_1  and  C_2
REMARK    2  A    between atoms: C_3  and  N_9
REMARK    3  A    between atoms: C_10  and  C_12
REMARK    4  A    between atoms: C_16  and  O_18
REMARK    5  A    between atoms: O_18  and  C_19
REMARK    6  A    between atoms: C_19  and  C_20
REMARK    7  A    between atoms: N_24  and  C_25
REMARK    8  A    between atoms: C_25  and  C_26
REMARK    9  A    between atoms: C_25  and  C_27
REMARK                            x       y       z     vdW  Elec       q    Type
REMARK                         _______ _______ _______ _____ _____    ______ ____
ROOT
ATOM      1  C   UNL     1       0.190   0.096  -4.851  0.00  0.00    +0.040 A 
ATOM      2  C   UNL     1       0.177   1.492  -4.844  0.00  0.00    +0.013 A 
ATOM      3  C   UNL     1       0.265   2.188  -6.032  0.00  0.00    +0.004 A 
ATOM      4  C   UNL     1       0.367   1.507  -7.231  0.00  0.00    +0.046 A 
ATOM      5  C   UNL     1       0.381   0.119  -7.248  0.00  0.00    +0.122 A 
ATOM      6  C   UNL     1       0.299  -0.590  -6.061  0.00  0.00    +0.058 A 
ENDROOT
BRANCH   1   8
ATOM      7  N   UNL     1      -0.010   0.011  -2.413  0.00  0.00    -0.281 N 
ATOM      8  C   UNL     1       0.095  -0.654  -3.580  0.00  0.00    +0.248 C 
ATOM      9  O   UNL     1       0.112  -1.869  -3.589  0.00  0.00    -0.270 OA
ATOM     10  H   UNL     1      -0.104   0.976  -2.411  0.00  0.00    +0.155 HD
BRANCH   7  13
ATOM     11  C   UNL     1      -1.264   1.189  -0.146  0.00  0.00    +0.047 C 
ATOM     12  C   UNL     1      -0.583  -0.153  -0.073  0.00  0.00    -0.011 A 
ATOM     13  C   UNL     1       0.017  -0.692  -1.204  0.00  0.00    +0.038 A 
ATOM     14  C   UNL     1       0.643  -1.929  -1.132  0.00  0.00    +0.023 A 
ATOM     15  C   UNL     1       0.668  -2.621   0.064  0.00  0.00    +0.003 A 
ATOM     16  C   UNL     1       0.070  -2.084   1.188  0.00  0.00    +0.020 A 
ATOM     17  C   UNL     1      -0.550  -0.848   1.122  0.00  0.00    +0.046 A 
ATOM     18 CL   UNL     1      -1.294  -0.173   2.538  0.00  0.00    -0.083 Cl
ENDBRANCH   7  13
ENDBRANCH   1   8
BRANCH   5  19
ATOM     19  O   UNL     1       0.482  -0.544  -8.430  0.00  0.00    -0.484 OA
BRANCH  19  20
ATOM     20  C   UNL     1       0.569   0.250  -9.615  0.00  0.00    +0.306 C 
BRANCH  20  21
ATOM     21  C   UNL     1       0.673  -0.652 -10.818  0.00  0.00    +0.189 A 
ATOM     22  N   UNL     1       1.775  -1.115 -11.356  0.00  0.00    -0.110 NA
ATOM     23  N   UNL     1       1.448  -1.848 -12.364  0.00  0.00    -0.023 NA
ATOM     24  N   UNL     1       0.166  -1.864 -12.483  0.00  0.00    -0.044 NA
ATOM     25  N   UNL     1      -0.348  -1.143 -11.545  0.00  0.00    -0.224 N 
BRANCH  25  26
ATOM     26  C   UNL     1      -1.775  -0.901 -11.317  0.00  0.00    +0.105 C 
ATOM     27  C   UNL     1      -2.382  -0.231 -12.551  0.00  0.00    +0.032 C 
ATOM     28  C   UNL     1      -2.483  -2.232 -11.058  0.00  0.00    +0.032 C 
ENDBRANCH  25  26
ENDBRANCH  20  21
ENDBRANCH  19  20
ENDBRANCH   5  19
TORSDOF 6
