REMARK  Name = ZINC38889730
REMARK  7 active torsions:
REMARK  status: ('A' for Active; 'I' for Inactive)
REMARK    1  A    between atoms: C_1  and  O_2
REMARK    2  A    between atoms: O_2  and  C_3
REMARK    3  A    between atoms: C_6  and  C_11
REMARK    4  A    between atoms: C_8  and  O_9
REMARK    5  A    between atoms: O_9  and  C_10
REMARK    6  A    between atoms: N_12  and  N_13
REMARK    7  A    between atoms: C_17  and  C_20
REMARK                            x       y       z     vdW  Elec       q    Type
REMARK                         _______ _______ _______ _____ _____    ______ ____
ROOT
ATOM      1  N   UNL     1       3.601  -2.329  -6.314  0.00  0.00    -0.124 NA
ATOM      2  C   UNL     1       4.141  -1.592  -7.274  0.00  0.00    +0.192 A 
ATOM      3  N   UNL     1       4.787  -1.991  -8.419  0.00  0.00    -0.335 N 
ATOM      4  H   UNL     1       4.901  -2.933  -8.621  0.00  0.00    +0.168 HD
ATOM      5  C   UNL     1       5.263  -1.038  -9.265  0.00  0.00    +0.039 A 
ATOM      6  C   UNL     1       5.100   0.256  -8.979  0.00  0.00    +0.070 A 
ATOM      7  S   UNL     1       4.217   0.186  -7.428  0.00  0.00    -0.056 S 
ENDROOT
BRANCH   5   8
ATOM      8  C   UNL     1       5.976  -1.444 -10.529  0.00  0.00    +0.149 C 
ATOM      9  C   UNL     1       7.202  -2.296 -10.184  0.00  0.00    +0.059 C 
ATOM     10  C   UNL     1       6.766  -3.685  -9.792  0.00  0.00    -0.004 A 
ATOM     11  C   UNL     1       7.639  -4.467  -9.052  0.00  0.00    +0.007 A 
ATOM     12  C   UNL     1       7.283  -5.748  -8.678  0.00  0.00    +0.000 A 
ATOM     13  C   UNL     1       6.050  -6.257  -9.042  0.00  0.00    +0.004 A 
ATOM     14  C   UNL     1       5.175  -5.483  -9.776  0.00  0.00    +0.046 A 
ATOM     15  C   UNL     1       5.530  -4.191 -10.152  0.00  0.00    +0.135 A 
ATOM     16  O   UNL     1       4.630  -3.454 -10.859  0.00  0.00    -0.425 OA
ATOM     17  C   UNL     1       5.057  -2.289 -11.389  0.00  0.00    +0.322 C 
ATOM     18  O   UNL     1       4.725  -1.937 -12.496  0.00  0.00    -0.250 OA
ENDBRANCH   5   8
BRANCH   1  20
ATOM     19  C   UNL     1       2.494  -2.487  -4.362  0.00  0.00    +0.143 C 
ATOM     20  N   UNL     1       3.027  -1.760  -5.309  0.00  0.00    -0.155 NA
BRANCH  19  24
ATOM     21  C   UNL     1       0.606  -0.608  -1.056  0.00  0.00    +0.162 A 
ATOM     22  C   UNL     1       1.172   0.164  -2.061  0.00  0.00    +0.050 A 
ATOM     23  C   UNL     1       1.787  -0.442  -3.137  0.00  0.00    +0.013 A 
ATOM     24  C   UNL     1       1.840  -1.838  -3.216  0.00  0.00    -0.002 A 
ATOM     25  C   UNL     1       1.269  -2.614  -2.202  0.00  0.00    +0.059 A 
ATOM     26  C   UNL     1       0.660  -1.998  -1.125  0.00  0.00    +0.162 A 
BRANCH  21  28
ATOM     27  C   UNL     1      -0.017   1.425   0.010  0.00  0.00    +0.277 C 
ATOM     28  O   UNL     1       0.002  -0.004   0.002  0.00  0.00    -0.491 OA
ENDBRANCH  21  28
BRANCH  26  29
ATOM     29  O   UNL     1       0.108  -2.749  -0.135  0.00  0.00    -0.491 OA
ATOM     30  C   UNL     1       0.199  -4.169  -0.270  0.00  0.00    +0.277 C 
ENDBRANCH  26  29
ENDBRANCH  19  24
ENDBRANCH   1  20
TORSDOF 5
