REMARK  Name = ZINC66247800
REMARK  5 active torsions:
REMARK  status: ('A' for Active; 'I' for Inactive)
REMARK    1  A    between atoms: C_1  and  C_2
REMARK    2  A    between atoms: C_4  and  N_8
REMARK    3  A    between atoms: N_5  and  C_7
REMARK    4  A    between atoms: N_8  and  S_9
REMARK    5  A    between atoms: S_9  and  C_12
REMARK                            x       y       z     vdW  Elec       q    Type
REMARK                         _______ _______ _______ _____ _____    ______ ____
ROOT
ATOM      1  C   UNL     1       1.725  -2.376  -3.629  0.00  0.00    +0.116 A 
ATOM      2  C   UNL     1       2.583  -3.186  -4.324  0.00  0.00    +0.031 A 
ATOM      3  C   UNL     1       3.861  -2.789  -4.713  0.00  0.00    +0.026 A 
ATOM      4  C   UNL     1       4.318  -1.523  -4.399  0.00  0.00    +0.042 A 
ATOM      5  C   UNL     1       3.436  -0.712  -3.692  0.00  0.00    +0.017 A 
ATOM      6  C   UNL     1       2.150  -1.080  -3.295  0.00  0.00    +0.011 A 
ATOM      7  C   UNL     1       1.396  -0.123  -2.593  0.00  0.00    +0.010 A 
ATOM      8  C   UNL     1       1.950   1.103  -2.342  0.00  0.00    +0.001 A 
ATOM      9  C   UNL     1       3.236   1.457  -2.752  0.00  0.00    +0.014 A 
ATOM     10  C   UNL     1       4.014   0.541  -3.437  0.00  0.00    +0.047 A 
ATOM     11  C   UNL     1       5.347   0.453  -4.044  0.00  0.00    +0.249 C 
ATOM     12  O   UNL     1       6.189   1.332  -4.051  0.00  0.00    -0.270 OA
ATOM     13  N   UNL     1       5.476  -0.782  -4.598  0.00  0.00    -0.281 N 
ATOM     14  H   UNL     1       6.264  -1.100  -5.064  0.00  0.00    +0.155 HD
ENDROOT
BRANCH   1  15
ATOM     15  S   UNL     1       0.122  -2.946  -3.170  0.00  0.00    +0.074 S 
ATOM     16  O   UNL     1       0.022  -4.288  -3.624  0.00  0.00    -0.150 OA
ATOM     17  O   UNL     1      -0.796  -1.937  -3.567  0.00  0.00    -0.150 OA
BRANCH  15  18
ATOM     18  N   UNL     1       0.077  -3.001  -1.515  0.00  0.00    -0.200 N 
ATOM     19  H   UNL     1      -0.521  -2.415  -1.026  0.00  0.00    +0.175 HD
BRANCH  18  23
ATOM     20  C   UNL     1       3.523  -6.461  -0.494  0.00  0.00    +0.067 C 
ATOM     21  C   UNL     1       2.433  -5.433  -0.339  0.00  0.00    +0.062 A 
ATOM     22  C   UNL     1       1.834  -4.713  -1.376  0.00  0.00    +0.069 A 
ATOM     23  C   UNL     1       0.899  -3.889  -0.826  0.00  0.00    +0.136 A 
ATOM     24  N   UNL     1       0.915  -4.090   0.511  0.00  0.00    -0.252 N 
ATOM     25  N   UNL     1       1.880  -5.066   0.789  0.00  0.00    -0.175 NA
ATOM     26  C   UNL     1       0.068  -3.410   1.495  0.00  0.00    +0.174 C 
ENDBRANCH  18  23
ENDBRANCH  15  18
ENDBRANCH   1  15
TORSDOF 3
