REMARK  Name = ZINC36849680
REMARK  8 active torsions:
REMARK  status: ('A' for Active; 'I' for Inactive)
REMARK    1  A    between atoms: C_1  and  O_2
REMARK    2  A    between atoms: O_2  and  C_3
REMARK    3  A    between atoms: C_8  and  N_9
REMARK    4  A    between atoms: C_13  and  S_14
REMARK    5  A    between atoms: S_14  and  C_15
REMARK    6  A    between atoms: C_15  and  C_16
REMARK    7  A    between atoms: C_19  and  C_29
REMARK    8  A    between atoms: C_22  and  C_24
REMARK                            x       y       z     vdW  Elec       q    Type
REMARK                         _______ _______ _______ _____ _____    ______ ____
ROOT
ATOM      1  C   UNL     1       2.827  -1.768  -4.491  0.00  0.00    +0.246 C 
ATOM      2  O   UNL     1       3.568  -0.993  -3.923  0.00  0.00    -0.273 OA
ATOM      3  N   UNL     1       2.980  -2.005  -5.809  0.00  0.00    -0.184 N 
ATOM      4  C   UNL     1       4.005  -1.397  -6.673  0.00  0.00    +0.143 C 
ATOM      5  C   UNL     1       3.722  -2.013  -8.058  0.00  0.00    +0.088 C 
ATOM      6  C   UNL     1       2.538  -2.923  -7.818  0.00  0.00    +0.075 C 
ATOM      7  N   UNL     1       2.199  -2.868  -6.574  0.00  0.00    -0.180 NA
ENDROOT
BRANCH   6   8
ATOM      8  C   UNL     1       1.882  -3.745  -8.840  0.00  0.00    +0.035 A 
ATOM      9  C   UNL     1       0.799  -4.597  -8.711  0.00  0.00    +0.017 A 
ATOM     10  C   UNL     1       0.359  -5.269  -9.827  0.00  0.00    +0.008 A 
ATOM     11  C   UNL     1       0.996  -5.078 -11.012  0.00  0.00    +0.046 A 
ATOM     12  S   UNL     1       2.268  -3.905 -10.575  0.00  0.00    -0.095 S 
ENDBRANCH   6   8
BRANCH   4  13
ATOM     13  C   UNL     1       3.845   0.101  -6.713  0.00  0.00    +0.013 A 
ATOM     14  C   UNL     1       4.802   1.060  -6.734  0.00  0.00    +0.013 A 
ATOM     15  C   UNL     1       4.419   2.388  -6.770  0.00  0.00    +0.008 A 
ATOM     16  C   UNL     1       3.098   2.691  -6.784  0.00  0.00    +0.045 A 
ATOM     17  S   UNL     1       2.348   1.071  -6.752  0.00  0.00    -0.100 S 
ENDBRANCH   4  13
BRANCH   1  18
ATOM     18  C   UNL     1       1.734  -2.466  -3.723  0.00  0.00    +0.175 C 
BRANCH  18  19
ATOM     19  S   UNL     1       1.786  -1.942  -1.987  0.00  0.00    -0.076 S 
BRANCH  19  24
ATOM     20  N   UNL     1       0.096  -2.779   0.083  0.00  0.00    -0.273 N 
ATOM     21  C   UNL     1      -0.972  -3.629   0.201  0.00  0.00    +0.230 A 
ATOM     22  N   UNL     1      -1.192  -4.141  -0.978  0.00  0.00    -0.137 NA
ATOM     23  N   UNL     1      -0.344  -3.679  -1.826  0.00  0.00    -0.122 NA
ATOM     24  C   UNL     1       0.467  -2.834  -1.232  0.00  0.00    +0.196 A 
BRANCH  20  30
ATOM     25  C   UNL     1       0.626  -0.619   1.042  0.00  0.00    +0.144 A 
ATOM     26  C   UNL     1       1.202   0.137   2.051  0.00  0.00    +0.048 A 
ATOM     27  C   UNL     1       1.836  -0.489   3.107  0.00  0.00    +0.004 A 
ATOM     28  C   UNL     1       1.898  -1.870   3.161  0.00  0.00    +0.002 A 
ATOM     29  C   UNL     1       1.326  -2.630   2.159  0.00  0.00    +0.030 A 
ATOM     30  C   UNL     1       0.683  -2.009   1.099  0.00  0.00    +0.091 A 
BRANCH  25  32
ATOM     31  C   UNL     1      -0.017   1.425   0.010  0.00  0.00    +0.277 C 
ATOM     32  O   UNL     1       0.002  -0.004   0.002  0.00  0.00    -0.493 OA
ENDBRANCH  25  32
ENDBRANCH  20  30
ENDBRANCH  19  24
ENDBRANCH  18  19
ENDBRANCH   1  18
TORSDOF 7
