REMARK  Name = ZINC45799158
REMARK  5 active torsions:
REMARK  status: ('A' for Active; 'I' for Inactive)
REMARK    1  A    between atoms: C_4  and  N_7
REMARK    2  A    between atoms: C_10  and  C_12
REMARK    3  A    between atoms: N_14  and  N_15
REMARK    4  A    between atoms: C_16  and  C_18
REMARK    5  A    between atoms: C_18  and  C_21
REMARK                            x       y       z     vdW  Elec       q    Type
REMARK                         _______ _______ _______ _____ _____    ______ ____
ROOT
ATOM      1  C   UNL     1       7.214  -0.793  -0.079  0.00  0.00    +0.284 C 
ATOM      2  O   UNL     1       7.999  -1.721  -0.100  0.00  0.00    -0.267 OA
ATOM      3  N   UNL     1       7.669   0.475  -0.064  0.00  0.00    -0.229 N 
ATOM      4  H   UNL     1       7.042   1.215  -0.047  0.00  0.00    +0.173 HD
ENDROOT
BRANCH   1   8
ATOM      5  N   UNL     1       3.652  -0.724  -0.041  0.00  0.00    -0.235 N 
ATOM      6  C   UNL     1       3.803  -2.076  -0.064  0.00  0.00    +0.166 A 
ATOM      7  C   UNL     1       5.136  -2.329  -0.081  0.00  0.00    +0.229 A 
ATOM      8  C   UNL     1       5.763  -1.056  -0.068  0.00  0.00    +0.195 A 
ATOM      9  N   UNL     1       4.802  -0.151  -0.050  0.00  0.00    -0.158 NA
ATOM     10  O   UNL     1       5.745  -3.546  -0.106  0.00  0.00    -0.284 OA
BRANCH   5  14
ATOM     11  C   UNL     1      -0.007   1.270   0.026  0.00  0.00    +0.000 A 
ATOM     12  C   UNL     1       1.172   1.992   0.020  0.00  0.00    +0.002 A 
ATOM     13  C   UNL     1       2.386   1.334  -0.003  0.00  0.00    +0.028 A 
ATOM     14  C   UNL     1       2.422  -0.054  -0.018  0.00  0.00    +0.065 A 
ATOM     15  C   UNL     1       1.236  -0.776  -0.012  0.00  0.00    +0.028 A 
ATOM     16  C   UNL     1       0.025  -0.113   0.010  0.00  0.00    +0.002 A 
ENDBRANCH   5  14
ENDBRANCH   1   8
BRANCH   3  17
ATOM     17  N   UNL     1       9.048   0.725  -0.074  0.00  0.00    -0.233 N 
ATOM     18  C   UNL     1       9.503   1.993  -0.059  0.00  0.00    +0.240 C 
ATOM     19  O   UNL     1       8.723   2.918  -0.132  0.00  0.00    -0.273 OA
ATOM     20  H   UNL     1       9.674  -0.016  -0.091  0.00  0.00    +0.173 HD
BRANCH  18  21
ATOM     21  C   UNL     1      10.982   2.261   0.048  0.00  0.00    +0.073 C 
ATOM     22  C   UNL     1      11.584   3.292  -0.909  0.00  0.00    +0.022 C 
ATOM     23  C   UNL     1      11.869   1.803  -1.111  0.00  0.00    +0.022 C 
BRANCH  21  24
ATOM     24  C   UNL     1      11.558   2.182   1.438  0.00  0.00    -0.032 A 
ATOM     25  C   UNL     1      12.874   1.798   1.620  0.00  0.00    +0.006 A 
ATOM     26  C   UNL     1      13.402   1.726   2.895  0.00  0.00    +0.015 A 
ATOM     27  C   UNL     1      12.615   2.037   3.989  0.00  0.00    +0.018 A 
ATOM     28  C   UNL     1      11.299   2.421   3.807  0.00  0.00    +0.015 A 
ATOM     29  C   UNL     1      10.772   2.498   2.531  0.00  0.00    +0.006 A 
ATOM     30 BR   UNL     1      13.338   1.938   5.734  0.00  0.00    -0.050 Br
ENDBRANCH  21  24
ENDBRANCH  18  21
ENDBRANCH   3  17
TORSDOF 5
