REMARK  Name = ZINC36594977
REMARK  12 active torsions:
REMARK  status: ('A' for Active; 'I' for Inactive)
REMARK    1  A    between atoms: C_1  and  C_2
REMARK    2  A    between atoms: C_2  and  C_3
REMARK    3  A    between atoms: C_2  and  C_4
REMARK    4  A    between atoms: C_4  and  C_6
REMARK    5  A    between atoms: C_4  and  N_10
REMARK    6  A    between atoms: C_6  and  O_8
REMARK    7  A    between atoms: O_8  and  C_9
REMARK    8  A    between atoms: C_22  and  C_24
REMARK    9  A    between atoms: C_26  and  O_32
REMARK   10  A    between atoms: C_28  and  O_30
REMARK   11  A    between atoms: O_30  and  C_31
REMARK   12  A    between atoms: O_32  and  C_33
REMARK                            x       y       z     vdW  Elec       q    Type
REMARK                         _______ _______ _______ _____ _____    ______ ____
ROOT
ATOM      1  N   UNL     1      -1.300  -2.012   2.206  0.00  0.00    -0.286 N 
ATOM      2  C   UNL     1      -0.242  -2.691   1.721  0.00  0.00    +0.304 C 
ATOM      3  O   UNL     1       0.676  -2.091   1.195  0.00  0.00    -0.253 OA
ATOM      4  N   UNL     1      -0.200  -4.034   1.819  0.00  0.00    -0.273 N 
ATOM      5  C   UNL     1       0.992  -4.784   1.397  0.00  0.00    +0.116 C 
ATOM      6  C   UNL     1       1.610  -5.475   2.619  0.00  0.00    +0.074 C 
ATOM      7  C   UNL     1       0.509  -6.122   3.418  0.00  0.00    +0.040 A 
ATOM      8  C   UNL     1      -0.802  -5.821   3.310  0.00  0.00    +0.062 A 
ATOM      9  N   UNL     1      -1.477  -6.587   4.171  0.00  0.00    -0.348 N 
ATOM     10  C   UNL     1      -0.635  -7.356   4.809  0.00  0.00    +0.171 A 
ATOM     11  N   UNL     1       0.617  -7.096   4.365  0.00  0.00    -0.349 N 
ATOM     12  H   UNL     1       1.435  -7.521   4.665  0.00  0.00    +0.166 HD
ATOM     13  C   UNL     1      -1.347  -4.787   2.359  0.00  0.00    +0.156 C 
ATOM     14  H   UNL     1      -2.067  -2.494   2.555  0.00  0.00    +0.151 HD
ATOM     15  H   UNL     1      -2.438  -6.574   4.301  0.00  0.00    +0.167 HD
ENDROOT
BRANCH  13  16
ATOM     16  C   UNL     1      -2.086  -5.469   1.237  0.00  0.00    -0.014 A 
ATOM     17  C   UNL     1      -1.459  -6.450   0.493  0.00  0.00    +0.051 A 
ATOM     18  C   UNL     1      -2.139  -7.079  -0.541  0.00  0.00    +0.124 A 
ATOM     19  C   UNL     1      -3.447  -6.722  -0.827  0.00  0.00    +0.091 A 
ATOM     20  C   UNL     1      -4.074  -5.737  -0.080  0.00  0.00    +0.124 A 
ATOM     21  C   UNL     1      -3.392  -5.115   0.957  0.00  0.00    +0.051 A 
BRANCH  20  22
ATOM     22  O   UNL     1      -5.356  -5.385  -0.359  0.00  0.00    -0.495 OA
ATOM     23  C   UNL     1      -5.998  -6.070  -1.436  0.00  0.00    +0.277 C 
ENDBRANCH  20  22
BRANCH  18  24
ATOM     24  O   UNL     1      -1.521  -8.044  -1.272  0.00  0.00    -0.495 OA
ATOM     25  C   UNL     1      -2.280  -8.649  -2.321  0.00  0.00    +0.277 C 
ENDBRANCH  18  24
ENDBRANCH  13  16
BRANCH   1  26
ATOM     26  C   UNL     1      -1.294  -0.547   2.206  0.00  0.00    +0.186 C 
BRANCH  26  28
ATOM     27  C   UNL     1      -0.573   1.490   3.461  0.00  0.00    +0.009 C 
ATOM     28  C   UNL     1      -0.580  -0.040   3.461  0.00  0.00    +0.014 C 
ATOM     29  C   UNL     1      -1.313  -0.547   4.704  0.00  0.00    +0.009 C 
ENDBRANCH  26  28
BRANCH  26  30
ATOM     30  C   UNL     1      -2.712  -0.038   2.195  0.00  0.00    +0.328 C 
ATOM     31  O   UNL     1      -3.634  -0.819   2.188  0.00  0.00    -0.249 OA
BRANCH  30  32
ATOM     32  O   UNL     1      -2.951   1.282   2.193  0.00  0.00    -0.467 OA
ATOM     33  C   UNL     1      -4.320   1.694   2.182  0.00  0.00    +0.280 C 
ENDBRANCH  30  32
ENDBRANCH  26  30
ENDBRANCH   1  26
TORSDOF 7
