REMARK  Name = ZINC64502991
REMARK  4 active torsions:
REMARK  status: ('A' for Active; 'I' for Inactive)
REMARK    1  A    between atoms: C_1  and  C_2
REMARK    2  A    between atoms: C_5  and  N_8
REMARK    3  A    between atoms: C_13  and  N_16
REMARK    4  A    between atoms: C_22  and  C_24
REMARK                            x       y       z     vdW  Elec       q    Type
REMARK                         _______ _______ _______ _____ _____    ______ ____
ROOT
ATOM      1  N   UNL     1      -0.342  -6.822   2.403  0.00  0.00    -0.280 NA
ATOM      2  C   UNL     1      -0.816  -6.116   3.601  0.00  0.00    +0.105 C 
ATOM      3  C   UNL     1      -0.641  -7.020   4.826  0.00  0.00    +0.123 C 
ATOM      4  N   UNL     1       0.759  -7.467   4.881  0.00  0.00    -0.297 N 
ATOM      5  C   UNL     1       1.347  -8.062   3.671  0.00  0.00    +0.123 C 
ATOM      6  C   UNL     1       1.095  -7.117   2.492  0.00  0.00    +0.105 C 
ATOM      7  C   UNL     1       1.483  -7.336   6.010  0.00  0.00    +0.242 C 
ATOM      8  O   UNL     1       0.981  -6.844   6.998  0.00  0.00    -0.273 OA
ENDROOT
BRANCH   7   9
ATOM      9  C   UNL     1       2.916  -7.801   6.044  0.00  0.00    +0.190 C 
ATOM     10  C   UNL     1       3.743  -7.012   5.054  0.00  0.00    +0.016 C 
ATOM     11  C   UNL     1       4.692  -6.377   5.779  0.00  0.00    -0.004 A 
ATOM     12  C   UNL     1       5.786  -5.471   5.409  0.00  0.00    +0.010 A 
ATOM     13  C   UNL     1       6.591  -4.984   6.381  0.00  0.00    +0.001 A 
ATOM     14  C   UNL     1       6.407  -5.322   7.729  0.00  0.00    +0.002 A 
ATOM     15  C   UNL     1       5.424  -6.148   8.146  0.00  0.00    +0.026 A 
ATOM     16  C   UNL     1       4.519  -6.718   7.209  0.00  0.00    +0.043 A 
ATOM     17  N   UNL     1       3.502  -7.534   7.363  0.00  0.00    -0.370 N 
ATOM     18  H   UNL     1       3.191  -7.900   8.205  0.00  0.00    +0.161 HD
ENDBRANCH   7   9
BRANCH   1  24
ATOM     19  N   UNL     1       0.059  -4.169  -0.021  0.00  0.00    -0.200 N 
ATOM     20  C   UNL     1      -0.035  -4.830  -1.193  0.00  0.00    +0.257 C 
ATOM     21  O   UNL     1      -0.097  -4.220  -2.243  0.00  0.00    -0.269 OA
ATOM     22  C   UNL     1      -0.062  -6.305  -1.178  0.00  0.00    +0.068 C 
ATOM     23  C   UNL     1      -0.358  -6.911  -0.024  0.00  0.00    +0.014 C 
ATOM     24  C   UNL     1      -0.649  -6.060   1.186  0.00  0.00    +0.166 C 
ATOM     25  N   UNL     1       0.177  -4.846   1.155  0.00  0.00    -0.212 NA
ATOM     26  H   UNL     1       1.143  -5.057   1.355  0.00  0.00    +0.147 HD
BRANCH  19  31
ATOM     27  C   UNL     1      -0.015   1.503   0.009  0.00  0.00    +0.044 C 
ATOM     28  C   UNL     1       0.004  -0.004   0.001  0.00  0.00    -0.050 A 
ATOM     29  C   UNL     1       0.979  -0.685   0.707  0.00  0.00    +0.005 A 
ATOM     30  C   UNL     1       1.000  -2.066   0.701  0.00  0.00    +0.025 A 
ATOM     31  C   UNL     1       0.040  -2.771  -0.013  0.00  0.00    +0.053 A 
ATOM     32  C   UNL     1      -0.938  -2.084  -0.721  0.00  0.00    +0.025 A 
ATOM     33  C   UNL     1      -0.956  -0.703  -0.707  0.00  0.00    +0.005 A 
ENDBRANCH  19  31
ENDBRANCH   1  24
TORSDOF 3
