REMARK  Name = ZINC40142551
REMARK  10 active torsions:
REMARK  status: ('A' for Active; 'I' for Inactive)
REMARK    1  A    between atoms: C_1  and  O_2
REMARK    2  A    between atoms: O_2  and  C_3
REMARK    3  A    between atoms: C_6  and  C_14
REMARK    4  A    between atoms: C_7  and  C_11
REMARK    5  A    between atoms: C_8  and  O_9
REMARK    6  A    between atoms: O_9  and  C_10
REMARK    7  A    between atoms: N_15  and  N_16
REMARK    8  A    between atoms: C_21  and  C_24
REMARK    9  A    between atoms: C_24  and  C_25
REMARK   10  A    between atoms: C_25  and  C_27
REMARK                            x       y       z     vdW  Elec       q    Type
REMARK                         _______ _______ _______ _____ _____    ______ ____
ROOT
ATOM      1  N   UNL     1      -5.735  -4.926  -0.252  0.00  0.00    -0.127 NA
ATOM      2  C   UNL     1      -5.626  -6.222  -0.475  0.00  0.00    +0.183 C 
ATOM      3  N   UNL     1      -4.480  -6.984  -0.515  0.00  0.00    -0.263 N 
ATOM      4  C   UNL     1      -4.500  -8.285  -0.750  0.00  0.00    +0.232 C 
ATOM      5  O   UNL     1      -3.486  -8.950  -0.784  0.00  0.00    -0.274 OA
ATOM      6  C   UNL     1      -5.874  -8.896  -0.974  0.00  0.00    +0.147 C 
ATOM      7  S   UNL     1      -6.932  -7.401  -0.786  0.00  0.00    -0.075 S 
ATOM      8  H   UNL     1      -3.625  -6.550  -0.367  0.00  0.00    +0.157 HD
ENDROOT
BRANCH   1  10
ATOM      9  C   UNL     1      -4.781  -2.902  -0.017  0.00  0.00    +0.143 C 
ATOM     10  N   UNL     1      -4.675  -4.200  -0.140  0.00  0.00    -0.155 NA
BRANCH   9  14
ATOM     11  C   UNL     1      -1.279  -0.486   0.032  0.00  0.00    +0.162 A 
ATOM     12  C   UNL     1      -1.178  -1.870   0.019  0.00  0.00    +0.050 A 
ATOM     13  C   UNL     1      -2.311  -2.657   0.004  0.00  0.00    +0.014 A 
ATOM     14  C   UNL     1      -3.576  -2.066   0.000  0.00  0.00    +0.013 A 
ATOM     15  C   UNL     1      -3.689  -0.655   0.013  0.00  0.00    +0.117 A 
ATOM     16  C   UNL     1      -2.527   0.128   0.035  0.00  0.00    +0.176 A 
BRANCH  15  17
ATOM     17  C   UNL     1      -5.010  -0.019   0.010  0.00  0.00    +0.391 C 
ATOM     18  O   UNL     1      -6.020  -0.704   0.101  0.00  0.00    -0.240 OA
ATOM     19  O   UNL     1      -5.103   1.198  -0.085  0.00  0.00    -0.240 OA
ENDBRANCH  15  17
BRANCH  11  21
ATOM     20  C   UNL     1       1.098  -0.420   0.042  0.00  0.00    +0.277 C 
ATOM     21  O   UNL     1      -0.151   0.274   0.046  0.00  0.00    -0.491 OA
ENDBRANCH  11  21
BRANCH  16  22
ATOM     22  O   UNL     1      -2.619   1.482   0.053  0.00  0.00    -0.491 OA
ATOM     23  C   UNL     1      -2.658   2.146  -1.212  0.00  0.00    +0.277 C 
ENDBRANCH  16  22
ENDBRANCH   9  14
ENDBRANCH   1  10
BRANCH   6  24
ATOM     24  C   UNL     1      -6.200  -9.938   0.099  0.00  0.00    +0.103 C 
BRANCH  24  25
ATOM     25  C   UNL     1      -7.511 -10.603  -0.229  0.00  0.00    +0.165 C 
ATOM     26  O   UNL     1      -8.126 -10.276  -1.222  0.00  0.00    -0.292 OA
BRANCH  25  27
ATOM     27  C   UNL     1      -8.047 -11.649   0.656  0.00  0.00    +0.018 A 
ATOM     28  C   UNL     1      -7.344 -12.024   1.806  0.00  0.00    +0.013 A 
ATOM     29  C   UNL     1      -7.852 -13.005   2.631  0.00  0.00    +0.020 A 
ATOM     30  C   UNL     1      -9.056 -13.618   2.323  0.00  0.00    +0.041 A 
ATOM     31  C   UNL     1      -9.757 -13.252   1.186  0.00  0.00    +0.020 A 
ATOM     32  C   UNL     1      -9.264 -12.269   0.355  0.00  0.00    +0.013 A 
ATOM     33 CL   UNL     1      -9.687 -14.853   3.367  0.00  0.00    -0.084 Cl
ENDBRANCH  25  27
ENDBRANCH  24  25
ENDBRANCH   6  24
TORSDOF 8
