REMARK  Name = ZINC65999566
REMARK  6 active torsions:
REMARK  status: ('A' for Active; 'I' for Inactive)
REMARK    1  A    between atoms: C_3  and  C_15
REMARK    2  A    between atoms: C_5  and  O_7
REMARK    3  A    between atoms: O_7  and  C_8
REMARK    4  A    between atoms: C_8  and  C_9
REMARK    5  A    between atoms: C_16  and  C_17
REMARK    6  A    between atoms: C_16  and  C_19
REMARK                            x       y       z     vdW  Elec       q    Type
REMARK                         _______ _______ _______ _____ _____    ______ ____
ROOT
ATOM      1  C   UNL     1       3.190   2.030   0.277  0.00  0.00    +0.030 C 
ATOM      2  C   UNL     1       3.458   3.188  -0.388  0.00  0.00    +0.097 C 
ENDROOT
BRANCH   2   3
ATOM      3  C   UNL     1       2.397   3.852  -1.176  0.00  0.00    +0.177 A 
ATOM      4  N   UNL     1       2.025   5.095  -0.878  0.00  0.00    -0.194 NA
ATOM      5  C   UNL     1       1.071   5.690  -1.587  0.00  0.00    +0.217 A 
ATOM      6  N   UNL     1       0.488   5.044  -2.592  0.00  0.00    -0.181 NA
ATOM      7  C   UNL     1       0.859   3.803  -2.890  0.00  0.00    +0.217 A 
ATOM      8  N   UNL     1       0.253   3.134  -3.934  0.00  0.00    -0.327 N 
ATOM      9  N   UNL     1       1.817   3.208  -2.187  0.00  0.00    -0.194 NA
ATOM     10  N   UNL     1       0.685   6.979  -1.279  0.00  0.00    -0.327 N 
ATOM     11  H   UNL     1      -0.444   3.569  -4.450  0.00  0.00    +0.145 HD
ATOM     12  H   UNL     1       1.162   7.479  -0.598  0.00  0.00    +0.145 HD
ATOM     13  H   UNL     1      -0.063   7.386  -1.744  0.00  0.00    +0.145 HD
ATOM     14  H   UNL     1       0.523   2.228  -4.152  0.00  0.00    +0.145 HD
ENDBRANCH   2   3
BRANCH   1  17
ATOM     15  C   UNL     1      -0.557   1.936   0.403  0.00  0.00    +0.004 A 
ATOM     16  C   UNL     1       0.734   2.417   0.341  0.00  0.00    +0.008 A 
ATOM     17  C   UNL     1       1.813   1.524   0.344  0.00  0.00    -0.020 A 
ATOM     18  C   UNL     1       1.572   0.147   0.410  0.00  0.00    +0.053 A 
ATOM     19  C   UNL     1       0.272  -0.321   0.472  0.00  0.00    +0.121 A 
ATOM     20  C   UNL     1      -0.791   0.575   0.469  0.00  0.00    +0.045 A 
BRANCH  19  21
ATOM     21  O   UNL     1       0.033  -1.657   0.537  0.00  0.00    -0.492 OA
BRANCH  21  22
ATOM     22  C   UNL     1      -1.333  -2.070   0.599  0.00  0.00    +0.232 C 
BRANCH  22  23
ATOM     23  C   UNL     1      -1.402  -3.597   0.666  0.00  0.00    +0.027 C 
ATOM     24  C   UNL     1      -0.859  -4.190  -0.635  0.00  0.00    +0.007 C 
ATOM     25  C   UNL     1      -0.928  -5.717  -0.568  0.00  0.00    +0.000 C 
ATOM     26  C   UNL     1      -2.381  -6.154  -0.376  0.00  0.00    +0.000 C 
ATOM     27  C   UNL     1      -2.925  -5.561   0.925  0.00  0.00    +0.000 C 
ATOM     28  C   UNL     1      -2.856  -4.034   0.858  0.00  0.00    +0.007 C 
ENDBRANCH  22  23
ENDBRANCH  21  22
ENDBRANCH  19  21
ENDBRANCH   1  17
BRANCH   2  29
ATOM     29  C   UNL     1       4.768   3.764  -0.324  0.00  0.00    +0.103 C 
ATOM     30  N   UNL     1       5.807   4.220  -0.273  0.00  0.00    -0.191 NA
ENDBRANCH   2  29
TORSDOF 6
