REMARK  Name = ZINC08996011
REMARK  4 active torsions:
REMARK  status: ('A' for Active; 'I' for Inactive)
REMARK    1  A    between atoms: C_1  and  O_2
REMARK    2  A    between atoms: O_2  and  C_3
REMARK    3  A    between atoms: C_6  and  N_33
REMARK    4  A    between atoms: C_8  and  N_9
REMARK                            x       y       z     vdW  Elec       q    Type
REMARK                         _______ _______ _______ _____ _____    ______ ____
ROOT
ATOM      1  N   UNL     1      -4.003   2.370   2.723  0.00  0.00    -0.206 N 
ATOM      2  C   UNL     1      -4.900   2.287   1.684  0.00  0.00    +0.229 C 
ATOM      3  O   UNL     1      -6.038   1.869   1.714  0.00  0.00    -0.275 OA
ATOM      4  C   UNL     1      -4.177   2.810   0.551  0.00  0.00    +0.074 C 
ATOM      5  C   UNL     1      -4.363   3.193  -0.858  0.00  0.00    -0.054 C 
ATOM      6  C   UNL     1      -4.162   1.983  -1.793  0.00  0.00    -0.016 C 
ATOM      7  C   UNL     1      -2.774   2.172  -2.432  0.00  0.00    -0.020 C 
ATOM      8  C   UNL     1      -2.544   3.694  -2.351  0.00  0.00    -0.076 C 
ATOM      9  C   UNL     1      -2.344   4.148   0.063  0.00  0.00    +0.053 C 
ATOM     10  C   UNL     1      -3.320   3.952   1.208  0.00  0.00    +0.089 C 
ATOM     11  C   UNL     1      -2.947   3.192   2.442  0.00  0.00    +0.230 C 
ATOM     12  O   UNL     1      -1.913   3.285   3.068  0.00  0.00    -0.275 OA
ATOM     13  C   UNL     1      -1.252   3.130   0.034  0.00  0.00    -0.027 A 
ATOM     14  C   UNL     1      -1.218   1.751   0.017  0.00  0.00    +0.004 A 
ATOM     15  C   UNL     1      -0.013   1.076   0.008  0.00  0.00    +0.000 A 
ATOM     16  C   UNL     1       1.175   1.785   0.000  0.00  0.00    +0.002 A 
ATOM     17  C   UNL     1       1.154   3.163   0.022  0.00  0.00    +0.023 A 
ATOM     18  C   UNL     1      -0.058   3.849   0.053  0.00  0.00    +0.036 A 
ATOM     19  N   UNL     1      -0.320   5.220   0.112  0.00  0.00    -0.286 N 
ATOM     20  C   UNL     1      -1.639   5.481   0.154  0.00  0.00    +0.212 C 
ATOM     21  O   UNL     1      -2.159   6.573   0.247  0.00  0.00    -0.277 OA
ATOM     22  H   UNL     1       0.368   5.903   0.121  0.00  0.00    +0.155 HD
ATOM     23  N   UNL     1      -3.263   4.136  -1.127  0.00  0.00    +0.395 N 
ATOM     24  H   UNL     1      -3.641   5.079  -1.276  0.00  0.00    -0.079 HD
ENDROOT
BRANCH   1  30
ATOM     25  C   UNL     1      -3.623   0.420   4.111  0.00  0.00    +0.142 A 
ATOM     26  C   UNL     1      -3.781  -0.241   5.318  0.00  0.00    +0.050 A 
ATOM     27  C   UNL     1      -4.468   0.364   6.354  0.00  0.00    +0.036 A 
ATOM     28  C   UNL     1      -5.000   1.630   6.189  0.00  0.00    +0.128 A 
ATOM     29  C   UNL     1      -4.843   2.298   4.989  0.00  0.00    +0.060 A 
ATOM     30  C   UNL     1      -4.159   1.695   3.944  0.00  0.00    +0.088 A 
BRANCH  28  31
ATOM     31  N   UNL     1      -5.734   2.273   7.301  0.00  0.00    +0.056 N 
ATOM     32  O   UNL     1      -5.869   1.687   8.361  0.00  0.00    -0.126 OA
ATOM     33  O   UNL     1      -6.204   3.387   7.158  0.00  0.00    -0.126 OA
ENDBRANCH  28  31
BRANCH  25  35
ATOM     34  C   UNL     1      -2.425  -1.481   3.334  0.00  0.00    +0.277 C 
ATOM     35  O   UNL     1      -2.947  -0.173   3.091  0.00  0.00    -0.493 OA
ENDBRANCH  25  35
ENDBRANCH   1  30
TORSDOF 3
