REMARK  Name = ZINC06982338
REMARK  6 active torsions:
REMARK  status: ('A' for Active; 'I' for Inactive)
REMARK    1  A    between atoms: C_1  and  C_2
REMARK    2  A    between atoms: N_10  and  N_11
REMARK    3  A    between atoms: C_12  and  C_13
REMARK    4  A    between atoms: C_15  and  O_21
REMARK    5  A    between atoms: C_16  and  O_20
REMARK    6  A    between atoms: O_21  and  C_22
REMARK                            x       y       z     vdW  Elec       q    Type
REMARK                         _______ _______ _______ _____ _____    ______ ____
ROOT
ATOM      1  N   UNL     1       3.611  -1.839  -0.026  0.00  0.00    -0.188 NA
ATOM      2  C   UNL     1       4.765  -2.433  -0.035  0.00  0.00    +0.138 C 
ENDROOT
BRANCH   1  12
ATOM      3  C   UNL     1      -0.018   1.503   0.010  0.00  0.00    +0.066 C 
ATOM      4  C   UNL     1       0.002  -0.004   0.002  0.00  0.00    +0.047 A 
ATOM      5  C   UNL     1      -1.171  -0.701   0.004  0.00  0.00    +0.093 A 
ATOM      6  C   UNL     1      -1.127  -2.107  -0.004  0.00  0.00    +0.253 A 
ATOM      7  O   UNL     1      -2.157  -2.761  -0.004  0.00  0.00    -0.268 OA
ATOM      8  N   UNL     1       0.077  -2.718  -0.014  0.00  0.00    -0.294 N 
ATOM      9  H   UNL     1       0.131  -3.687  -0.020  0.00  0.00    +0.172 HD
ATOM     10  C   UNL     1       1.215  -1.970  -0.015  0.00  0.00    +0.216 A 
ATOM     11  N   UNL     1       1.164  -0.652  -0.013  0.00  0.00    -0.220 NA
ATOM     12  N   UNL     1       2.433  -2.597  -0.024  0.00  0.00    -0.207 N 
ATOM     13  H   UNL     1       2.479  -3.566  -0.030  0.00  0.00    +0.177 HD
ENDBRANCH   1  12
BRANCH   2  14
ATOM     14  C   UNL     1       6.004  -1.635  -0.036  0.00  0.00    -0.001 A 
ATOM     15  C   UNL     1       7.248  -2.273  -0.051  0.00  0.00    +0.059 A 
ATOM     16  C   UNL     1       8.407  -1.521  -0.052  0.00  0.00    +0.163 A 
ATOM     17  C   UNL     1       8.335  -0.129  -0.039  0.00  0.00    +0.173 A 
ATOM     18  C   UNL     1       7.101   0.505  -0.024  0.00  0.00    +0.063 A 
ATOM     19  C   UNL     1       5.939  -0.240  -0.028  0.00  0.00    +0.028 A 
ATOM     20 BR   UNL     1       7.011   2.394  -0.005  0.00  0.00    -0.046 Br
BRANCH  17  21
ATOM     21  O   UNL     1       9.477   0.609  -0.040  0.00  0.00    -0.503 OA
ATOM     22  H   UNL     1       9.801   0.831  -0.923  0.00  0.00    +0.292 HD
ENDBRANCH  17  21
BRANCH  16  23
ATOM     23  O   UNL     1       9.619  -2.139  -0.067  0.00  0.00    -0.491 OA
ATOM     24  C   UNL     1       9.618  -3.567  -0.080  0.00  0.00    +0.277 C 
ENDBRANCH  16  23
ENDBRANCH   2  14
TORSDOF 4
