REMARK  Name = ZINC62551055
REMARK  4 active torsions:
REMARK  status: ('A' for Active; 'I' for Inactive)
REMARK    1  A    between atoms: C_1  and  C_2
REMARK    2  A    between atoms: C_8  and  O_28
REMARK    3  A    between atoms: N_12  and  S_13
REMARK    4  A    between atoms: S_13  and  C_16
REMARK                            x       y       z     vdW  Elec       q    Type
REMARK                         _______ _______ _______ _____ _____    ______ ____
ROOT
ATOM      1  S   UNL     1      -0.286  -4.984  -1.439  0.00  0.00    +0.075 S 
ATOM      2  O   UNL     1      -0.628  -6.311  -1.064  0.00  0.00    -0.150 OA
ATOM      3  O   UNL     1      -1.161  -4.155  -2.191  0.00  0.00    -0.150 OA
ENDROOT
BRANCH   1   4
ATOM      4  C   UNL     1       1.217  -5.090  -2.353  0.00  0.00    +0.111 A 
ATOM      5  C   UNL     1       1.550  -4.089  -3.249  0.00  0.00    +0.031 A 
ATOM      6  C   UNL     1       2.726  -4.163  -3.970  0.00  0.00    +0.030 A 
ATOM      7  C   UNL     1       3.576  -5.245  -3.795  0.00  0.00    +0.067 A 
ATOM      8  C   UNL     1       3.240  -6.254  -2.891  0.00  0.00    +0.069 A 
ATOM      9  C   UNL     1       2.060  -6.168  -2.167  0.00  0.00    +0.056 A 
ATOM     10  N   UNL     1       4.270  -7.191  -2.932  0.00  0.00    -0.306 N 
ATOM     11  H   UNL     1       4.316  -8.007  -2.409  0.00  0.00    +0.170 HD
ATOM     12  C   UNL     1       5.190  -6.770  -3.820  0.00  0.00    +0.325 A 
ATOM     13  O   UNL     1       6.219  -7.359  -4.095  0.00  0.00    -0.247 OA
ATOM     14  N   UNL     1       4.800  -5.599  -4.357  0.00  0.00    -0.306 N 
ATOM     15  H   UNL     1       5.288  -5.089  -5.022  0.00  0.00    +0.170 HD
ENDBRANCH   1   4
BRANCH   1  26
ATOM     16  C   UNL     1      -0.048   1.502   0.018  0.00  0.00    +0.044 C 
ATOM     17  C   UNL     1      -0.019  -0.004   0.007  0.00  0.00    -0.050 A 
ATOM     18  C   UNL     1      -0.016  -0.686  -1.196  0.00  0.00    +0.005 A 
ATOM     19  C   UNL     1       0.009  -2.066  -1.205  0.00  0.00    +0.025 A 
ATOM     20  C   UNL     1       0.030  -2.770  -0.006  0.00  0.00    +0.057 A 
ATOM     21  C   UNL     1       0.030  -2.086   1.200  0.00  0.00    +0.004 A 
ATOM     22  C   UNL     1       0.009  -0.701   1.200  0.00  0.00    +0.011 A 
ATOM     23  C   UNL     1       0.064  -2.814   2.518  0.00  0.00    +0.148 C 
ATOM     24  C   UNL     1      -0.411  -4.257   2.344  0.00  0.00    +0.057 C 
ATOM     25  C   UNL     1       0.374  -4.902   1.194  0.00  0.00    +0.134 C 
ATOM     26  N   UNL     1       0.050  -4.169  -0.037  0.00  0.00    -0.203 N 
BRANCH  23  27
ATOM     27  O   UNL     1      -0.790  -2.146   3.448  0.00  0.00    -0.387 OA
ATOM     28  H   UNL     1      -0.820  -2.559   4.322  0.00  0.00    +0.210 HD
ENDBRANCH  23  27
ENDBRANCH   1  26
TORSDOF 3
