REMARK  Name = ZINC15053051
REMARK  5 active torsions:
REMARK  status: ('A' for Active; 'I' for Inactive)
REMARK    1  A    between atoms: C_1  and  C_2
REMARK    2  A    between atoms: C_5  and  N_8
REMARK    3  A    between atoms: C_12  and  C_13
REMARK    4  A    between atoms: C_16  and  O_20
REMARK    5  A    between atoms: C_18  and  O_19
REMARK                            x       y       z     vdW  Elec       q    Type
REMARK                         _______ _______ _______ _____ _____    ______ ____
ROOT
ATOM      1  N   UNL     1       0.072  -4.173  -0.025  0.00  0.00    -0.215 N 
ATOM      2  C   UNL     1       0.028  -4.846   1.113  0.00  0.00    +0.263 C 
ATOM      3  O   UNL     1      -0.202  -4.290   2.171  0.00  0.00    -0.269 OA
ATOM      4  C   UNL     1       0.268  -6.297   1.043  0.00  0.00    +0.079 C 
ATOM      5  C   UNL     1       0.281  -7.217   2.043  0.00  0.00    +0.032 C 
ATOM      6  S   UNL     1       0.537  -6.525  -0.709  0.00  0.00    -0.049 S 
ATOM      7  C   UNL     1       0.329  -4.826  -1.216  0.00  0.00    +0.165 C 
ATOM      8  N   UNL     1       0.402  -4.323  -2.418  0.00  0.00    -0.279 NA
ATOM      9  H   UNL     1       0.591  -4.899  -3.174  0.00  0.00    +0.189 HD
ENDROOT
BRANCH   1  14
ATOM     10  C   UNL     1      -0.823   1.431  -0.018  0.00  0.00    +0.044 C 
ATOM     11  C   UNL     1      -0.585  -0.057  -0.020  0.00  0.00    -0.050 A 
ATOM     12  C   UNL     1      -1.460  -0.895  -0.688  0.00  0.00    +0.005 A 
ATOM     13  C   UNL     1      -1.244  -2.259  -0.692  0.00  0.00    +0.024 A 
ATOM     14  C   UNL     1      -0.149  -2.790  -0.024  0.00  0.00    +0.043 A 
ATOM     15  C   UNL     1       0.728  -1.946   0.646  0.00  0.00    +0.024 A 
ATOM     16  C   UNL     1       0.510  -0.582   0.641  0.00  0.00    +0.005 A 
ENDBRANCH   1  14
BRANCH   5  17
ATOM     17  C   UNL     1       0.384  -8.645   1.724  0.00  0.00    +0.018 A 
ATOM     18  C   UNL     1      -0.126  -9.135   0.515  0.00  0.00    +0.015 A 
ATOM     19  C   UNL     1      -0.026 -10.475   0.221  0.00  0.00    +0.046 A 
ATOM     20  C   UNL     1       0.579 -11.347   1.121  0.00  0.00    +0.120 A 
ATOM     21  C   UNL     1       1.087 -10.873   2.322  0.00  0.00    +0.091 A 
ATOM     22  C   UNL     1       1.000  -9.527   2.628  0.00  0.00    +0.127 A 
BRANCH  22  23
ATOM     23  O   UNL     1       1.502  -9.062   3.800  0.00  0.00    -0.506 OA
ATOM     24  H   UNL     1       0.868  -9.070   4.531  0.00  0.00    +0.292 HD
ENDBRANCH  22  23
BRANCH  20  25
ATOM     25  O   UNL     1       0.672 -12.668   0.822  0.00  0.00    -0.507 OA
ATOM     26  H   UNL     1       1.480 -12.909   0.348  0.00  0.00    +0.292 HD
ENDBRANCH  20  25
ENDBRANCH   5  17
TORSDOF 4
