REMARK  Name = ZINC45942879
REMARK  5 active torsions:
REMARK  status: ('A' for Active; 'I' for Inactive)
REMARK    1  A    between atoms: C_1  and  C_2
REMARK    2  A    between atoms: C_4  and  C_27
REMARK    3  A    between atoms: C_6  and  N_8
REMARK    4  A    between atoms: C_9  and  C_11
REMARK    5  A    between atoms: C_11  and  N_12
REMARK                            x       y       z     vdW  Elec       q    Type
REMARK                         _______ _______ _______ _____ _____    ______ ____
ROOT
ATOM      1  N   UNL     1       0.370  -1.959   5.973  0.00  0.00    -0.289 N 
ATOM      2  C   UNL     1       1.577  -1.496   6.386  0.00  0.00    +0.203 A 
ATOM      3  N   UNL     1       1.715  -0.663   7.369  0.00  0.00    -0.236 NA
ATOM      4  C   UNL     1       0.646  -0.184   8.068  0.00  0.00    +0.094 A 
ATOM      5  C   UNL     1       0.665   0.760   9.200  0.00  0.00    +0.034 A 
ATOM      6  C   UNL     1      -0.590   1.090   9.742  0.00  0.00    +0.024 A 
ATOM      7  C   UNL     1      -0.725   1.962  10.804  0.00  0.00    +0.016 A 
ATOM      8  C   UNL     1       0.398   2.536  11.364  0.00  0.00    +0.003 A 
ATOM      9  C   UNL     1       1.651   2.230  10.851  0.00  0.00    +0.021 A 
ATOM     10  C   UNL     1       1.797   1.366   9.796  0.00  0.00    +0.051 A 
ATOM     11 CL   UNL     1       3.383   1.012   9.186  0.00  0.00    -0.083 Cl
ATOM     12  S   UNL     1      -1.747   0.165   8.766  0.00  0.00    -0.081 S 
ATOM     13  C   UNL     1      -0.609  -0.638   7.670  0.00  0.00    +0.103 A 
ATOM     14  C   UNL     1      -0.752  -1.535   6.603  0.00  0.00    +0.269 A 
ATOM     15  O   UNL     1      -1.853  -1.926   6.255  0.00  0.00    -0.266 OA
ENDROOT
BRANCH   1  16
ATOM     16  C   UNL     1       0.280  -2.900   4.854  0.00  0.00    +0.222 C 
BRANCH  16  18
ATOM     17  N   UNL     1       0.052  -2.797   2.393  0.00  0.00    -0.284 N 
ATOM     18  C   UNL     1       0.150  -2.134   3.562  0.00  0.00    +0.237 C 
ATOM     19  O   UNL     1       0.134  -0.922   3.575  0.00  0.00    -0.274 OA
ATOM     20  H   UNL     1      -0.012  -3.765   2.388  0.00  0.00    +0.155 HD
BRANCH  17  26
ATOM     21  C   UNL     1      -1.512  -2.365  -2.248  0.00  0.00    +0.044 C 
ATOM     22  C   UNL     1      -0.707  -1.857  -1.080  0.00  0.00    -0.048 A 
ATOM     23  C   UNL     1       0.025  -0.690  -1.201  0.00  0.00    +0.006 A 
ATOM     24  C   UNL     1       0.765  -0.220  -0.131  0.00  0.00    -0.048 A 
ATOM     25  C   UNL     1       0.776  -0.917   1.061  0.00  0.00    +0.026 A 
ATOM     26  C   UNL     1       0.043  -2.089   1.186  0.00  0.00    +0.034 A 
ATOM     27  C   UNL     1      -0.704  -2.555   0.112  0.00  0.00    +0.026 A 
ATOM     28  C   UNL     1       1.561   1.052  -0.268  0.00  0.00    +0.044 C 
ENDBRANCH  17  26
ENDBRANCH  16  18
ENDBRANCH   1  16
TORSDOF 3
