REMARK  Name = ZINC04991218
REMARK  8 active torsions:
REMARK  status: ('A' for Active; 'I' for Inactive)
REMARK    1  A    between atoms: C_1  and  C_2
REMARK    2  A    between atoms: C_2  and  C_8
REMARK    3  A    between atoms: N_3  and  N_4
REMARK    4  A    between atoms: C_8  and  C_9
REMARK    5  A    between atoms: C_15  and  C_16
REMARK    6  A    between atoms: C_15  and  C_17
REMARK    7  A    between atoms: C_18  and  C_22
REMARK    8  A    between atoms: C_18  and  C_23
REMARK                            x       y       z     vdW  Elec       q    Type
REMARK                         _______ _______ _______ _____ _____    ______ ____
ROOT
ATOM      1  C   UNL     1      -0.729   1.579   1.267  0.00  0.00    +0.004 C 
ATOM      2  C   UNL     1      -0.605   3.094   1.373  0.00  0.00    +0.035 C 
ATOM      3  C   UNL     1      -1.089   3.598   2.717  0.00  0.00    -0.069 C 
ATOM      4  C   UNL     1      -1.235   2.825   3.749  0.00  0.00    -0.064 C 
ATOM      5  C   UNL     1      -0.933   1.340   3.713  0.00  0.00    +0.038 C 
ATOM      6  C   UNL     1      -0.068   0.974   2.514  0.00  0.00    -0.028 C 
ATOM      7  C   UNL     1       0.009  -0.547   2.374  0.00  0.00    +0.011 C 
ATOM      8  C   UNL     1       1.338   1.552   2.689  0.00  0.00    +0.011 C 
ATOM      9  C   UNL     1      -1.736   3.326   5.088  0.00  0.00    -0.014 C 
ATOM     10  C   UNL     1      -1.610   4.840   5.201  0.00  0.00    +0.011 C 
ATOM     11  C   UNL     1      -2.253   5.453   3.948  0.00  0.00    +0.005 C 
ATOM     12  C   UNL     1      -1.377   5.085   2.757  0.00  0.00    +0.031 C 
ATOM     13  C   UNL     1      -3.206   2.934   5.250  0.00  0.00    +0.015 C 
ATOM     14  C   UNL     1      -0.920   2.672   6.204  0.00  0.00    +0.015 C 
ENDROOT
BRANCH   1  15
ATOM     15  C   UNL     1      -0.013   1.086   0.008  0.00  0.00    +0.056 C 
BRANCH  15  17
ATOM     16  C   UNL     1      -2.144   1.113  -1.499  0.00  0.00    +0.062 C 
ATOM     17  C   UNL     1      -0.742   1.585  -1.213  0.00  0.00    +0.034 C 
ATOM     18  N   UNL     1      -0.170   2.410  -2.007  0.00  0.00    -0.188 NA
BRANCH  18  19
ATOM     19  N   UNL     1      -0.847   2.874  -3.142  0.00  0.00    -0.191 N 
ATOM     20  C   UNL     1      -0.245   3.743  -3.978  0.00  0.00    +0.317 C 
ATOM     21  O   UNL     1      -0.833   4.146  -4.963  0.00  0.00    -0.251 OA
ATOM     22  N   UNL     1       1.009   4.165  -3.723  0.00  0.00    -0.312 N 
ATOM     23  H   UNL     1      -1.750   2.570  -3.326  0.00  0.00    +0.179 HD
ATOM     24  H   UNL     1       1.478   3.844  -2.937  0.00  0.00    +0.147 HD
ATOM     25  H   UNL     1       1.443   4.790  -4.324  0.00  0.00    +0.147 HD
ENDBRANCH  18  19
ENDBRANCH  15  17
ENDBRANCH   1  15
TORSDOF 3
