REMARK  Name = ZINC64069914
REMARK  7 active torsions:
REMARK  status: ('A' for Active; 'I' for Inactive)
REMARK    1  A    between atoms: C_1  and  C_2
REMARK    2  A    between atoms: C_2  and  C_4
REMARK    3  A    between atoms: C_2  and  S_14
REMARK    4  A    between atoms: C_6  and  C_9
REMARK    5  A    between atoms: S_14  and  C_15
REMARK    6  A    between atoms: C_19  and  C_24
REMARK    7  A    between atoms: N_20  and  C_21
REMARK                            x       y       z     vdW  Elec       q    Type
REMARK                         _______ _______ _______ _____ _____    ______ ____
ROOT
ATOM      1  C   UNL     1      -2.317  -0.109  -1.299  0.00  0.00    +0.238 C 
ATOM      2  N   UNL     1      -1.687  -0.891  -2.376  0.00  0.00    -0.237 N 
ATOM      3  N   UNL     1      -1.367   0.017  -3.391  0.00  0.00    -0.169 NA
ATOM      4  C   UNL     1      -1.719   1.233  -3.069  0.00  0.00    +0.147 C 
ATOM      5  N   UNL     1      -2.315   1.274  -1.803  0.00  0.00    -0.282 N 
ATOM      6  H   UNL     1      -1.526  -1.848  -2.380  0.00  0.00    +0.171 HD
ENDROOT
BRANCH   4   7
ATOM      7  C   UNL     1      -1.525   2.356  -3.888  0.00  0.00    +0.022 C 
ATOM      8  C   UNL     1      -0.901   2.393  -5.135  0.00  0.00    +0.006 A 
ATOM      9  C   UNL     1      -0.304   1.393  -5.932  0.00  0.00    +0.010 A 
ATOM     10  C   UNL     1       0.238   1.723  -7.133  0.00  0.00    +0.001 A 
ATOM     11  C   UNL     1       0.220   3.036  -7.607  0.00  0.00    +0.002 A 
ATOM     12  C   UNL     1      -0.337   4.047  -6.894  0.00  0.00    +0.026 A 
ATOM     13  C   UNL     1      -0.922   3.779  -5.630  0.00  0.00    +0.043 A 
ATOM     14  N   UNL     1      -1.517   4.571  -4.759  0.00  0.00    -0.380 N 
ATOM     15  C   UNL     1      -1.953   3.779  -3.605  0.00  0.00    +0.152 C 
ATOM     16  H   UNL     1      -1.649   5.526  -4.868  0.00  0.00    +0.160 HD
ENDBRANCH   4   7
BRANCH   5  17
ATOM     17  C   UNL     1      -2.834   2.458  -1.113  0.00  0.00    +0.078 C 
ATOM     18  C   UNL     1      -3.391   2.266   0.299  0.00  0.00    +0.024 C 
ATOM     19  C   UNL     1      -4.343   2.529  -0.870  0.00  0.00    +0.024 C 
ENDBRANCH   5  17
BRANCH   1  20
ATOM     20  S   UNL     1      -1.343  -0.231   0.227  0.00  0.00    -0.105 S 
BRANCH  20  22
ATOM     21  C   UNL     1       0.514   1.573  -0.657  0.00  0.00    +0.029 C 
ATOM     22  C   UNL     1       0.359   0.090  -0.313  0.00  0.00    +0.135 C 
BRANCH  22  23
ATOM     23  C   UNL     1       1.314  -0.270   0.795  0.00  0.00    +0.240 A 
ATOM     24  N   UNL     1       2.421  -0.941   0.657  0.00  0.00    -0.190 NA
ATOM     25  C   UNL     1       3.027  -1.083   1.851  0.00  0.00    +0.209 A 
ATOM     26  N   UNL     1       2.293  -0.493   2.765  0.00  0.00    -0.056 NA
ATOM     27  O   UNL     1       1.169   0.050   2.088  0.00  0.00    -0.337 OA
BRANCH  25  28
ATOM     28  C   UNL     1       4.304  -1.785   2.092  0.00  0.00    +0.060 A 
ATOM     29  C   UNL     1       4.976  -1.975   3.271  0.00  0.00    +0.019 A 
ATOM     30  C   UNL     1       6.163  -2.671   3.252  0.00  0.00    +0.008 A 
ATOM     31  C   UNL     1       6.633  -3.147   2.069  0.00  0.00    +0.046 A 
ATOM     32  S   UNL     1       5.370  -2.615   0.924  0.00  0.00    -0.093 S 
ENDBRANCH  25  28
ENDBRANCH  22  23
ENDBRANCH  20  22
ENDBRANCH   1  20
TORSDOF 6
