REMARK  Name = ZINC10099810
REMARK  11 active torsions:
REMARK  status: ('A' for Active; 'I' for Inactive)
REMARK    1  A    between atoms: C_1  and  C_2
REMARK    2  A    between atoms: C_2  and  O_3
REMARK    3  A    between atoms: O_3  and  C_4
REMARK    4  A    between atoms: C_4  and  C_6
REMARK    5  A    between atoms: C_6  and  N_7
REMARK    6  A    between atoms: N_16  and  C_17
REMARK    7  A    between atoms: C_17  and  C_19
REMARK    8  A    between atoms: C_22  and  S_25
REMARK    9  A    between atoms: S_25  and  N_28
REMARK   10  A    between atoms: N_28  and  C_29
REMARK   11  A    between atoms: N_28  and  C_30
REMARK                            x       y       z     vdW  Elec       q    Type
REMARK                         _______ _______ _______ _____ _____    ______ ____
ROOT
ATOM      1  N   UNL     1      -5.281   3.929   6.723  0.00  0.00    -0.310 N 
ATOM      2  C   UNL     1      -5.391   3.823   8.098  0.00  0.00    +0.058 A 
ATOM      3  C   UNL     1      -6.558   3.762   8.876  0.00  0.00    +0.030 A 
ATOM      4  C   UNL     1      -6.487   3.656  10.244  0.00  0.00    +0.040 A 
ATOM      5  C   UNL     1      -5.265   3.607  10.899  0.00  0.00    +0.125 A 
ATOM      6  C   UNL     1      -4.098   3.665  10.155  0.00  0.00    +0.055 A 
ATOM      7  C   UNL     1      -4.170   3.770   8.786  0.00  0.00    +0.042 A 
ATOM      8  S   UNL     1      -2.965   3.864   7.485  0.00  0.00    -0.052 S 
ATOM      9  C   UNL     1      -4.053   3.975   6.139  0.00  0.00    +0.167 A 
ATOM     10  N   UNL     1      -3.758   4.076   4.848  0.00  0.00    -0.152 NA
ATOM     11  F   UNL     1      -5.214   3.503  12.245  0.00  0.00    -0.205 F 
ENDROOT
BRANCH  10  12
ATOM     12  C   UNL     1      -2.481   4.107   4.454  0.00  0.00    +0.269 C 
ATOM     13  O   UNL     1      -1.587   4.044   5.280  0.00  0.00    -0.268 OA
BRANCH  12  14
ATOM     14  C   UNL     1      -2.153   4.219   3.014  0.00  0.00    +0.039 A 
ATOM     15  C   UNL     1      -0.821   4.252   2.600  0.00  0.00    +0.015 A 
ATOM     16  C   UNL     1      -0.521   4.356   1.258  0.00  0.00    +0.029 A 
ATOM     17  C   UNL     1      -1.538   4.428   0.322  0.00  0.00    +0.106 A 
ATOM     18  C   UNL     1      -2.861   4.401   0.727  0.00  0.00    +0.029 A 
ATOM     19  C   UNL     1      -3.174   4.292   2.066  0.00  0.00    +0.015 A 
BRANCH  17  20
ATOM     20  S   UNL     1      -1.147   4.562  -1.391  0.00  0.00    +0.061 S 
ATOM     21  O   UNL     1       0.157   5.122  -1.467  0.00  0.00    -0.153 OA
ATOM     22  O   UNL     1      -2.272   5.162  -2.018  0.00  0.00    -0.153 OA
BRANCH  20  23
ATOM     23  N   UNL     1      -1.037   3.022  -1.989  0.00  0.00    -0.177 NA
ATOM     24  C   UNL     1      -2.225   2.361  -2.535  0.00  0.00    +0.132 C 
BRANCH  23  25
ATOM     25  C   UNL     1       0.249   2.320  -1.973  0.00  0.00    +0.080 C 
ATOM     26  C   UNL     1       0.335   0.987  -2.719  0.00  0.00    +0.022 C 
ATOM     27  C   UNL     1       0.329   1.009  -1.189  0.00  0.00    +0.022 C 
ENDBRANCH  23  25
ENDBRANCH  20  23
ENDBRANCH  17  20
ENDBRANCH  12  14
ENDBRANCH  10  12
BRANCH   1  28
ATOM     28  C   UNL     1      -6.488   3.992   5.895  0.00  0.00    +0.244 C 
BRANCH  28  29
ATOM     29  C   UNL     1      -6.294   5.011   4.802  0.00  0.00    +0.327 C 
ATOM     30  O   UNL     1      -5.328   5.737   4.817  0.00  0.00    -0.249 OA
BRANCH  29  31
ATOM     31  O   UNL     1      -7.194   5.112   3.811  0.00  0.00    -0.464 OA
BRANCH  31  33
ATOM     32  C   UNL     1      -8.067   6.080   1.754  0.00  0.00    +0.048 C 
ATOM     33  C   UNL     1      -6.943   6.115   2.792  0.00  0.00    +0.229 C 
ENDBRANCH  31  33
ENDBRANCH  29  31
ENDBRANCH  28  29
ENDBRANCH   1  28
TORSDOF 9
