REMARK  Name = ZINC67391573
REMARK  9 active torsions:
REMARK  status: ('A' for Active; 'I' for Inactive)
REMARK    1  A    between atoms: C_1  and  C_2
REMARK    2  A    between atoms: C_3  and  C_22
REMARK    3  A    between atoms: C_5  and  C_7
REMARK    4  A    between atoms: C_7  and  N_8
REMARK    5  A    between atoms: N_11  and  N_12
REMARK    6  A    between atoms: C_13  and  C_15
REMARK    7  A    between atoms: C_15  and  C_16
REMARK    8  A    between atoms: C_22  and  O_24
REMARK    9  A    between atoms: O_24  and  C_25
REMARK                            x       y       z     vdW  Elec       q    Type
REMARK                         _______ _______ _______ _____ _____    ______ ____
ROOT
ATOM      1  N   UNL     1       2.057  -3.583  -1.411  0.00  0.00    -0.291 N 
ATOM      2  C   UNL     1       2.916  -4.589  -1.667  0.00  0.00    +0.316 C 
ATOM      3  O   UNL     1       3.433  -5.196  -0.749  0.00  0.00    -0.251 OA
ATOM      4  N   UNL     1       3.201  -4.923  -2.941  0.00  0.00    -0.218 N 
ATOM      5  H   UNL     1       1.645  -3.099  -2.143  0.00  0.00    +0.151 HD
ATOM      6  H   UNL     1       3.819  -5.648  -3.126  0.00  0.00    +0.174 HD
ENDROOT
BRANCH   4   7
ATOM      7  N   UNL     1       2.605  -4.224  -3.999  0.00  0.00    -0.233 N 
ATOM      8  C   UNL     1       2.890  -4.559  -5.273  0.00  0.00    +0.229 C 
ATOM      9  O   UNL     1       3.663  -5.465  -5.504  0.00  0.00    -0.274 OA
ATOM     10  H   UNL     1       1.987  -3.500  -3.814  0.00  0.00    +0.173 HD
BRANCH   8  11
ATOM     11  C   UNL     1       2.249  -3.807  -6.411  0.00  0.00    +0.101 C 
BRANCH  11  12
ATOM     12  C   UNL     1       2.739  -4.381  -7.742  0.00  0.00    -0.002 C 
ATOM     13  C   UNL     1       4.241  -4.128  -7.885  0.00  0.00    +0.004 C 
ATOM     14  C   UNL     1       4.731  -4.702  -9.216  0.00  0.00    +0.000 C 
ATOM     15  C   UNL     1       3.987  -4.024 -10.368  0.00  0.00    +0.000 C 
ATOM     16  C   UNL     1       2.485  -4.277 -10.225  0.00  0.00    +0.000 C 
ATOM     17  C   UNL     1       1.995  -3.703  -8.895  0.00  0.00    +0.004 C 
ENDBRANCH  11  12
ENDBRANCH   8  11
ENDBRANCH   4   7
BRANCH   1  18
ATOM     18  C   UNL     1       1.747  -3.219  -0.026  0.00  0.00    +0.180 C 
BRANCH  18  23
ATOM     19  C   UNL     1      -0.018   1.503   0.010  0.00  0.00    +0.087 C 
ATOM     20  C   UNL     1       0.002  -0.004   0.002  0.00  0.00    +0.116 A 
ATOM     21  C   UNL     1      -1.094  -0.818   0.003  0.00  0.00    +0.100 A 
ATOM     22  C   UNL     1      -0.567  -2.191  -0.008  0.00  0.00    +0.061 A 
ATOM     23  C   UNL     1       0.769  -2.073  -0.014  0.00  0.00    +0.123 A 
ATOM     24  O   UNL     1       1.096  -0.771  -0.013  0.00  0.00    -0.462 OA
BRANCH  21  25
ATOM     25  C   UNL     1      -2.508  -0.407   0.013  0.00  0.00    +0.342 C 
ATOM     26  O   UNL     1      -2.797   0.774   0.022  0.00  0.00    -0.245 OA
BRANCH  25  27
ATOM     27  O   UNL     1      -3.481  -1.339   0.012  0.00  0.00    -0.464 OA
ATOM     28  C   UNL     1      -4.830  -0.869   0.022  0.00  0.00    +0.280 C 
ENDBRANCH  25  27
ENDBRANCH  21  25
ENDBRANCH  18  23
ENDBRANCH   1  18
TORSDOF 7
