REMARK  Name = ZINC39890091
REMARK  8 active torsions:
REMARK  status: ('A' for Active; 'I' for Inactive)
REMARK    1  A    between atoms: C_1  and  C_2
REMARK    2  A    between atoms: C_2  and  C_3
REMARK    3  A    between atoms: C_3  and  N_4
REMARK    4  A    between atoms: N_27  and  C_28
REMARK    5  A    between atoms: C_28  and  C_29
REMARK    6  A    between atoms: C_29  and  C_30
REMARK    7  A    between atoms: C_33  and  O_36
REMARK    8  A    between atoms: O_36  and  C_37
REMARK                            x       y       z     vdW  Elec       q    Type
REMARK                         _______ _______ _______ _____ _____    ______ ____
ROOT
ATOM      1  N   UNL     1      -1.413  -1.998   0.005  0.00  0.00    -0.269 N 
ATOM      2  C   UNL     1      -1.409  -2.766  -1.147  0.00  0.00    +0.042 A 
ATOM      3  C   UNL     1      -1.423  -2.360  -2.482  0.00  0.00    +0.024 A 
ATOM      4  C   UNL     1      -1.413  -3.354  -3.448  0.00  0.00    +0.002 A 
ATOM      5  C   UNL     1      -1.390  -4.693  -3.116  0.00  0.00    +0.000 A 
ATOM      6  C   UNL     1      -1.376  -5.111  -1.790  0.00  0.00    +0.008 A 
ATOM      7  C   UNL     1      -1.387  -4.129  -0.824  0.00  0.00    +0.011 A 
ATOM      8  C   UNL     1      -1.381  -4.203   0.669  0.00  0.00    +0.174 C 
ATOM      9  C   UNL     1      -1.392  -2.759   1.120  0.00  0.00    +0.253 C 
ATOM     10  O   UNL     1      -1.385  -2.361   2.265  0.00  0.00    -0.272 OA
ATOM     11  C   UNL     1      -0.198  -4.929   1.205  0.00  0.00    +0.084 A 
ATOM     12  C   UNL     1       1.242  -4.704   1.036  0.00  0.00    +0.199 A 
ATOM     13  O   UNL     1       1.702  -3.709   0.504  0.00  0.00    -0.287 OA
ATOM     14  C   UNL     1       2.085  -5.800   1.574  0.00  0.00    +0.067 A 
ATOM     15  C   UNL     1       3.457  -5.824   1.322  0.00  0.00    +0.053 A 
ATOM     16  C   UNL     1       4.225  -6.851   1.828  0.00  0.00    +0.124 A 
ATOM     17  C   UNL     1       3.632  -7.856   2.583  0.00  0.00    +0.042 A 
ATOM     18  C   UNL     1       2.280  -7.841   2.838  0.00  0.00    +0.050 A 
ATOM     19  C   UNL     1       1.482  -6.812   2.339  0.00  0.00    +0.140 A 
ATOM     20  O   UNL     1       0.158  -6.818   2.613  0.00  0.00    -0.450 OA
ATOM     21  C   UNL     1      -0.662  -5.964   1.969  0.00  0.00    +0.200 A 
ATOM     22  C   UNL     1      -2.135  -5.939   1.935  0.00  0.00    +0.284 C 
ATOM     23  O   UNL     1      -2.858  -6.729   2.509  0.00  0.00    -0.267 OA
ATOM     24  N   UNL     1      -2.564  -4.909   1.175  0.00  0.00    -0.273 N 
ATOM     25  F   UNL     1       5.554  -6.881   1.589  0.00  0.00    -0.205 F 
ENDROOT
BRANCH   1  26
ATOM     26  C   UNL     1      -1.433  -0.534   0.013  0.00  0.00    +0.113 C 
BRANCH  26  28
ATOM     27  C   UNL     1      -0.019   1.526   0.010  0.00  0.00    +0.005 C 
ATOM     28  C   UNL     1       0.002  -0.004   0.002  0.00  0.00    +0.016 C 
ENDBRANCH  26  28
ENDBRANCH   1  26
BRANCH  24  29
ATOM     29  C   UNL     1      -3.960  -4.559   0.904  0.00  0.00    +0.114 C 
BRANCH  29  30
ATOM     30  C   UNL     1      -4.435  -5.290  -0.353  0.00  0.00    +0.054 C 
BRANCH  30  31
ATOM     31  C   UNL     1      -5.871  -4.930  -0.632  0.00  0.00    -0.046 A 
ATOM     32  C   UNL     1      -6.891  -5.684  -0.082  0.00  0.00    +0.007 A 
ATOM     33  C   UNL     1      -8.209  -5.356  -0.337  0.00  0.00    +0.046 A 
ATOM     34  C   UNL     1      -8.508  -4.269  -1.145  0.00  0.00    +0.120 A 
ATOM     35  C   UNL     1      -7.483  -3.514  -1.695  0.00  0.00    +0.046 A 
ATOM     36  C   UNL     1      -6.167  -3.843  -1.433  0.00  0.00    +0.007 A 
BRANCH  34  37
ATOM     37  O   UNL     1      -9.804  -3.945  -1.397  0.00  0.00    -0.495 OA
ATOM     38  C   UNL     1     -10.037  -2.813  -2.238  0.00  0.00    +0.277 C 
ENDBRANCH  34  37
ENDBRANCH  30  31
ENDBRANCH  29  30
ENDBRANCH  24  29
TORSDOF 6
