REMARK  Name = ZINC16978597
REMARK  8 active torsions:
REMARK  status: ('A' for Active; 'I' for Inactive)
REMARK    1  A    between atoms: C_1  and  C_2
REMARK    2  A    between atoms: C_2  and  O_3
REMARK    3  A    between atoms: O_3  and  C_4
REMARK    4  A    between atoms: C_7  and  N_10
REMARK    5  A    between atoms: N_14  and  N_15
REMARK    6  A    between atoms: N_15  and  C_16
REMARK    7  A    between atoms: N_25  and  C_28
REMARK    8  A    between atoms: C_31  and  C_34
REMARK                            x       y       z     vdW  Elec       q    Type
REMARK                         _______ _______ _______ _____ _____    ______ ____
ROOT
ATOM      1  N   UNL     1       2.172  -2.779  -4.317  0.00  0.00    -0.216 N 
ATOM      2  C   UNL     1       2.704  -4.010  -4.468  0.00  0.00    +0.282 C 
ATOM      3  O   UNL     1       2.439  -4.905  -3.688  0.00  0.00    -0.267 OA
ATOM      4  C   UNL     1       3.615  -4.240  -5.606  0.00  0.00    +0.206 C 
ATOM      5  N   UNL     1       4.171  -5.418  -5.816  0.00  0.00    -0.172 NA
ATOM      6  C   UNL     1       3.876  -3.094  -6.499  0.00  0.00    +0.282 C 
ATOM      7  O   UNL     1       4.615  -3.205  -7.459  0.00  0.00    -0.267 OA
ATOM      8  N   UNL     1       3.272  -1.920  -6.222  0.00  0.00    -0.216 N 
ATOM      9  C   UNL     1       2.451  -1.785  -5.171  0.00  0.00    +0.158 C 
ATOM     10  S   UNL     1       1.724  -0.259  -4.902  0.00  0.00    -0.017 S 
ENDROOT
BRANCH   8  11
ATOM     11  C   UNL     1       3.503  -0.818  -7.055  0.00  0.00    +0.043 A 
ATOM     12  C   UNL     1       3.031  -0.821  -8.361  0.00  0.00    +0.024 A 
ATOM     13  C   UNL     1       3.257   0.269  -9.178  0.00  0.00    +0.005 A 
ATOM     14  C   UNL     1       3.962   1.359  -8.700  0.00  0.00    -0.050 A 
ATOM     15  C   UNL     1       4.439   1.363  -7.402  0.00  0.00    +0.005 A 
ATOM     16  C   UNL     1       4.211   0.278  -6.579  0.00  0.00    +0.024 A 
ATOM     17  C   UNL     1       4.212   2.544  -9.597  0.00  0.00    +0.044 C 
ENDBRANCH   8  11
BRANCH   1  21
ATOM     18  C   UNL     1      -0.412  -2.056  -1.123  0.00  0.00    +0.121 A 
ATOM     19  C   UNL     1      -0.906  -2.574  -2.312  0.00  0.00    +0.047 A 
ATOM     20  C   UNL     1      -0.052  -2.808  -3.371  0.00  0.00    +0.027 A 
ATOM     21  C   UNL     1       1.303  -2.536  -3.243  0.00  0.00    +0.044 A 
ATOM     22  C   UNL     1       1.798  -2.023  -2.052  0.00  0.00    +0.027 A 
ATOM     23  C   UNL     1       0.942  -1.784  -0.995  0.00  0.00    +0.047 A 
BRANCH  18  24
ATOM     24  O   UNL     1      -1.255  -1.821  -0.083  0.00  0.00    -0.492 OA
BRANCH  24  26
ATOM     25  C   UNL     1      -3.422  -1.797   0.987  0.00  0.00    +0.048 C 
ATOM     26  C   UNL     1      -2.636  -2.125  -0.285  0.00  0.00    +0.225 C 
ENDBRANCH  24  26
ENDBRANCH  18  24
ENDBRANCH   1  21
BRANCH   5  27
ATOM     27  N   UNL     1       5.080  -5.550  -6.722  0.00  0.00    -0.236 N 
ATOM     28  H   UNL     1       5.419  -4.769  -7.186  0.00  0.00    +0.174 HD
BRANCH  27  29
ATOM     29  C   UNL     1       5.576  -6.816  -7.034  0.00  0.00    +0.067 A 
ATOM     30  C   UNL     1       5.091  -7.937  -6.371  0.00  0.00    +0.026 A 
ATOM     31  C   UNL     1       5.584  -9.189  -6.682  0.00  0.00    +0.002 A 
ATOM     32  C   UNL     1       6.558  -9.329  -7.654  0.00  0.00    +0.002 A 
ATOM     33  C   UNL     1       7.043  -8.217  -8.317  0.00  0.00    +0.022 A 
ATOM     34  C   UNL     1       6.552  -6.961  -8.015  0.00  0.00    +0.063 A 
ATOM     35 CL   UNL     1       7.156  -5.566  -8.852  0.00  0.00    -0.082 Cl
ENDBRANCH  27  29
ENDBRANCH   5  27
TORSDOF 6
