REMARK  Name = ZINC32511251
REMARK  5 active torsions:
REMARK  status: ('A' for Active; 'I' for Inactive)
REMARK    1  A    between atoms: C_1  and  C_2
REMARK    2  A    between atoms: C_2  and  C_3
REMARK    3  A    between atoms: C_2  and  N_4
REMARK    4  A    between atoms: C_8  and  C_10
REMARK    5  A    between atoms: C_10  and  N_11
REMARK                            x       y       z     vdW  Elec       q    Type
REMARK                         _______ _______ _______ _____ _____    ______ ____
ROOT
ATOM      1  C   UNL     1       2.613  -1.690   1.949  0.00  0.00    +0.201 C 
ENDROOT
BRANCH   1   2
ATOM      2  N   UNL     1       1.983  -0.484   1.395  0.00  0.00    -0.320 N 
ATOM      3  C   UNL     1       0.532  -0.664   1.257  0.00  0.00    +0.106 C 
ATOM      4  C   UNL     1       0.002  -0.004   0.002  0.00  0.00    +0.030 C 
ATOM      5  C   UNL     1      -0.018   1.512   0.010  0.00  0.00    +0.076 C 
ATOM      6  S   UNL     1       1.692   2.143  -0.003  0.00  0.00    -0.123 S 
ATOM      7  C   UNL     1       2.171   1.930   1.694  0.00  0.00    +0.029 A 
ATOM      8  C   UNL     1       2.267   0.642   2.189  0.00  0.00    +0.044 A 
ATOM      9  C   UNL     1       2.653   0.451   3.511  0.00  0.00    +0.024 A 
ATOM     10  C   UNL     1       2.929   1.547   4.309  0.00  0.00    +0.002 A 
ATOM     11  C   UNL     1       2.825   2.830   3.806  0.00  0.00    +0.001 A 
ATOM     12  C   UNL     1       2.442   3.028   2.489  0.00  0.00    +0.016 A 
ENDBRANCH   1   2
BRANCH   1  17
ATOM     13  N   UNL     1       6.887  -3.052   3.679  0.00  0.00    -0.297 N 
ATOM     14  C   UNL     1       6.107  -2.087   3.151  0.00  0.00    +0.306 C 
ATOM     15  O   UNL     1       6.561  -0.975   2.961  0.00  0.00    -0.252 OA
ATOM     16  N   UNL     1       4.826  -2.355   2.833  0.00  0.00    -0.239 N 
ATOM     17  C   UNL     1       4.046  -1.391   2.304  0.00  0.00    +0.238 C 
ATOM     18  O   UNL     1       4.499  -0.282   2.115  0.00  0.00    -0.274 OA
ATOM     19  H   UNL     1       6.476  -4.058   3.851  0.00  0.00    +0.151 HD
ATOM     20  H   UNL     1       4.415  -3.361   3.004  0.00  0.00    +0.159 HD
BRANCH  13  22
ATOM     21  C   UNL     1       8.746  -3.723   5.119  0.00  0.00    +0.027 C 
ATOM     22  C   UNL     1       8.280  -2.760   4.025  0.00  0.00    +0.068 C 
ATOM     23  C   UNL     1       9.160  -2.933   2.785  0.00  0.00    +0.027 C 
ENDBRANCH  13  22
ENDBRANCH   1  17
TORSDOF 3
