REMARK  Name = ZINC50208636
REMARK  3 active torsions:
REMARK  status: ('A' for Active; 'I' for Inactive)
REMARK    1  A    between atoms: C_3  and  N_21
REMARK    2  A    between atoms: C_4  and  C_8
REMARK    3  A    between atoms: C_10  and  C_13
REMARK                            x       y       z     vdW  Elec       q    Type
REMARK                         _______ _______ _______ _____ _____    ______ ____
ROOT
ATOM      1  C   UNL     1       3.832  -0.367   0.302  0.00  0.00    +0.261 A 
ATOM      2  N   UNL     1       4.140  -1.641   0.397  0.00  0.00    -0.187 NA
ATOM      3  C   UNL     1       5.468  -1.781   0.529  0.00  0.00    +0.203 A 
ATOM      4  N   UNL     1       6.023  -0.594   0.521  0.00  0.00    -0.056 NA
ATOM      5  O   UNL     1       4.970   0.346   0.367  0.00  0.00    -0.332 OA
ENDROOT
BRANCH   3   6
ATOM      6  C   UNL     1       6.190  -3.071   0.664  0.00  0.00    +0.028 A 
ATOM      7  C   UNL     1       5.484  -4.272   0.654  0.00  0.00    +0.050 A 
ATOM      8  C   UNL     1       6.160  -5.471   0.780  0.00  0.00    +0.127 A 
ATOM      9  C   UNL     1       7.539  -5.479   0.917  0.00  0.00    +0.076 A 
ATOM     10  C   UNL     1       8.245  -4.288   0.928  0.00  0.00    +0.127 A 
ATOM     11  C   UNL     1       7.577  -3.085   0.796  0.00  0.00    +0.050 A 
ATOM     12  F   UNL     1       9.589  -4.302   1.063  0.00  0.00    -0.205 F 
ATOM     13  F   UNL     1       5.476  -6.636   0.769  0.00  0.00    -0.205 F 
ENDBRANCH   3   6
BRANCH   1  17
ATOM     14  C   UNL     1      -0.084   1.223  -0.153  0.00  0.00    +0.017 A 
ATOM     15  C   UNL     1       0.936   1.683  -0.961  0.00  0.00    +0.024 A 
ATOM     16  C   UNL     1       2.219   1.171  -0.821  0.00  0.00    +0.037 A 
ATOM     17  C   UNL     1       2.473   0.185   0.144  0.00  0.00    +0.061 A 
ATOM     18  C   UNL     1       1.431  -0.271   0.954  0.00  0.00    +0.030 A 
ATOM     19  C   UNL     1       0.163   0.249   0.802  0.00  0.00    +0.019 A 
ATOM     20 BR   UNL     1      -1.247  -0.370   1.900  0.00  0.00    -0.050 Br
BRANCH  16  21
ATOM     21  N   UNL     1       3.249   1.634  -1.635  0.00  0.00    -0.357 N 
ATOM     22  H   UNL     1       3.094   2.378  -2.237  0.00  0.00    +0.142 HD
ATOM     23  H   UNL     1       4.121   1.212  -1.600  0.00  0.00    +0.142 HD
ENDBRANCH  16  21
ENDBRANCH   1  17
TORSDOF 3
