REMARK  Name = ZINC21226282
REMARK  10 active torsions:
REMARK  status: ('A' for Active; 'I' for Inactive)
REMARK    1  A    between atoms: C_1  and  C_2
REMARK    2  A    between atoms: C_2  and  N_3
REMARK    3  A    between atoms: C_7  and  S_29
REMARK    4  A    between atoms: C_11  and  C_12
REMARK    5  A    between atoms: C_12  and  S_13
REMARK    6  A    between atoms: S_13  and  C_14
REMARK    7  A    between atoms: N_18  and  C_19
REMARK    8  A    between atoms: S_29  and  N_32
REMARK    9  A    between atoms: N_32  and  C_33
REMARK   10  A    between atoms: N_32  and  C_34
REMARK                            x       y       z     vdW  Elec       q    Type
REMARK                         _______ _______ _______ _____ _____    ______ ____
ROOT
ATOM      1  N   UNL     1      -2.103   1.072   1.277  0.00  0.00    -0.327 N 
ATOM      2  C   UNL     1      -3.210   1.698   0.740  0.00  0.00    +0.069 A 
ATOM      3  C   UNL     1      -3.413   2.897   0.070  0.00  0.00    +0.030 A 
ATOM      4  C   UNL     1      -4.681   3.239  -0.348  0.00  0.00    +0.030 A 
ATOM      5  C   UNL     1      -5.755   2.395  -0.103  0.00  0.00    +0.108 A 
ATOM      6  C   UNL     1      -5.573   1.207   0.548  0.00  0.00    +0.058 A 
ATOM      7  C   UNL     1      -4.297   0.841   0.985  0.00  0.00    +0.091 A 
ATOM      8  N   UNL     1      -3.809  -0.235   1.653  0.00  0.00    -0.231 NA
ATOM      9  C   UNL     1      -2.526  -0.100   1.823  0.00  0.00    +0.121 A 
ENDROOT
BRANCH   5  10
ATOM     10  S   UNL     1      -7.367   2.853  -0.646  0.00  0.00    +0.060 S 
ATOM     11  O   UNL     1      -8.288   2.155   0.181  0.00  0.00    -0.153 OA
ATOM     12  O   UNL     1      -7.369   4.269  -0.762  0.00  0.00    -0.153 OA
BRANCH  10  13
ATOM     13  N   UNL     1      -7.557   2.252  -2.177  0.00  0.00    -0.183 NA
ATOM     14  C   UNL     1      -8.109   0.910  -2.374  0.00  0.00    +0.131 C 
ATOM     15  C   UNL     1      -7.173   3.064  -3.335  0.00  0.00    +0.131 C 
ENDBRANCH  10  13
ENDBRANCH   5  10
BRANCH   1  17
ATOM     16  C   UNL     1      -0.013   1.086   0.008  0.00  0.00    +0.027 C 
ATOM     17  C   UNL     1      -0.729   1.579   1.267  0.00  0.00    +0.120 C 
ENDBRANCH   1  17
BRANCH   9  18
ATOM     18  C   UNL     1      -1.638  -1.096   2.524  0.00  0.00    +0.151 C 
BRANCH  18  19
ATOM     19  S   UNL     1      -1.565  -0.701   4.289  0.00  0.00    -0.080 S 
BRANCH  19  20
ATOM     20  C   UNL     1      -0.493  -1.984   4.845  0.00  0.00    +0.174 A 
ATOM     21  N   UNL     1       0.045  -2.917   4.091  0.00  0.00    -0.226 NA
ATOM     22  C   UNL     1       0.801  -3.719   4.852  0.00  0.00    +0.064 A 
ATOM     23  C   UNL     1       0.737  -3.279   6.124  0.00  0.00    +0.047 A 
ATOM     24  N   UNL     1      -0.076  -2.175   6.132  0.00  0.00    -0.291 N 
ATOM     25  C   UNL     1       1.453  -3.919   7.285  0.00  0.00    +0.056 C 
ATOM     26  C   UNL     1       1.895  -5.327   6.866  0.00  0.00    +0.007 C 
ATOM     27  C   UNL     1       2.617  -5.253   5.518  0.00  0.00    +0.007 C 
ATOM     28  C   UNL     1       1.607  -4.918   4.414  0.00  0.00    +0.057 C 
BRANCH  24  29
ATOM     29  C   UNL     1      -0.417  -1.395   7.246  0.00  0.00    +0.049 A 
ATOM     30  C   UNL     1       0.562  -0.671   7.914  0.00  0.00    +0.026 A 
ATOM     31  C   UNL     1       0.222   0.101   9.007  0.00  0.00    +0.002 A 
ATOM     32  C   UNL     1      -1.089   0.144   9.444  0.00  0.00    +0.000 A 
ATOM     33  C   UNL     1      -2.064  -0.581   8.786  0.00  0.00    +0.002 A 
ATOM     34  C   UNL     1      -1.732  -1.350   7.688  0.00  0.00    +0.026 A 
ENDBRANCH  24  29
ENDBRANCH  19  20
ENDBRANCH  18  19
ENDBRANCH   9  18
TORSDOF 7
