REMARK  Name = ZINC60343188
REMARK  16 active torsions:
REMARK  status: ('A' for Active; 'I' for Inactive)
REMARK    1  A    between atoms: C_1  and  C_2
REMARK    2  A    between atoms: C_2  and  C_4
REMARK    3  A    between atoms: C_2  and  N_19
REMARK    4  A    between atoms: N_6  and  C_7
REMARK    5  A    between atoms: C_11  and  S_13
REMARK    6  A    between atoms: S_13  and  N_16
REMARK    7  A    between atoms: N_16  and  C_17
REMARK    8  A    between atoms: N_16  and  C_18
REMARK    9  A    between atoms: C_23  and  C_26
REMARK   10  A    between atoms: C_26  and  N_27
REMARK   11  A    between atoms: N_27  and  C_28
REMARK   12  A    between atoms: C_29  and  O_31
REMARK   13  A    between atoms: O_31  and  C_32
REMARK   14  A    between atoms: C_32  and  C_33
REMARK   15  A    between atoms: C_32  and  C_34
REMARK   16  A    between atoms: C_32  and  C_35
REMARK                            x       y       z     vdW  Elec       q    Type
REMARK                         _______ _______ _______ _____ _____    ______ ____
ROOT
ATOM      1  C   UNL     1       0.097   1.056   0.885  0.00  0.00    -0.004 C 
ATOM      2  C   UNL     1      -0.002  -0.146  -0.056  0.00  0.00    +0.016 C 
ENDROOT
BRANCH   2   3
ATOM      3  N   UNL     1       0.911  -1.202   0.401  0.00  0.00    +0.387 N 
ATOM      4  C   UNL     1       2.273  -0.663   0.493  0.00  0.00    -0.078 C 
ATOM      5  C   UNL     1       3.214  -1.736   1.047  0.00  0.00    -0.018 C 
ATOM      6  C   UNL     1       3.204  -2.948   0.110  0.00  0.00    +0.001 C 
ATOM      7  C   UNL     1       1.767  -3.456  -0.037  0.00  0.00    -0.010 C 
ATOM      8  C   UNL     1       0.880  -2.319  -0.550  0.00  0.00    -0.073 C 
ATOM      9  H   UNL     1       0.618  -1.528   1.310  0.00  0.00    -0.081 HD
BRANCH   7  10
ATOM     10  C   UNL     1       1.735  -4.619  -1.031  0.00  0.00    +0.112 C 
BRANCH  10  11
ATOM     11  N   UNL     1       2.491  -5.748  -0.485  0.00  0.00    -0.270 N 
ATOM     12  C   UNL     1       1.814  -6.754   0.337  0.00  0.00    +0.135 C 
ATOM     13  C   UNL     1       3.810  -5.863  -0.739  0.00  0.00    +0.403 C 
ATOM     14  O   UNL     1       4.372  -5.029  -1.421  0.00  0.00    -0.226 OA
BRANCH  13  15
ATOM     15  O   UNL     1       4.505  -6.901  -0.237  0.00  0.00    -0.445 OA
BRANCH  15  16
ATOM     16  C   UNL     1       5.899  -6.959  -0.547  0.00  0.00    +0.107 C 
ATOM     17  C   UNL     1       6.592  -5.704  -0.013  0.00  0.00    +0.055 C 
ATOM     18  C   UNL     1       6.515  -8.199   0.105  0.00  0.00    +0.055 C 
ATOM     19  C   UNL     1       6.081  -7.037  -2.064  0.00  0.00    +0.055 C 
ENDBRANCH  15  16
ENDBRANCH  13  15
ENDBRANCH  10  11
ENDBRANCH   7  10
ENDBRANCH   2   3
BRANCH   2  20
ATOM     20  C   UNL     1      -1.415  -0.669  -0.057  0.00  0.00    +0.203 C 
ATOM     21  O   UNL     1      -1.739  -1.542   0.720  0.00  0.00    -0.277 OA
ATOM     22  N   UNL     1      -2.319  -0.166  -0.920  0.00  0.00    -0.287 N 
ATOM     23  H   UNL     1      -2.045   0.482  -1.587  0.00  0.00    +0.155 HD
BRANCH  22  24
ATOM     24  C   UNL     1      -3.654  -0.580  -0.855  0.00  0.00    +0.035 A 
ATOM     25  C   UNL     1      -4.221  -0.913   0.369  0.00  0.00    +0.023 A 
ATOM     26  C   UNL     1      -5.538  -1.321   0.430  0.00  0.00    +0.004 A 
ATOM     27  C   UNL     1      -6.294  -1.398  -0.726  0.00  0.00    +0.028 A 
ATOM     28  C   UNL     1      -5.733  -1.068  -1.946  0.00  0.00    +0.107 A 
ATOM     29  C   UNL     1      -4.418  -0.652  -2.013  0.00  0.00    +0.051 A 
BRANCH  28  30
ATOM     30  S   UNL     1      -6.700  -1.168  -3.415  0.00  0.00    +0.060 S 
ATOM     31  O   UNL     1      -5.787  -1.330  -4.492  0.00  0.00    -0.153 OA
ATOM     32  O   UNL     1      -7.742  -2.099  -3.153  0.00  0.00    -0.153 OA
BRANCH  30  33
ATOM     33  N   UNL     1      -7.425   0.305  -3.627  0.00  0.00    -0.183 NA
ATOM     34  C   UNL     1      -6.750   1.349  -4.402  0.00  0.00    +0.131 C 
ATOM     35  C   UNL     1      -8.741   0.566  -3.038  0.00  0.00    +0.131 C 
ENDBRANCH  30  33
ENDBRANCH  28  30
ENDBRANCH  22  24
ENDBRANCH   2  20
TORSDOF 9
