REMARK  Name = ZINC48054580
REMARK  6 active torsions:
REMARK  status: ('A' for Active; 'I' for Inactive)
REMARK    1  A    between atoms: C_1  and  C_2
REMARK    2  A    between atoms: C_4  and  O_5
REMARK    3  A    between atoms: N_16  and  C_17
REMARK    4  A    between atoms: N_16  and  C_24
REMARK    5  A    between atoms: C_17  and  C_18
REMARK    6  A    between atoms: C_24  and  C_25
REMARK                            x       y       z     vdW  Elec       q    Type
REMARK                         _______ _______ _______ _____ _____    ______ ____
ROOT
ATOM      1  C   UNL     1       0.285   1.447  -0.038  0.00  0.00    +0.045 C 
ATOM      2  C   UNL     1      -0.150   0.005   0.013  0.00  0.00    -0.033 A 
ATOM      3  C   UNL     1      -0.615  -0.633  -1.121  0.00  0.00    +0.091 A 
ATOM      4  C   UNL     1      -1.011  -1.960  -1.055  0.00  0.00    +0.285 A 
ATOM      5  O   UNL     1      -0.954  -2.648   0.091  0.00  0.00    -0.425 OA
ATOM      6  C   UNL     1      -0.507  -2.074   1.227  0.00  0.00    +0.141 A 
ATOM      7  C   UNL     1      -0.086  -0.725   1.217  0.00  0.00    +0.021 A 
ATOM      8  C   UNL     1       0.385  -0.125   2.399  0.00  0.00    +0.013 A 
ATOM      9  C   UNL     1       0.440  -0.844   3.550  0.00  0.00    +0.024 A 
ATOM     10  C   UNL     1       0.027  -2.189   3.568  0.00  0.00    +0.038 A 
ATOM     11  C   UNL     1      -0.454  -2.796   2.405  0.00  0.00    +0.070 A 
ATOM     12  N   UNL     1       0.086  -2.898   4.726  0.00  0.00    -0.269 N 
ATOM     13  C   UNL     1       0.004  -4.223   4.698  0.00  0.00    +0.307 C 
ATOM     14  O   UNL     1       0.002  -4.812   3.629  0.00  0.00    -0.252 OA
ATOM     15  N   UNL     1      -0.077  -4.918   5.850  0.00  0.00    -0.279 N 
ATOM     16  H   UNL     1       0.188  -2.436   5.573  0.00  0.00    +0.156 HD
ENDROOT
BRANCH   4  17
ATOM     17  O   UNL     1      -1.463  -2.570  -2.168  0.00  0.00    -0.480 OA
ATOM     18  H   UNL     1      -1.718  -3.493  -2.035  0.00  0.00    +0.295 HD
ENDBRANCH   4  17
BRANCH  15  19
ATOM     19  C   UNL     1      -0.168  -6.380   5.819  0.00  0.00    +0.146 C 
BRANCH  19  20
ATOM     20  C   UNL     1       1.219  -6.970   5.854  0.00  0.00    -0.012 A 
ATOM     21  C   UNL     1       1.907  -7.216   4.676  0.00  0.00    +0.008 A 
ATOM     22  C   UNL     1       3.180  -7.760   4.757  0.00  0.00    +0.020 A 
ATOM     23  C   UNL     1       3.716  -8.036   6.001  0.00  0.00    +0.111 A 
ATOM     24  N   UNL     1       3.032  -7.789   7.101  0.00  0.00    -0.263 NA
ATOM     25  C   UNL     1       1.822  -7.266   7.062  0.00  0.00    +0.115 A 
ENDBRANCH  19  20
ENDBRANCH  15  19
BRANCH  15  26
ATOM     26  C   UNL     1      -0.075  -4.211   7.133  0.00  0.00    +0.141 C 
BRANCH  26  27
ATOM     27  C   UNL     1      -1.513  -3.875   7.532  0.00  0.00    +0.136 C 
ATOM     28  C   UNL     1      -1.531  -3.096   8.872  0.00  0.00    +0.035 C 
ATOM     29  C   UNL     1      -2.878  -2.332   8.750  0.00  0.00    +0.031 C 
ATOM     30  C   UNL     1      -2.957  -2.045   7.235  0.00  0.00    +0.160 C 
ATOM     31  O   UNL     1      -2.103  -2.986   6.571  0.00  0.00    -0.375 OA
ENDBRANCH  26  27
ENDBRANCH  15  26
TORSDOF 5
