REMARK  Name = ZINC12833312
REMARK  17 active torsions:
REMARK  status: ('A' for Active; 'I' for Inactive)
REMARK    1  A    between atoms: C_1  and  C_2
REMARK    2  A    between atoms: C_2  and  C_3
REMARK    3  A    between atoms: C_2  and  C_4
REMARK    4  A    between atoms: C_2  and  N_5
REMARK    5  A    between atoms: C_6  and  C_10
REMARK    6  A    between atoms: C_10  and  N_71
REMARK    7  A    between atoms: C_11  and  C_12
REMARK    8  A    between atoms: C_11  and  N_71
REMARK    9  A    between atoms: C_12  and  C_13
REMARK   10  A    between atoms: C_16  and  O_21
REMARK   11  A    between atoms: C_17  and  O_19
REMARK   12  A    between atoms: O_19  and  C_20
REMARK   13  A    between atoms: O_21  and  C_22
REMARK   14  A    between atoms: C_23  and  C_24
REMARK   15  A    between atoms: C_23  and  N_71
REMARK   16  A    between atoms: C_29  and  O_36
REMARK   17  A    between atoms: O_36  and  C_37
REMARK                            x       y       z     vdW  Elec       q    Type
REMARK                         _______ _______ _______ _____ _____    ______ ____
ROOT
ATOM      1  N   UNL     1       2.761   0.270   9.414  0.00  0.00    +0.387 N 
ATOM      2  H   UNL     1       3.701   0.446   9.039  0.00  0.00    -0.081 HD
ENDROOT
BRANCH   1   3
ATOM      3  C   UNL     1       1.896   1.427   9.102  0.00  0.00    +0.001 C 
BRANCH   3   5
ATOM      4  N   UNL     1      -0.492   2.114   9.674  0.00  0.00    -0.226 N 
ATOM      5  C   UNL     1       0.515   1.222   9.670  0.00  0.00    +0.136 A 
ATOM      6  N   UNL     1       0.065   0.143  10.262  0.00  0.00    -0.115 NA
ATOM      7  N   UNL     1      -1.158   0.359  10.606  0.00  0.00    -0.023 NA
ATOM      8  N   UNL     1      -1.499   1.548  10.249  0.00  0.00    -0.043 NA
BRANCH   4  10
ATOM      9  C   UNL     1      -0.135   3.408   7.630  0.00  0.00    +0.036 C 
ATOM     10  C   UNL     1      -0.455   3.471   9.125  0.00  0.00    +0.059 C 
ATOM     11  C   UNL     1      -1.816   4.141   9.327  0.00  0.00    +0.036 C 
ATOM     12  C   UNL     1       0.625   4.283   9.844  0.00  0.00    +0.036 C 
ENDBRANCH   4  10
ENDBRANCH   3   5
ENDBRANCH   1   3
BRANCH   1  13
ATOM     13  C   UNL     1       2.855   0.088  10.877  0.00  0.00    -0.073 C 
BRANCH  13  14
ATOM     14  C   UNL     1       3.640   1.259  11.471  0.00  0.00    +0.017 C 
BRANCH  14  15
ATOM     15  C   UNL     1       3.879   1.011  12.938  0.00  0.00    -0.045 A 
ATOM     16  C   UNL     1       2.918   1.372  13.864  0.00  0.00    +0.007 A 
ATOM     17  C   UNL     1       3.131   1.142  15.211  0.00  0.00    +0.049 A 
ATOM     18  C   UNL     1       4.314   0.558  15.636  0.00  0.00    +0.161 A 
ATOM     19  C   UNL     1       5.283   0.201  14.704  0.00  0.00    +0.162 A 
ATOM     20  C   UNL     1       5.062   0.429  13.355  0.00  0.00    +0.053 A 
BRANCH  19  21
ATOM     21  O   UNL     1       6.446  -0.372  15.116  0.00  0.00    -0.491 OA
ATOM     22  C   UNL     1       7.395  -0.714  14.104  0.00  0.00    +0.277 C 
ENDBRANCH  19  21
BRANCH  18  23
ATOM     23  O   UNL     1       4.526   0.336  16.960  0.00  0.00    -0.491 OA
ATOM     24  C   UNL     1       3.487   0.729  17.859  0.00  0.00    +0.277 C 
ENDBRANCH  18  23
ENDBRANCH  14  15
ENDBRANCH  13  14
ENDBRANCH   1  13
BRANCH   1  25
ATOM     25  C   UNL     1       2.216  -0.953   8.787  0.00  0.00    -0.037 C 
BRANCH  25  26
ATOM     26  C   UNL     1       2.337  -0.827   7.290  0.00  0.00    +0.001 A 
ATOM     27  C   UNL     1       3.418  -1.343   6.653  0.00  0.00    +0.017 A 
ATOM     28  C   UNL     1       3.506  -1.204   5.200  0.00  0.00    -0.001 A 
ATOM     29  C   UNL     1       4.598  -1.718   4.489  0.00  0.00    +0.013 A 
ATOM     30  C   UNL     1       4.651  -1.578   3.134  0.00  0.00    +0.046 A 
ATOM     31  C   UNL     1       3.630  -0.918   2.450  0.00  0.00    +0.122 A 
ATOM     32  C   UNL     1       2.542  -0.404   3.133  0.00  0.00    +0.072 A 
ATOM     33  C   UNL     1       2.469  -0.542   4.514  0.00  0.00    +0.053 A 
ATOM     34  N   UNL     1       1.397  -0.040   5.220  0.00  0.00    -0.322 N 
ATOM     35  H   UNL     1       0.684   0.417   4.747  0.00  0.00    +0.169 HD
ATOM     36  C   UNL     1       1.326  -0.173   6.556  0.00  0.00    +0.251 A 
ATOM     37  O   UNL     1       0.363   0.284   7.148  0.00  0.00    -0.268 OA
BRANCH  31  38
ATOM     38  O   UNL     1       3.702  -0.784   1.100  0.00  0.00    -0.495 OA
ATOM     39  C   UNL     1       4.850  -1.337   0.454  0.00  0.00    +0.277 C 
ENDBRANCH  31  38
ENDBRANCH  25  26
ENDBRANCH   1  25
TORSDOF 11
