REMARK  Name = ZINC06755202
REMARK  9 active torsions:
REMARK  status: ('A' for Active; 'I' for Inactive)
REMARK    1  A    between atoms: C_1  and  C_2
REMARK    2  A    between atoms: C_2  and  C_4
REMARK    3  A    between atoms: C_2  and  O_24
REMARK    4  A    between atoms: C_4  and  N_5
REMARK    5  A    between atoms: C_6  and  C_8
REMARK    6  A    between atoms: N_10  and  C_11
REMARK    7  A    between atoms: C_12  and  C_22
REMARK    8  A    between atoms: C_18  and  C_20
REMARK    9  A    between atoms: C_18  and  C_21
REMARK                            x       y       z     vdW  Elec       q    Type
REMARK                         _______ _______ _______ _____ _____    ______ ____
ROOT
ATOM      1  C   UNL     1      -1.741   5.980   0.048  0.00  0.00    +0.304 C 
ATOM      2  O   UNL     1      -0.571   6.304   0.038  0.00  0.00    -0.265 OA
ATOM      3  N   UNL     1      -2.078   4.675   0.044  0.00  0.00    -0.271 N 
ATOM      4  H   UNL     1      -3.013   4.416   0.052  0.00  0.00    +0.156 HD
ENDROOT
BRANCH   3   5
ATOM      5  C   UNL     1      -1.091   3.704   0.031  0.00  0.00    +0.090 A 
ATOM      6  C   UNL     1      -1.228   2.320   0.020  0.00  0.00    +0.084 A 
ATOM      7  C   UNL     1      -0.019   1.522   0.010  0.00  0.00    -0.013 A 
ATOM      8  C   UNL     1       1.152   2.205   0.003  0.00  0.00    +0.022 A 
ATOM      9  S   UNL     1       0.682   3.911   0.015  0.00  0.00    -0.075 S 
ATOM     10  C   UNL     1       2.524   1.608  -0.012  0.00  0.00    +0.203 C 
ATOM     11  O   UNL     1       2.403   0.212   0.303  0.00  0.00    -0.368 OA
ATOM     12  C   UNL     1       1.392  -0.458  -0.455  0.00  0.00    +0.068 C 
ATOM     13  C   UNL     1       0.002  -0.004   0.002  0.00  0.00    +0.071 C 
ATOM     14  C   UNL     1       1.524  -1.968  -0.252  0.00  0.00    +0.041 C 
ATOM     15  C   UNL     1       1.571  -0.127  -1.938  0.00  0.00    +0.041 C 
BRANCH   6  16
ATOM     16  C   UNL     1      -2.521   1.704   0.024  0.00  0.00    +0.102 C 
ATOM     17  N   UNL     1      -3.547   1.216   0.026  0.00  0.00    -0.191 NA
ENDBRANCH   6  16
ENDBRANCH   3   5
BRANCH   1  19
ATOM     18  N   UNL     1      -2.467   8.331   0.066  0.00  0.00    -0.305 N 
ATOM     19  C   UNL     1      -2.805   7.026   0.063  0.00  0.00    +0.299 C 
ATOM     20  O   UNL     1      -3.975   6.702   0.072  0.00  0.00    -0.265 OA
ATOM     21  H   UNL     1      -1.533   8.590   0.058  0.00  0.00    +0.149 HD
BRANCH  18  22
ATOM     22  C   UNL     1      -3.512   9.358   0.080  0.00  0.00    +0.135 C 
BRANCH  22  24
ATOM     23  C   UNL     1      -3.955  11.817   0.096  0.00  0.00    +0.039 C 
ATOM     24  C   UNL     1      -2.864  10.744   0.081  0.00  0.00    +0.128 C 
BRANCH  24  25
ATOM     25  O   UNL     1      -2.042  10.885   1.241  0.00  0.00    -0.391 OA
ATOM     26  H   UNL     1      -2.521  10.793   2.076  0.00  0.00    +0.210 HD
ENDBRANCH  24  25
ENDBRANCH  22  24
ENDBRANCH  18  22
ENDBRANCH   1  19
TORSDOF 6
