REMARK  Name = ZINC13896407
REMARK  4 active torsions:
REMARK  status: ('A' for Active; 'I' for Inactive)
REMARK    1  A    between atoms: C_4  and  C_7
REMARK    2  A    between atoms: C_10  and  N_13
REMARK    3  A    between atoms: C_15  and  C_25
REMARK    4  A    between atoms: C_20  and  O_24
REMARK                            x       y       z     vdW  Elec       q    Type
REMARK                         _______ _______ _______ _____ _____    ______ ____
ROOT
ATOM      1  N   UNL     1       7.321  -2.694  -0.083  0.00  0.00    -0.325 N 
ATOM      2  C   UNL     1       7.508  -3.727   0.711  0.00  0.00    +0.212 A 
ATOM      3  C   UNL     1       8.744  -4.529   0.640  0.00  0.00    +0.097 A 
ATOM      4  C   UNL     1       9.126  -5.215   1.785  0.00  0.00    +0.030 A 
ATOM      5  C   UNL     1       8.292  -5.127   2.928  0.00  0.00    +0.018 A 
ATOM      6  C   UNL     1       8.726  -5.630   4.164  0.00  0.00    +0.015 A 
ATOM      7  C   UNL     1       7.933  -5.502   5.266  0.00  0.00    +0.046 A 
ATOM      8  C   UNL     1       6.688  -4.881   5.173  0.00  0.00    +0.120 A 
ATOM      9  C   UNL     1       6.234  -4.394   3.957  0.00  0.00    +0.092 A 
ATOM     10  C   UNL     1       7.023  -4.523   2.826  0.00  0.00    +0.141 A 
ATOM     11  O   UNL     1       6.573  -4.088   1.627  0.00  0.00    -0.438 OA
ATOM     12  H   UNL     1       8.034  -2.397  -0.670  0.00  0.00    +0.169 HD
ENDROOT
BRANCH   1  16
ATOM     13  C   UNL     1       3.687  -0.712  -0.079  0.00  0.00    -0.018 A 
ATOM     14  C   UNL     1       4.878   0.016  -0.062  0.00  0.00    +0.010 A 
ATOM     15  C   UNL     1       6.087  -0.642  -0.064  0.00  0.00    +0.026 A 
ATOM     16  C   UNL     1       6.122  -2.040  -0.082  0.00  0.00    +0.042 A 
ATOM     17  C   UNL     1       4.927  -2.767  -0.098  0.00  0.00    +0.026 A 
ATOM     18  C   UNL     1       3.720  -2.107  -0.091  0.00  0.00    +0.010 A 
BRANCH  13  22
ATOM     19  C   UNL     1      -0.045   1.324  -0.076  0.00  0.00    +0.000 A 
ATOM     20  C   UNL     1       1.134   2.047  -0.064  0.00  0.00    +0.001 A 
ATOM     21  C   UNL     1       2.349   1.392  -0.065  0.00  0.00    +0.008 A 
ATOM     22  C   UNL     1       2.386  -0.002  -0.077  0.00  0.00    -0.018 A 
ATOM     23  C   UNL     1       1.194  -0.725  -0.088  0.00  0.00    +0.008 A 
ATOM     24  C   UNL     1      -0.015  -0.059  -0.088  0.00  0.00    +0.001 A 
ENDBRANCH  13  22
ENDBRANCH   1  16
BRANCH   3  25
ATOM     25  C   UNL     1       9.542  -4.599  -0.595  0.00  0.00    +0.247 C 
ATOM     26  O   UNL     1       9.234  -3.921  -1.557  0.00  0.00    -0.270 OA
ATOM     27  N   UNL     1      10.613  -5.415  -0.661  0.00  0.00    -0.325 N 
ATOM     28  H   UNL     1      10.815  -6.010   0.078  0.00  0.00    +0.145 HD
ATOM     29  H   UNL     1      11.181  -5.407  -1.446  0.00  0.00    +0.145 HD
ENDBRANCH   3  25
BRANCH   8  30
ATOM     30  O   UNL     1       5.916  -4.751   6.282  0.00  0.00    -0.507 OA
ATOM     31  H   UNL     1       6.069  -3.933   6.774  0.00  0.00    +0.292 HD
ENDBRANCH   8  30
TORSDOF 4
