REMARK  Name = ZINC55546396
REMARK  6 active torsions:
REMARK  status: ('A' for Active; 'I' for Inactive)
REMARK    1  A    between atoms: C_1  and  C_2
REMARK    2  A    between atoms: C_6  and  N_22
REMARK    3  A    between atoms: C_7  and  S_8
REMARK    4  A    between atoms: S_8  and  N_11
REMARK    5  A    between atoms: N_11  and  N_12
REMARK    6  A    between atoms: C_13  and  C_15
REMARK                            x       y       z     vdW  Elec       q    Type
REMARK                         _______ _______ _______ _____ _____    ______ ____
ROOT
ATOM      1  S   UNL     1       1.184   1.023   1.645  0.00  0.00    +0.076 S 
ATOM      2  O   UNL     1       2.420   0.583   2.190  0.00  0.00    -0.152 OA
ATOM      3  O   UNL     1       1.083   2.171   0.814  0.00  0.00    -0.152 OA
ENDROOT
BRANCH   1  10
ATOM      4  C   UNL     1       2.451  -1.720   1.518  0.00  0.00    +0.046 C 
ATOM      5  C   UNL     1       1.183  -1.546   0.723  0.00  0.00    -0.022 A 
ATOM      6  C   UNL     1       0.669  -2.607   0.001  0.00  0.00    +0.005 A 
ATOM      7  C   UNL     1      -0.494  -2.447  -0.728  0.00  0.00    +0.003 A 
ATOM      8  C   UNL     1      -1.143  -1.226  -0.736  0.00  0.00    +0.035 A 
ATOM      9  C   UNL     1      -0.629  -0.166  -0.014  0.00  0.00    +0.153 A 
ATOM     10  C   UNL     1       0.532  -0.327   0.720  0.00  0.00    +0.140 A 
BRANCH   9  11
ATOM     11  N   UNL     1      -1.324   1.141  -0.022  0.00  0.00    +0.058 N 
ATOM     12  O   UNL     1      -1.831   1.549  -1.041  0.00  0.00    -0.126 OA
ATOM     13  O   UNL     1      -1.384   1.800   0.989  0.00  0.00    -0.126 OA
ENDBRANCH   9  11
ENDBRANCH   1  10
BRANCH   1  14
ATOM     14  N   UNL     1       0.165   1.275   2.927  0.00  0.00    -0.108 NA
ATOM     15  H   UNL     1      -0.281   2.130   3.031  0.00  0.00    +0.172 HD
BRANCH  14  16
ATOM     16  N   UNL     1      -0.052   0.254   3.860  0.00  0.00    -0.228 N 
ATOM     17  C   UNL     1       0.164   0.482   5.171  0.00  0.00    +0.260 C 
ATOM     18  O   UNL     1       0.546   1.574   5.543  0.00  0.00    -0.269 OA
ATOM     19  H   UNL     1      -0.357  -0.618   3.564  0.00  0.00    +0.171 HD
BRANCH  17  20
ATOM     20  C   UNL     1      -0.065  -0.596   6.156  0.00  0.00    +0.056 A 
ATOM     21  C   UNL     1      -0.499  -1.853   5.732  0.00  0.00    +0.014 A 
ATOM     22  C   UNL     1      -0.710  -2.855   6.656  0.00  0.00    +0.001 A 
ATOM     23  C   UNL     1      -0.494  -2.616   8.002  0.00  0.00    +0.001 A 
ATOM     24  C   UNL     1      -0.065  -1.373   8.431  0.00  0.00    +0.021 A 
ATOM     25  C   UNL     1       0.157  -0.362   7.516  0.00  0.00    +0.053 A 
ATOM     26 CL   UNL     1       0.703   1.195   8.054  0.00  0.00    -0.083 Cl
ENDBRANCH  17  20
ENDBRANCH  14  16
ENDBRANCH   1  14
TORSDOF 5
