REMARK  Name = ZINC02620638
REMARK  9 active torsions:
REMARK  status: ('A' for Active; 'I' for Inactive)
REMARK    1  A    between atoms: C_1  and  C_2
REMARK    2  A    between atoms: C_5  and  C_8
REMARK    3  A    between atoms: C_8  and  O_10
REMARK    4  A    between atoms: O_10  and  C_11
REMARK    5  A    between atoms: C_11  and  C_12
REMARK    6  A    between atoms: C_12  and  C_14
REMARK    7  A    between atoms: C_15  and  N_24
REMARK    8  A    between atoms: N_16  and  C_23
REMARK    9  A    between atoms: N_19  and  C_22
REMARK                            x       y       z     vdW  Elec       q    Type
REMARK                         _______ _______ _______ _____ _____    ______ ____
ROOT
ATOM      1  C   UNL     1       3.782  -4.812  -0.082  0.00  0.00    +0.209 C 
ATOM      2  O   UNL     1       4.730  -4.053  -0.071  0.00  0.00    -0.288 OA
ENDROOT
BRANCH   1   3
ATOM      3  C   UNL     1       3.994  -6.207  -0.079  0.00  0.00    +0.123 A 
ATOM      4  C   UNL     1       5.288  -6.744  -0.189  0.00  0.00    +0.116 A 
ATOM      5  N   UNL     1       5.444  -8.101  -0.176  0.00  0.00    -0.284 N 
ATOM      6  C   UNL     1       4.388  -8.923  -0.073  0.00  0.00    +0.333 A 
ATOM      7  O   UNL     1       4.579 -10.123  -0.071  0.00  0.00    -0.246 OA
ATOM      8  N   UNL     1       3.129  -8.468   0.028  0.00  0.00    -0.263 N 
ATOM      9  C   UNL     1       2.869  -7.145   0.031  0.00  0.00    +0.269 A 
ATOM     10  O   UNL     1       1.726  -6.736   0.123  0.00  0.00    -0.267 OA
ATOM     11  C   UNL     1       2.022  -9.422   0.137  0.00  0.00    +0.157 C 
ATOM     12  C   UNL     1       6.789  -8.670  -0.283  0.00  0.00    +0.155 C 
BRANCH   4  13
ATOM     13  N   UNL     1       6.369  -5.925  -0.299  0.00  0.00    -0.344 N 
ATOM     14  H   UNL     1       6.260  -4.965  -0.223  0.00  0.00    +0.144 HD
ATOM     15  H   UNL     1       7.250  -6.302  -0.455  0.00  0.00    +0.144 HD
ENDBRANCH   4  13
ENDBRANCH   1   3
BRANCH   1  16
ATOM     16  C   UNL     1       2.378  -4.263  -0.097  0.00  0.00    +0.312 C 
BRANCH  16  17
ATOM     17  O   UNL     1       2.426  -2.812  -0.097  0.00  0.00    -0.453 OA
BRANCH  17  18
ATOM     18  C   UNL     1       1.246  -2.162  -0.109  0.00  0.00    +0.340 C 
ATOM     19  O   UNL     1       0.206  -2.789  -0.121  0.00  0.00    -0.245 OA
BRANCH  18  24
ATOM     20  C   UNL     1       1.133   3.591  -0.109  0.00  0.00    +0.044 C 
ATOM     21  C   UNL     1       1.163   2.084  -0.109  0.00  0.00    -0.050 A 
ATOM     22  C   UNL     1      -0.024   1.372  -0.123  0.00  0.00    +0.004 A 
ATOM     23  C   UNL     1      -0.004  -0.007  -0.123  0.00  0.00    +0.015 A 
ATOM     24  C   UNL     1       1.217  -0.684  -0.110  0.00  0.00    +0.059 A 
ATOM     25  C   UNL     1       2.410   0.040  -0.096  0.00  0.00    +0.015 A 
ATOM     26  C   UNL     1       2.376   1.419  -0.096  0.00  0.00    +0.004 A 
ENDBRANCH  18  24
ENDBRANCH  17  18
ENDBRANCH  16  17
ENDBRANCH   1  16
TORSDOF 6
