REMARK  Name = ZINC09660446
REMARK  6 active torsions:
REMARK  status: ('A' for Active; 'I' for Inactive)
REMARK    1  A    between atoms: C_1  and  C_2
REMARK    2  A    between atoms: C_2  and  C_3
REMARK    3  A    between atoms: C_6  and  C_9
REMARK    4  A    between atoms: C_14  and  C_19
REMARK    5  A    between atoms: C_22  and  O_25
REMARK    6  A    between atoms: O_25  and  C_26
REMARK                            x       y       z     vdW  Elec       q    Type
REMARK                         _______ _______ _______ _____ _____    ______ ____
ROOT
ATOM      1  C   UNL     1       2.473   1.092   0.010  0.00  0.00    +0.177 C 
ATOM      2  C   UNL     1       1.203   1.916   0.001  0.00  0.00    +0.041 C 
ATOM      3  C   UNL     1       1.222   3.266  -0.013  0.00  0.00    +0.020 C 
ATOM      4  C   UNL     1      -0.063   4.060  -0.028  0.00  0.00    +0.060 C 
ATOM      5  C   UNL     1      -1.155   3.286   0.712  0.00  0.00    +0.032 C 
ATOM      6  C   UNL     1      -1.335   1.928   0.019  0.00  0.00    +0.088 C 
ATOM      7  C   UNL     1      -0.014   1.211   0.009  0.00  0.00    +0.164 C 
ATOM      8  O   UNL     1       0.002  -0.004   0.002  0.00  0.00    -0.292 OA
ATOM      9  N   UNL     1       2.400   3.975  -0.021  0.00  0.00    -0.286 N 
ATOM     10  C   UNL     1       3.567   3.293  -0.318  0.00  0.00    +0.240 A 
ATOM     11  N   UNL     1       3.614   1.935  -0.314  0.00  0.00    -0.201 N 
ATOM     12  N   UNL     1       4.922   1.606  -0.666  0.00  0.00    -0.042 NA
ATOM     13  N   UNL     1       5.547   2.724  -0.845  0.00  0.00    -0.021 NA
ATOM     14  N   UNL     1       4.754   3.720  -0.640  0.00  0.00    -0.092 NA
ATOM     15  H   UNL     1       2.412   4.925   0.176  0.00  0.00    +0.155 HD
ENDROOT
BRANCH   1  19
ATOM     16  C   UNL     1       3.028  -0.617   3.885  0.00  0.00    -0.048 A 
ATOM     17  C   UNL     1       2.903  -1.437   2.780  0.00  0.00    +0.004 A 
ATOM     18  C   UNL     1       2.723  -0.884   1.526  0.00  0.00    +0.006 A 
ATOM     19  C   UNL     1       2.668   0.489   1.377  0.00  0.00    -0.018 A 
ATOM     20  C   UNL     1       2.798   1.310   2.482  0.00  0.00    +0.006 A 
ATOM     21  C   UNL     1       2.973   0.756   3.737  0.00  0.00    +0.004 A 
BRANCH  16  23
ATOM     22  C   UNL     1       4.720  -1.387   5.526  0.00  0.00    +0.009 C 
ATOM     23  C   UNL     1       3.224  -1.220   5.252  0.00  0.00    +0.032 C 
ENDBRANCH  16  23
ENDBRANCH   1  19
BRANCH   5  24
ATOM     24  C   UNL     1      -2.449   4.058   0.660  0.00  0.00    -0.043 A 
ATOM     25  C   UNL     1      -3.021   4.363  -0.561  0.00  0.00    +0.007 A 
ATOM     26  C   UNL     1      -4.210   5.066  -0.611  0.00  0.00    +0.046 A 
ATOM     27  C   UNL     1      -4.822   5.476   0.564  0.00  0.00    +0.120 A 
ATOM     28  C   UNL     1      -4.242   5.173   1.788  0.00  0.00    +0.046 A 
ATOM     29  C   UNL     1      -3.057   4.465   1.833  0.00  0.00    +0.007 A 
BRANCH  27  30
ATOM     30  O   UNL     1      -5.988   6.173   0.517  0.00  0.00    -0.495 OA
ATOM     31  C   UNL     1      -6.527   6.448  -0.777  0.00  0.00    +0.277 C 
ENDBRANCH  27  30
ENDBRANCH   5  24
TORSDOF 4
