REMARK  Name = ZINC39711104
REMARK  14 active torsions:
REMARK  status: ('A' for Active; 'I' for Inactive)
REMARK    1  A    between atoms: C_1  and  C_2
REMARK    2  A    between atoms: C_2  and  C_3
REMARK    3  A    between atoms: C_3  and  C_4
REMARK    4  A    between atoms: C_3  and  C_5
REMARK    5  A    between atoms: C_3  and  N_6
REMARK    6  A    between atoms: C_7  and  C_12
REMARK    7  A    between atoms: C_12  and  C_14
REMARK    8  A    between atoms: C_12  and  N_28
REMARK    9  A    between atoms: C_18  and  C_27
REMARK   10  A    between atoms: C_21  and  C_26
REMARK   11  A    between atoms: N_28  and  C_29
REMARK   12  A    between atoms: N_28  and  C_36
REMARK   13  A    between atoms: C_29  and  C_30
REMARK   14  A    between atoms: C_36  and  C_37
REMARK                            x       y       z     vdW  Elec       q    Type
REMARK                         _______ _______ _______ _____ _____    ______ ____
ROOT
ATOM      1  C   UNL     1      -0.019  -2.318   3.985  0.00  0.00    -0.010 C 
ENDROOT
BRANCH   1   2
ATOM      2  C   UNL     1      -1.421  -1.758   3.738  0.00  0.00    +0.088 C 
ATOM      3  C   UNL     1      -1.654  -0.634   4.729  0.00  0.00    -0.006 C 
ATOM      4  C   UNL     1      -2.724  -0.750   5.565  0.00  0.00    -0.004 A 
ATOM      5  C   UNL     1      -3.022   0.289   6.552  0.00  0.00    -0.042 A 
ATOM      6  C   UNL     1      -4.098   0.130   7.365  0.00  0.00    +0.004 A 
ATOM      7  C   UNL     1      -4.917  -0.996   7.276  0.00  0.00    +0.005 A 
ATOM      8  C   UNL     1      -4.694  -1.995   6.383  0.00  0.00    -0.029 A 
ATOM      9  C   UNL     1      -3.606  -1.928   5.493  0.00  0.00    +0.043 A 
ATOM     10  N   UNL     1      -3.398  -2.913   4.620  0.00  0.00    -0.284 N 
ATOM     11  C   UNL     1      -2.394  -2.915   3.760  0.00  0.00    +0.223 C 
ATOM     12  O   UNL     1      -2.255  -3.844   2.987  0.00  0.00    -0.275 OA
ATOM     13  C   UNL     1      -5.620  -3.183   6.343  0.00  0.00    +0.045 C 
ATOM     14  C   UNL     1      -2.149   1.512   6.665  0.00  0.00    +0.044 C 
ATOM     15  H   UNL     1      -4.011  -3.665   4.617  0.00  0.00    +0.155 HD
ENDBRANCH   1   2
BRANCH   1  17
ATOM     16  N   UNL     1       0.703  -1.870   1.663  0.00  0.00    -0.211 N 
ATOM     17  C   UNL     1       0.527  -2.917   2.688  0.00  0.00    +0.183 C 
ATOM     18  N   UNL     1      -0.462  -3.820   2.068  0.00  0.00    -0.229 N 
ATOM     19  N   UNL     1      -0.759  -3.263   0.819  0.00  0.00    -0.064 NA
ATOM     20  N   UNL     1      -0.144  -2.222   0.606  0.00  0.00    -0.061 NA
ATOM     21  H   UNL     1      -0.829  -4.633   2.448  0.00  0.00    +0.172 HD
BRANCH  16  22
ATOM     22  C   UNL     1       1.580  -0.699   1.740  0.00  0.00    +0.050 C 
ATOM     23  C   UNL     1       3.029  -1.157   1.917  0.00  0.00    +0.033 C 
ATOM     24  C   UNL     1       1.170   0.168   2.933  0.00  0.00    +0.033 C 
BRANCH  22  26
ATOM     25  C   UNL     1       2.321   1.374   0.558  0.00  0.00    +0.006 C 
ATOM     26  C   UNL     1       1.456   0.117   0.451  0.00  0.00    +0.023 C 
ENDBRANCH  22  26
ENDBRANCH  16  22
ENDBRANCH   1  17
BRANCH   1  27
ATOM     27  N   UNL     1      -0.085  -3.363   5.017  0.00  0.00    +0.392 N 
ATOM     28  H   UNL     1      -0.823  -3.146   5.669  0.00  0.00    -0.080 HD
BRANCH  27  29
ATOM     29  C   UNL     1      -0.356  -4.660   4.383  0.00  0.00    -0.040 C 
BRANCH  29  30
ATOM     30  C   UNL     1      -0.162  -5.762   5.393  0.00  0.00    -0.046 A 
ATOM     31  C   UNL     1       1.081  -6.358   5.550  0.00  0.00    +0.005 A 
ATOM     32  C   UNL     1       1.213  -7.368   6.490  0.00  0.00    +0.020 A 
ATOM     33  C   UNL     1       0.111  -7.745   7.234  0.00  0.00    +0.111 A 
ATOM     34  N   UNL     1      -1.056  -7.156   7.057  0.00  0.00    -0.263 NA
ATOM     35  C   UNL     1      -1.217  -6.188   6.176  0.00  0.00    +0.112 A 
ENDBRANCH  29  30
ENDBRANCH  27  29
BRANCH  27  36
ATOM     36  C   UNL     1       1.197  -3.426   5.731  0.00  0.00    -0.002 C 
BRANCH  36  37
ATOM     37  C   UNL     1       1.404  -2.149   6.505  0.00  0.00    +0.089 A 
ATOM     38  C   UNL     1       1.055  -1.942   7.788  0.00  0.00    +0.042 A 
ATOM     39  C   UNL     1       1.431  -0.616   8.105  0.00  0.00    +0.041 A 
ATOM     40  C   UNL     1       1.988  -0.093   6.997  0.00  0.00    +0.195 A 
ATOM     41  O   UNL     1       1.974  -1.028   6.034  0.00  0.00    -0.470 OA
ENDBRANCH  36  37
ENDBRANCH  27  36
ENDBRANCH   1  27
TORSDOF 9
