REMARK  Name = ZINC65371746
REMARK  6 active torsions:
REMARK  status: ('A' for Active; 'I' for Inactive)
REMARK    1  A    between atoms: C_4  and  C_7
REMARK    2  A    between atoms: C_9  and  C_27
REMARK    3  A    between atoms: N_11  and  C_14
REMARK    4  A    between atoms: C_14  and  C_15
REMARK    5  A    between atoms: C_15  and  C_17
REMARK    6  A    between atoms: C_15  and  N_22
REMARK                            x       y       z     vdW  Elec       q    Type
REMARK                         _______ _______ _______ _____ _____    ______ ____
ROOT
ATOM      1  C   UNL     1       4.202  -0.187   0.582  0.00  0.00    +0.110 C 
ATOM      2  C   UNL     1       4.329  -0.973   1.901  0.00  0.00    +0.143 C 
ATOM      3  N   UNL     1       4.336  -2.404   1.514  0.00  0.00    -0.280 NA
ATOM      4  C   UNL     1       4.802  -2.404   0.104  0.00  0.00    +0.169 C 
ATOM      5  N   UNL     1       4.145  -1.210  -0.490  0.00  0.00    -0.295 NA
ATOM      6  H   UNL     1       3.190  -1.413  -0.746  0.00  0.00    +0.124 HD
ENDROOT
BRANCH   2   7
ATOM      7  C   UNL     1       3.153  -0.680   2.797  0.00  0.00    +0.104 A 
ATOM      8  N   UNL     1       3.117   0.244   3.743  0.00  0.00    -0.349 N 
ATOM      9  C   UNL     1       1.900   0.206   4.325  0.00  0.00    +0.101 A 
ATOM     10  C   UNL     1       1.192  -0.764   3.713  0.00  0.00    +0.101 A 
ATOM     11  N   UNL     1       1.984  -1.301   2.762  0.00  0.00    -0.349 N 
ATOM     12  H   UNL     1       1.740  -2.019   2.158  0.00  0.00    +0.166 HD
ATOM     13  H   UNL     1       3.841   0.846   3.978  0.00  0.00    +0.166 HD
ENDBRANCH   2   7
BRANCH   1  17
ATOM     14  C   UNL     1       0.622   2.144   0.588  0.00  0.00    +0.000 A 
ATOM     15  C   UNL     1       1.839   2.744   0.854  0.00  0.00    +0.000 A 
ATOM     16  C   UNL     1       2.997   1.990   0.853  0.00  0.00    +0.005 A 
ATOM     17  C   UNL     1       2.939   0.635   0.585  0.00  0.00    -0.029 A 
ATOM     18  C   UNL     1       1.722   0.035   0.319  0.00  0.00    +0.005 A 
ATOM     19  C   UNL     1       0.564   0.789   0.319  0.00  0.00    +0.000 A 
ENDBRANCH   1  17
BRANCH   3  20
ATOM     20  C   UNL     1       5.248  -3.175   2.370  0.00  0.00    +0.079 C 
BRANCH  20  21
ATOM     21  C   UNL     1       5.134  -4.662   2.027  0.00  0.00    +0.013 C 
BRANCH  21  22
ATOM     22  N   UNL     1       3.759  -5.117   2.271  0.00  0.00    +0.387 N 
ATOM     23  C   UNL     1       2.838  -4.529   1.264  0.00  0.00    -0.078 C 
ATOM     24  C   UNL     1       1.626  -5.493   1.286  0.00  0.00    -0.020 C 
ATOM     25  C   UNL     1       2.288  -6.877   1.475  0.00  0.00    -0.020 C 
ATOM     26  C   UNL     1       3.667  -6.582   2.094  0.00  0.00    -0.078 C 
ATOM     27  H   UNL     1       3.467  -4.860   3.202  0.00  0.00    -0.081 HD
ENDBRANCH  21  22
BRANCH  21  28
ATOM     28  C   UNL     1       6.085  -5.451   2.889  0.00  0.00    +0.093 A 
ATOM     29  C   UNL     1       7.294  -5.906   2.515  0.00  0.00    +0.043 A 
ATOM     30  C   UNL     1       7.837  -6.588   3.627  0.00  0.00    +0.041 A 
ATOM     31  C   UNL     1       6.928  -6.509   4.615  0.00  0.00    +0.195 A 
ATOM     32  O   UNL     1       5.871  -5.814   4.164  0.00  0.00    -0.469 OA
ENDBRANCH  21  28
ENDBRANCH  20  21
ENDBRANCH   3  20
TORSDOF 6
