REMARK  Name = ZINC06443597
REMARK  8 active torsions:
REMARK  status: ('A' for Active; 'I' for Inactive)
REMARK    1  A    between atoms: C_1  and  C_2
REMARK    2  A    between atoms: C_12  and  C_14
REMARK    3  A    between atoms: C_14  and  C_16
REMARK    4  A    between atoms: C_14  and  N_60
REMARK    5  A    between atoms: N_20  and  C_21
REMARK    6  A    between atoms: C_21  and  C_22
REMARK    7  A    between atoms: C_21  and  C_23
REMARK    8  A    between atoms: C_21  and  C_24
REMARK                            x       y       z     vdW  Elec       q    Type
REMARK                         _______ _______ _______ _____ _____    ______ ____
ROOT
ATOM      1  C   UNL     1       0.246  -2.754   4.705  0.00  0.00    +0.039 C 
ENDROOT
BRANCH   1  13
ATOM      2  C   UNL     1       0.798   1.788  -0.014  0.00  0.00    +0.046 C 
ATOM      3  C   UNL     1       0.775   0.283  -0.080  0.00  0.00    -0.026 A 
ATOM      4  C   UNL     1       0.877  -0.359  -1.296  0.00  0.00    +0.005 A 
ATOM      5  C   UNL     1       0.863  -1.745  -1.369  0.00  0.00    +0.001 A 
ATOM      6  C   UNL     1       0.737  -2.499  -0.237  0.00  0.00    +0.010 A 
ATOM      7  C   UNL     1       0.626  -1.870   1.007  0.00  0.00    -0.001 A 
ATOM      8  C   UNL     1       0.646  -0.465   1.086  0.00  0.00    +0.052 A 
ATOM      9  N   UNL     1       0.537   0.150   2.315  0.00  0.00    -0.322 N 
ATOM     10  H   UNL     1       0.551   1.119   2.368  0.00  0.00    +0.169 HD
ATOM     11  C   UNL     1       0.412  -0.573   3.442  0.00  0.00    +0.251 A 
ATOM     12  O   UNL     1       0.318   0.005   4.511  0.00  0.00    -0.268 OA
ATOM     13  C   UNL     1       0.387  -1.984   3.417  0.00  0.00    +0.011 A 
ATOM     14  C   UNL     1       0.490  -2.648   2.240  0.00  0.00    +0.017 A 
ENDBRANCH   1  13
BRANCH   1  24
ATOM     15  C   UNL     1      -1.139  -3.048   6.672  0.00  0.00    -0.072 C 
ATOM     16  C   UNL     1      -2.160  -2.307   7.535  0.00  0.00    +0.017 C 
ATOM     17  C   UNL     1      -3.394  -2.002   6.723  0.00  0.00    -0.048 A 
ATOM     18  C   UNL     1      -4.558  -1.660   7.394  0.00  0.00    +0.004 A 
ATOM     19  C   UNL     1      -5.708  -1.365   6.689  0.00  0.00    +0.000 A 
ATOM     20  C   UNL     1      -5.699  -1.413   5.308  0.00  0.00    +0.000 A 
ATOM     21  C   UNL     1      -4.541  -1.756   4.639  0.00  0.00    +0.002 A 
ATOM     22  C   UNL     1      -3.385  -2.053   5.346  0.00  0.00    -0.061 A 
ATOM     23  C   UNL     1      -2.147  -2.426   4.573  0.00  0.00    -0.041 C 
ATOM     24  N   UNL     1      -0.956  -2.277   5.425  0.00  0.00    +0.392 N 
ATOM     25  H   UNL     1      -0.834  -1.285   5.660  0.00  0.00    -0.080 HD
ENDBRANCH   1  24
BRANCH   1  26
ATOM     26  C   UNL     1       1.460  -2.520   5.566  0.00  0.00    +0.143 A 
ATOM     27  N   UNL     1       1.794  -1.399   6.158  0.00  0.00    -0.115 NA
ATOM     28  N   UNL     1       2.893  -1.601   6.800  0.00  0.00    -0.023 NA
ATOM     29  N   UNL     1       3.268  -2.821   6.632  0.00  0.00    -0.043 NA
ATOM     30  N   UNL     1       2.408  -3.422   5.882  0.00  0.00    -0.225 N 
BRANCH  30  31
ATOM     31  C   UNL     1       2.455  -4.821   5.451  0.00  0.00    +0.059 C 
ATOM     32  C   UNL     1       2.454  -4.885   3.922  0.00  0.00    +0.036 C 
ATOM     33  C   UNL     1       3.728  -5.478   5.988  0.00  0.00    +0.036 C 
ATOM     34  C   UNL     1       1.231  -5.563   5.992  0.00  0.00    +0.036 C 
ENDBRANCH  30  31
ENDBRANCH   1  26
TORSDOF 4
