REMARK  Name = ZINC39699299
REMARK  10 active torsions:
REMARK  status: ('A' for Active; 'I' for Inactive)
REMARK    1  A    between atoms: C_1  and  C_2
REMARK    2  A    between atoms: C_4  and  C_38
REMARK    3  A    between atoms: C_9  and  C_14
REMARK    4  A    between atoms: C_14  and  C_16
REMARK    5  A    between atoms: C_14  and  N_26
REMARK    6  A    between atoms: N_21  and  C_22
REMARK    7  A    between atoms: C_22  and  C_23
REMARK    8  A    between atoms: C_22  and  C_24
REMARK    9  A    between atoms: C_22  and  C_25
REMARK   10  A    between atoms: N_29  and  C_32
REMARK                            x       y       z     vdW  Elec       q    Type
REMARK                         _______ _______ _______ _____ _____    ______ ____
ROOT
ATOM      1  C   UNL     1      -1.001  -5.248   3.025  0.00  0.00    +0.113 C 
ENDROOT
BRANCH   1  10
ATOM      2  C   UNL     1       5.879  -5.642   4.899  0.00  0.00    +0.044 C 
ATOM      3  C   UNL     1       4.656  -4.907   4.414  0.00  0.00    -0.050 A 
ATOM      4  C   UNL     1       4.582  -3.524   4.575  0.00  0.00    +0.008 A 
ATOM      5  C   UNL     1       3.513  -2.794   4.163  0.00  0.00    -0.028 A 
ATOM      6  C   UNL     1       2.415  -3.421   3.545  0.00  0.00    +0.043 A 
ATOM      7  N   UNL     1       1.372  -2.695   3.145  0.00  0.00    -0.284 N 
ATOM      8  C   UNL     1       0.309  -3.220   2.559  0.00  0.00    +0.226 C 
ATOM      9  O   UNL     1      -0.614  -2.506   2.215  0.00  0.00    -0.275 OA
ATOM     10  C   UNL     1       0.245  -4.712   2.318  0.00  0.00    +0.119 C 
ATOM     11  C   UNL     1       1.430  -5.542   2.771  0.00  0.00    -0.003 C 
ATOM     12  C   UNL     1       2.466  -4.882   3.363  0.00  0.00    -0.006 A 
ATOM     13  C   UNL     1       3.651  -5.606   3.825  0.00  0.00    +0.012 A 
ATOM     14  C   UNL     1       3.502  -1.301   4.369  0.00  0.00    +0.046 C 
ATOM     15  H   UNL     1       1.393  -1.736   3.290  0.00  0.00    +0.155 HD
ENDBRANCH   1  10
BRANCH   1  16
ATOM     16  N   UNL     1      -0.890  -5.003   4.469  0.00  0.00    -0.299 NA
ATOM     17  C   UNL     1       0.504  -5.125   4.918  0.00  0.00    +0.066 C 
ATOM     18  C   UNL     1       0.569  -4.921   6.433  0.00  0.00    -0.063 C 
ATOM     19  N   UNL     1       0.043  -3.592   6.771  0.00  0.00    +0.383 N 
ATOM     20  C   UNL     1      -1.358  -3.494   6.339  0.00  0.00    -0.063 C 
ATOM     21  C   UNL     1      -1.438  -3.686   4.823  0.00  0.00    +0.066 C 
ATOM     22  H   UNL     1       0.589  -2.885   6.303  0.00  0.00    -0.081 HD
BRANCH  19  23
ATOM     23  C   UNL     1       0.121  -3.390   8.224  0.00  0.00    -0.068 C 
ATOM     24  C   UNL     1       1.580  -3.491   8.674  0.00  0.00    -0.015 C 
ATOM     25  C   UNL     1       1.662  -3.280  10.188  0.00  0.00    -0.002 C 
ATOM     26  C   UNL     1       1.114  -1.896  10.540  0.00  0.00    -0.000 C 
ATOM     27  C   UNL     1      -0.345  -1.795  10.090  0.00  0.00    -0.002 C 
ATOM     28  C   UNL     1      -0.427  -2.006   8.577  0.00  0.00    -0.015 C 
ENDBRANCH  19  23
ENDBRANCH   1  16
BRANCH   1  29
ATOM     29  C   UNL     1      -1.123  -6.752   2.771  0.00  0.00    +0.214 C 
ATOM     30  N   UNL     1       0.092  -7.458   3.222  0.00  0.00    -0.226 N 
ATOM     31  N   UNL     1       0.634  -8.055   2.078  0.00  0.00    -0.064 NA
ATOM     32  N   UNL     1      -0.028  -7.832   1.068  0.00  0.00    -0.061 NA
ATOM     33  N   UNL     1      -1.157  -7.037   1.324  0.00  0.00    -0.208 N 
ATOM     34  H   UNL     1       0.443  -7.499   4.125  0.00  0.00    +0.172 HD
BRANCH  33  35
ATOM     35  C   UNL     1      -2.160  -6.583   0.358  0.00  0.00    +0.047 C 
ATOM     36  C   UNL     1      -2.071  -5.063   0.206  0.00  0.00    +0.033 C 
ATOM     37  C   UNL     1      -1.902  -7.247  -0.996  0.00  0.00    +0.033 C 
ATOM     38  C   UNL     1      -3.556  -6.965   0.855  0.00  0.00    +0.033 C 
ENDBRANCH  33  35
ENDBRANCH   1  29
TORSDOF 5
