REMARK  Name = ZINC21876184
REMARK  7 active torsions:
REMARK  status: ('A' for Active; 'I' for Inactive)
REMARK    1  A    between atoms: C_4  and  C_7
REMARK    2  A    between atoms: C_8  and  C_18
REMARK    3  A    between atoms: N_10  and  C_12
REMARK    4  A    between atoms: N_20  and  N_21
REMARK    5  A    between atoms: C_22  and  C_24
REMARK    6  A    between atoms: C_24  and  C_25
REMARK    7  A    between atoms: C_30  and  N_31
REMARK                            x       y       z     vdW  Elec       q    Type
REMARK                         _______ _______ _______ _____ _____    ______ ____
ROOT
ATOM      1  C   UNL     1       4.201   2.873   1.536  0.00  0.00    +0.264 C 
ATOM      2  O   UNL     1       4.463   1.777   1.994  0.00  0.00    -0.269 OA
ATOM      3  N   UNL     1       4.846   3.966   1.990  0.00  0.00    -0.230 N 
ATOM      4  H   UNL     1       4.609   4.956   1.575  0.00  0.00    +0.173 HD
ENDROOT
BRANCH   1   6
ATOM      5  C   UNL     1       2.392   1.923  -0.117  0.00  0.00    +0.105 A 
ATOM      6  C   UNL     1       3.179   3.005   0.483  0.00  0.00    +0.084 A 
ATOM      7  C   UNL     1       2.773   4.170  -0.133  0.00  0.00    +0.128 A 
ATOM      8  N   UNL     1       1.824   3.853  -1.031  0.00  0.00    -0.239 N 
ATOM      9  N   UNL     1       1.605   2.473  -1.015  0.00  0.00    -0.166 NA
BRANCH   5  13
ATOM     10  C   UNL     1       2.623  -2.210   0.849  0.00  0.00    +0.000 A 
ATOM     11  C   UNL     1       1.406  -1.650   0.508  0.00  0.00    +0.001 A 
ATOM     12  C   UNL     1       1.324  -0.308   0.194  0.00  0.00    +0.010 A 
ATOM     13  C   UNL     1       2.472   0.482   0.220  0.00  0.00    +0.003 A 
ATOM     14  C   UNL     1       3.697  -0.089   0.564  0.00  0.00    +0.010 A 
ATOM     15  C   UNL     1       3.766  -1.431   0.877  0.00  0.00    +0.001 A 
ENDBRANCH   5  13
BRANCH   8  16
ATOM     16  C   UNL     1       1.161   4.766  -1.861  0.00  0.00    +0.065 A 
ATOM     17  C   UNL     1       1.464   6.119  -1.789  0.00  0.00    +0.028 A 
ATOM     18  C   UNL     1       0.813   7.016  -2.613  0.00  0.00    +0.002 A 
ATOM     19  C   UNL     1      -0.149   6.569  -3.501  0.00  0.00    +0.000 A 
ATOM     20  C   UNL     1      -0.457   5.223  -3.571  0.00  0.00    +0.002 A 
ATOM     21  C   UNL     1       0.195   4.320  -2.754  0.00  0.00    +0.028 A 
ENDBRANCH   8  16
ENDBRANCH   1   6
BRANCH   3  22
ATOM     22  N   UNL     1       5.818   3.840   2.991  0.00  0.00    -0.234 N 
ATOM     23  C   UNL     1       6.462   4.933   3.445  0.00  0.00    +0.233 C 
ATOM     24  O   UNL     1       6.201   6.025   2.988  0.00  0.00    -0.274 OA
ATOM     25  H   UNL     1       6.055   2.849   3.406  0.00  0.00    +0.173 HD
BRANCH  23  26
ATOM     26  C   UNL     1       7.508   4.798   4.522  0.00  0.00    +0.134 C 
BRANCH  26  27
ATOM     27  C   UNL     1       8.072   6.157   4.848  0.00  0.00    -0.008 A 
ATOM     28  C   UNL     1       9.213   6.603   4.208  0.00  0.00    +0.006 A 
ATOM     29  C   UNL     1       9.728   7.851   4.504  0.00  0.00    +0.000 A 
ATOM     30  C   UNL     1       9.107   8.650   5.447  0.00  0.00    +0.002 A 
ATOM     31  C   UNL     1       7.969   8.201   6.090  0.00  0.00    +0.033 A 
ATOM     32  C   UNL     1       7.451   6.955   5.791  0.00  0.00    +0.130 A 
BRANCH  32  33
ATOM     33  N   UNL     1       6.232   6.474   6.480  0.00  0.00    +0.057 N 
ATOM     34  O   UNL     1       5.405   5.821   5.870  0.00  0.00    -0.126 OA
ATOM     35  O   UNL     1       6.057   6.733   7.657  0.00  0.00    -0.126 OA
ENDBRANCH  32  33
ENDBRANCH  26  27
ENDBRANCH  23  26
ENDBRANCH   3  22
TORSDOF 7
