REMARK  Name = ZINC63289590
REMARK  9 active torsions:
REMARK  status: ('A' for Active; 'I' for Inactive)
REMARK    1  A    between atoms: C_1  and  C_2
REMARK    2  A    between atoms: C_4  and  N_10
REMARK    3  A    between atoms: C_8  and  C_9
REMARK    4  A    between atoms: N_10  and  S_11
REMARK    5  A    between atoms: S_11  and  C_14
REMARK    6  A    between atoms: C_17  and  N_20
REMARK    7  A    between atoms: C_21  and  C_23
REMARK    8  A    between atoms: C_23  and  S_24
REMARK    9  A    between atoms: S_24  and  C_25
REMARK                            x       y       z     vdW  Elec       q    Type
REMARK                         _______ _______ _______ _____ _____    ______ ____
ROOT
ATOM      1  C   UNL     1       0.675   0.948  -4.218  0.00  0.00    +0.105 A 
ATOM      2  C   UNL     1      -0.100  -0.030  -4.814  0.00  0.00    +0.030 A 
ATOM      3  C   UNL     1      -1.247   0.319  -5.500  0.00  0.00    +0.025 A 
ATOM      4  C   UNL     1      -1.622   1.653  -5.590  0.00  0.00    +0.034 A 
ATOM      5  C   UNL     1      -0.841   2.633  -4.990  0.00  0.00    +0.025 A 
ATOM      6  C   UNL     1       0.302   2.277  -4.302  0.00  0.00    +0.030 A 
ENDROOT
BRANCH   4   7
ATOM      7  N   UNL     1      -2.783   2.010  -6.285  0.00  0.00    -0.285 N 
ATOM      8  C   UNL     1      -3.847   1.184  -6.287  0.00  0.00    +0.227 C 
ATOM      9  O   UNL     1      -3.835   0.177  -5.610  0.00  0.00    -0.275 OA
ATOM     10  H   UNL     1      -2.821   2.852  -6.765  0.00  0.00    +0.155 HD
BRANCH   8  11
ATOM     11  C   UNL     1      -5.053   1.510  -7.130  0.00  0.00    +0.169 C 
BRANCH  11  12
ATOM     12  S   UNL     1      -6.307   0.216  -6.920  0.00  0.00    -0.106 S 
BRANCH  12  13
ATOM     13  C   UNL     1      -7.673   0.752  -7.986  0.00  0.00    +0.236 C 
ATOM     14  N   UNL     1      -8.117   2.097  -7.599  0.00  0.00    -0.355 N 
ATOM     15  C   UNL     1      -7.943   2.876  -8.628  0.00  0.00    +0.061 A 
ATOM     16  C   UNL     1      -8.197   4.306  -8.852  0.00  0.00    +0.027 A 
ATOM     17  C   UNL     1      -7.911   4.852 -10.051  0.00  0.00    +0.002 A 
ATOM     18  C   UNL     1      -7.373   4.106 -11.115  0.00  0.00    +0.002 A 
ATOM     19  C   UNL     1      -7.104   2.789 -11.016  0.00  0.00    +0.027 A 
ATOM     20  C   UNL     1      -7.374   2.087  -9.754  0.00  0.00    +0.061 A 
ATOM     21  N   UNL     1      -7.217   0.850  -9.378  0.00  0.00    -0.355 N 
ATOM     22  H   UNL     1      -8.474   2.357  -6.736  0.00  0.00    +0.162 HD
ATOM     23  H   UNL     1      -6.864   0.126  -9.919  0.00  0.00    +0.162 HD
ENDBRANCH  12  13
ENDBRANCH  11  12
ENDBRANCH   8  11
ENDBRANCH   4   7
BRANCH   1  24
ATOM     24  S   UNL     1       2.137   0.499  -3.343  0.00  0.00    +0.061 S 
ATOM     25  O   UNL     1       2.975   1.647  -3.337  0.00  0.00    -0.153 OA
ATOM     26  O   UNL     1       2.560  -0.750  -3.874  0.00  0.00    -0.153 OA
BRANCH  24  27
ATOM     27  N   UNL     1       1.702   0.222  -1.770  0.00  0.00    -0.149 NA
ATOM     28  H   UNL     1       2.038   0.797  -1.065  0.00  0.00    +0.152 HD
BRANCH  27  31
ATOM     29  C   UNL     1      -0.176   0.940   0.005  0.00  0.00    +0.019 C 
ATOM     30  C   UNL     1      -0.042  -0.572  -0.189  0.00  0.00    +0.093 C 
ATOM     31  C   UNL     1       0.808  -0.892  -1.443  0.00  0.00    +0.301 C 
ATOM     32  O   UNL     1       1.555  -2.043  -0.999  0.00  0.00    -0.373 OA
ATOM     33  N   UNL     1       1.636  -1.980   0.411  0.00  0.00    -0.092 NA
ATOM     34  C   UNL     1       0.774  -1.189   0.931  0.00  0.00    +0.062 C 
ATOM     35  C   UNL     1       0.599  -0.913   2.402  0.00  0.00    +0.064 C 
ENDBRANCH  27  31
ENDBRANCH  24  27
ENDBRANCH   1  24
TORSDOF 7
