REMARK  Name = ZINC63204526
REMARK  9 active torsions:
REMARK  status: ('A' for Active; 'I' for Inactive)
REMARK    1  A    between atoms: C_1  and  O_2
REMARK    2  A    between atoms: O_2  and  C_3
REMARK    3  A    between atoms: C_6  and  C_9
REMARK    4  A    between atoms: C_9  and  C_11
REMARK    5  A    between atoms: C_9  and  C_31
REMARK    6  A    between atoms: C_11  and  N_12
REMARK    7  A    between atoms: C_13  and  C_15
REMARK    8  A    between atoms: C_15  and  N_16
REMARK    9  A    between atoms: C_19  and  C_29
REMARK                            x       y       z     vdW  Elec       q    Type
REMARK                         _______ _______ _______ _____ _____    ______ ____
ROOT
ATOM      1  C   UNL     1      -4.981  -2.629   0.035  0.00  0.00    +0.064 C 
ENDROOT
BRANCH   1   2
ATOM      2  C   UNL     1      -5.085  -3.493   1.265  0.00  0.00    -0.033 C 
ATOM      3  C   UNL     1      -6.013  -3.404   2.245  0.00  0.00    -0.000 A 
ATOM      4  C   UNL     1      -7.158  -2.509   2.452  0.00  0.00    +0.010 A 
ATOM      5  C   UNL     1      -7.923  -2.666   3.557  0.00  0.00    +0.001 A 
ATOM      6  C   UNL     1      -7.649  -3.660   4.507  0.00  0.00    +0.002 A 
ATOM      7  C   UNL     1      -6.615  -4.519   4.386  0.00  0.00    +0.026 A 
ATOM      8  C   UNL     1      -5.746  -4.445   3.263  0.00  0.00    +0.043 A 
ATOM      9  N   UNL     1      -4.694  -5.151   2.926  0.00  0.00    -0.380 N 
ATOM     10  C   UNL     1      -4.178  -4.640   1.651  0.00  0.00    +0.145 C 
ATOM     11  H   UNL     1      -4.322  -5.889   3.432  0.00  0.00    +0.160 HD
ENDBRANCH   1   2
BRANCH   1  15
ATOM     12  C   UNL     1      -1.200  -0.637   0.010  0.00  0.00    +0.120 A 
ATOM     13  C   UNL     1      -2.375   0.101   0.019  0.00  0.00    +0.046 A 
ATOM     14  C   UNL     1      -3.596  -0.545   0.027  0.00  0.00    +0.008 A 
ATOM     15  C   UNL     1      -3.648  -1.927   0.026  0.00  0.00    -0.038 A 
ATOM     16  C   UNL     1      -2.479  -2.665   0.017  0.00  0.00    +0.008 A 
ATOM     17  C   UNL     1      -1.255  -2.024   0.003  0.00  0.00    +0.046 A 
BRANCH  12  19
ATOM     18  C   UNL     1      -0.017   1.425   0.010  0.00  0.00    +0.277 C 
ATOM     19  O   UNL     1       0.002  -0.004   0.002  0.00  0.00    -0.495 OA
ENDBRANCH  12  19
ENDBRANCH   1  15
BRANCH   1  20
ATOM     20  C   UNL     1      -5.105  -3.504  -1.214  0.00  0.00    +0.116 C 
BRANCH  20  21
ATOM     21  N   UNL     1      -6.446  -4.093  -1.267  0.00  0.00    -0.313 N 
ATOM     22  C   UNL     1      -6.785  -4.905  -2.287  0.00  0.00    +0.231 C 
ATOM     23  O   UNL     1      -5.981  -5.149  -3.162  0.00  0.00    -0.274 OA
ATOM     24  H   UNL     1      -7.089  -3.898  -0.568  0.00  0.00    +0.149 HD
BRANCH  22  25
ATOM     25  C   UNL     1      -8.164  -5.511  -2.341  0.00  0.00    +0.213 C 
BRANCH  25  26
ATOM     26  N   UNL     1      -8.283  -6.348  -3.538  0.00  0.00    -0.216 N 
ATOM     27  C   UNL     1      -8.713  -5.798  -4.685  0.00  0.00    +0.242 C 
ATOM     28  O   UNL     1      -8.919  -4.604  -4.730  0.00  0.00    -0.274 OA
ATOM     29  C   UNL     1      -8.946  -6.633  -5.919  0.00  0.00    +0.198 C 
ATOM     30  C   UNL     1      -7.920  -7.771  -5.953  0.00  0.00    +0.103 C 
ATOM     31  C   UNL     1      -8.437  -8.897  -6.880  0.00  0.00    +0.026 C 
ATOM     32  C   UNL     1      -7.750 -10.146  -6.267  0.00  0.00    +0.021 C 
ATOM     33  C   UNL     1      -7.753  -9.837  -4.753  0.00  0.00    +0.110 C 
ATOM     34  N   UNL     1      -7.869  -8.370  -4.602  0.00  0.00    -0.280 N 
ATOM     35  C   UNL     1      -7.953  -7.654  -3.465  0.00  0.00    +0.312 C 
ATOM     36  O   UNL     1      -7.738  -8.177  -2.390  0.00  0.00    -0.252 OA
BRANCH  29  37
ATOM     37  C   UNL     1      -8.792  -5.793  -7.118  0.00  0.00    +0.077 C 
ATOM     38  N   UNL     1      -8.673  -5.144  -8.043  0.00  0.00    -0.196 NA
ENDBRANCH  29  37
ENDBRANCH  25  26
ENDBRANCH  22  25
ENDBRANCH  20  21
ENDBRANCH   1  20
TORSDOF 8
