REMARK  Name = ZINC07177521
REMARK  8 active torsions:
REMARK  status: ('A' for Active; 'I' for Inactive)
REMARK    1  A    between atoms: C_1  and  C_2
REMARK    2  A    between atoms: C_4  and  N_27
REMARK    3  A    between atoms: C_6  and  S_8
REMARK    4  A    between atoms: S_8  and  C_9
REMARK    5  A    between atoms: C_9  and  C_11
REMARK    6  A    between atoms: C_9  and  C_12
REMARK    7  A    between atoms: C_24  and  C_25
REMARK    8  A    between atoms: C_24  and  C_26
REMARK                            x       y       z     vdW  Elec       q    Type
REMARK                         _______ _______ _______ _____ _____    ______ ____
ROOT
ATOM      1  C   UNL     1       0.619   0.038   2.477  0.00  0.00    +0.234 C 
ATOM      2  O   UNL     1       0.613  -0.421   1.354  0.00  0.00    -0.274 OA
ATOM      3  N   UNL     1       0.060   1.241   2.715  0.00  0.00    -0.255 N 
ATOM      4  C   UNL     1       0.061   1.797   4.004  0.00  0.00    +0.059 A 
ATOM      5  C   UNL     1       0.051   0.993   5.130  0.00  0.00    +0.025 A 
ATOM      6  C   UNL     1       0.048   1.571   6.386  0.00  0.00    +0.002 A 
ATOM      7  C   UNL     1       0.054   2.948   6.518  0.00  0.00    +0.002 A 
ATOM      8  C   UNL     1       0.066   3.757   5.398  0.00  0.00    +0.025 A 
ATOM      9  C   UNL     1       0.070   3.187   4.135  0.00  0.00    +0.055 A 
ATOM     10  N   UNL     1       0.088   3.988   2.988  0.00  0.00    -0.282 N 
ATOM     11  C   UNL     1      -0.185   3.464   1.778  0.00  0.00    +0.241 C 
ATOM     12  O   UNL     1      -0.122   4.167   0.792  0.00  0.00    -0.273 OA
ATOM     13  C   UNL     1      -0.570   2.013   1.634  0.00  0.00    +0.113 C 
ATOM     14  C   UNL     1      -0.086   1.488   0.281  0.00  0.00    +0.042 C 
ATOM     15  C   UNL     1      -2.091   1.873   1.723  0.00  0.00    +0.042 C 
ATOM     16  H   UNL     1       0.299   4.931   3.065  0.00  0.00    +0.155 HD
ENDROOT
BRANCH   1  17
ATOM     17  C   UNL     1       1.251  -0.736   3.604  0.00  0.00    +0.137 C 
ATOM     18  C   UNL     1       0.276  -1.807   4.098  0.00  0.00    +0.029 C 
BRANCH  17  19
ATOM     19  S   UNL     1       2.769  -1.527   3.016  0.00  0.00    -0.073 S 
BRANCH  19  25
ATOM     20  C   UNL     1       6.265  -4.207   5.623  0.00  0.00    +0.066 C 
ATOM     21  C   UNL     1       4.974  -3.429   5.641  0.00  0.00    +0.044 A 
ATOM     22  C   UNL     1       4.276  -3.263   6.821  0.00  0.00    +0.066 A 
ATOM     23  C   UNL     1       3.084  -2.535   6.793  0.00  0.00    +0.121 A 
ATOM     24  N   UNL     1       2.663  -2.030   5.638  0.00  0.00    -0.207 NA
ATOM     25  C   UNL     1       3.362  -2.213   4.527  0.00  0.00    +0.191 A 
ATOM     26  N   UNL     1       4.494  -2.903   4.524  0.00  0.00    -0.227 NA
BRANCH  23  27
ATOM     27  N   UNL     1       2.350  -2.343   7.953  0.00  0.00    -0.343 N 
ATOM     28  H   UNL     1       1.523  -1.837   7.925  0.00  0.00    +0.144 HD
ATOM     29  H   UNL     1       2.664  -2.715   8.792  0.00  0.00    +0.144 HD
ENDBRANCH  23  27
ENDBRANCH  19  25
ENDBRANCH  17  19
ENDBRANCH   1  17
TORSDOF 4
