REMARK  Name = ZINC08711064
REMARK  9 active torsions:
REMARK  status: ('A' for Active; 'I' for Inactive)
REMARK    1  A    between atoms: C_1  and  N_2
REMARK    2  A    between atoms: C_6  and  C_8
REMARK    3  A    between atoms: C_8  and  C_10
REMARK    4  A    between atoms: C_8  and  O_16
REMARK    5  A    between atoms: O_16  and  C_17
REMARK    6  A    between atoms: C_17  and  C_19
REMARK    7  A    between atoms: C_19  and  C_20
REMARK    8  A    between atoms: C_20  and  C_21
REMARK    9  A    between atoms: C_21  and  N_22
REMARK                            x       y       z     vdW  Elec       q    Type
REMARK                         _______ _______ _______ _____ _____    ______ ____
ROOT
ATOM      1  C   UNL     1       1.841   4.300  -2.159  0.00  0.00    +0.308 C 
ATOM      2  O   UNL     1       0.714   4.067  -2.527  0.00  0.00    -0.251 OA
ENDROOT
BRANCH   1   3
ATOM      3  O   UNL     1       2.184   4.095  -0.877  0.00  0.00    -0.447 OA
BRANCH   3   4
ATOM      4  C   UNL     1       1.151   3.592   0.010  0.00  0.00    +0.292 C 
BRANCH   4  10
ATOM      5  C   UNL     1       0.095   4.506   5.978  0.00  0.00    +0.129 C 
ATOM      6  N   UNL     1      -0.151   4.021   4.618  0.00  0.00    -0.302 N 
ATOM      7  C   UNL     1       0.739   4.279   3.639  0.00  0.00    +0.306 C 
ATOM      8  O   UNL     1       1.746   4.913   3.886  0.00  0.00    -0.252 OA
ATOM      9  N   UNL     1       0.513   3.833   2.388  0.00  0.00    -0.237 N 
ATOM     10  C   UNL     1       1.403   4.091   1.409  0.00  0.00    +0.266 C 
ATOM     11  O   UNL     1       2.408   4.724   1.655  0.00  0.00    -0.271 OA
ATOM     12  H   UNL     1      -0.955   3.515   4.421  0.00  0.00    +0.150 HD
ATOM     13  H   UNL     1      -0.291   3.327   2.191  0.00  0.00    +0.159 HD
ENDBRANCH   4  10
BRANCH   4  14
ATOM     14  C   UNL     1       1.171   2.086   0.002  0.00  0.00    +0.002 A 
ATOM     15  C   UNL     1      -0.017   1.378   0.010  0.00  0.00    +0.008 A 
ATOM     16  C   UNL     1       0.002  -0.004   0.002  0.00  0.00    +0.000 A 
ATOM     17  C   UNL     1       1.208  -0.679  -0.014  0.00  0.00    +0.000 A 
ATOM     18  C   UNL     1       2.396   0.029  -0.021  0.00  0.00    +0.000 A 
ATOM     19  C   UNL     1       2.377   1.411  -0.014  0.00  0.00    +0.008 A 
ENDBRANCH   4  14
ENDBRANCH   3   4
ENDBRANCH   1   3
BRANCH   1  20
ATOM     20  C   UNL     1       2.861   4.821  -3.138  0.00  0.00    +0.122 C 
BRANCH  20  21
ATOM     21  C   UNL     1       2.216   4.964  -4.518  0.00  0.00    +0.031 C 
BRANCH  21  22
ATOM     22  C   UNL     1       3.252   5.492  -5.513  0.00  0.00    +0.117 C 
BRANCH  22  23
ATOM     23  N   UNL     1       2.635   5.629  -6.834  0.00  0.00    -0.234 N 
ATOM     24  C   UNL     1       2.680   4.585  -7.682  0.00  0.00    +0.254 C 
ATOM     25  O   UNL     1       3.228   3.553  -7.343  0.00  0.00    -0.270 OA
ATOM     26  C   UNL     1       2.068   4.683  -9.015  0.00  0.00    +0.046 A 
ATOM     27  C   UNL     1       2.088   3.630  -9.919  0.00  0.00    +0.014 A 
ATOM     28  C   UNL     1       1.500   3.773 -11.170  0.00  0.00    +0.001 A 
ATOM     29  C   UNL     1       0.891   4.936 -11.546  0.00  0.00    +0.008 A 
ATOM     30  C   UNL     1       0.849   6.026 -10.660  0.00  0.00    -0.016 A 
ATOM     31  C   UNL     1       1.443   5.894  -9.387  0.00  0.00    +0.006 A 
ATOM     32  C   UNL     1       1.417   6.973  -8.474  0.00  0.00    +0.046 A 
ATOM     33  C   UNL     1       0.802   8.158  -8.849  0.00  0.00    +0.014 A 
ATOM     34  C   UNL     1       0.220   8.275 -10.105  0.00  0.00    +0.001 A 
ATOM     35  C   UNL     1       0.234   7.244 -11.000  0.00  0.00    +0.008 A 
ATOM     36  C   UNL     1       2.047   6.797  -7.157  0.00  0.00    +0.254 C 
ATOM     37  O   UNL     1       2.038   7.712  -6.356  0.00  0.00    -0.270 OA
ENDBRANCH  22  23
ENDBRANCH  21  22
ENDBRANCH  20  21
ENDBRANCH   1  20
TORSDOF 8
