REMARK  Name = ZINC44875075
REMARK  7 active torsions:
REMARK  status: ('A' for Active; 'I' for Inactive)
REMARK    1  A    between atoms: C_1  and  C_2
REMARK    2  A    between atoms: C_2  and  C_3
REMARK    3  A    between atoms: C_3  and  C_4
REMARK    4  A    between atoms: C_4  and  C_6
REMARK    5  A    between atoms: C_4  and  C_10
REMARK    6  A    between atoms: N_7  and  O_8
REMARK    7  A    between atoms: N_12  and  C_13
REMARK                            x       y       z     vdW  Elec       q    Type
REMARK                         _______ _______ _______ _____ _____    ______ ____
ROOT
ATOM      1  C   UNL     1      -2.822  -2.584  -0.115  0.00  0.00    +0.228 C 
ATOM      2  O   UNL     1      -3.752  -1.809  -0.178  0.00  0.00    -0.275 OA
ATOM      3  N   UNL     1      -3.050  -3.913  -0.135  0.00  0.00    -0.284 N 
ATOM      4  H   UNL     1      -2.304  -4.532  -0.150  0.00  0.00    +0.155 HD
ENDROOT
BRANCH   3   5
ATOM      5  C   UNL     1      -4.362  -4.398  -0.135  0.00  0.00    +0.049 A 
ATOM      6  C   UNL     1      -5.362  -3.701  -0.801  0.00  0.00    +0.039 A 
ATOM      7  C   UNL     1      -6.657  -4.183  -0.799  0.00  0.00    +0.020 A 
ATOM      8  C   UNL     1      -6.958  -5.359  -0.133  0.00  0.00    +0.016 A 
ATOM      9  C   UNL     1      -5.966  -6.054   0.531  0.00  0.00    +0.018 A 
ATOM     10  C   UNL     1      -4.667  -5.580   0.528  0.00  0.00    +0.039 A 
ATOM     11 BR   UNL     1      -3.308  -6.537   1.431  0.00  0.00    -0.048 Br
ATOM     12 BR   UNL     1      -8.019  -3.235  -1.706  0.00  0.00    -0.050 Br
ENDBRANCH   3   5
BRANCH   1  13
ATOM     13  C   UNL     1      -1.412  -2.063  -0.013  0.00  0.00    +0.141 C 
BRANCH  13  14
ATOM     14  C   UNL     1      -0.784  -2.559   1.264  0.00  0.00    +0.144 C 
ATOM     15  N   UNL     1      -0.805  -1.821   2.324  0.00  0.00    -0.076 NA
ATOM     16  N   UNL     1      -0.187  -3.800   1.300  0.00  0.00    -0.343 N 
ATOM     17  H   UNL     1      -0.171  -4.354   0.505  0.00  0.00    +0.144 HD
ATOM     18  H   UNL     1       0.217  -4.120   2.122  0.00  0.00    +0.144 HD
BRANCH  15  19
ATOM     19  O   UNL     1      -0.215  -2.288   3.523  0.00  0.00    -0.408 OA
ATOM     20  H   UNL     1      -0.280  -1.667   4.261  0.00  0.00    +0.328 HD
ENDBRANCH  15  19
ENDBRANCH  13  14
BRANCH  13  21
ATOM     21  C   UNL     1      -1.433  -0.533  -0.009  0.00  0.00    +0.020 C 
BRANCH  21  23
ATOM     22  C   UNL     1      -0.019   1.527  -0.028  0.00  0.00    +0.004 C 
ATOM     23  C   UNL     1       0.002  -0.003  -0.032  0.00  0.00    -0.002 C 
ENDBRANCH  21  23
ENDBRANCH  13  21
ENDBRANCH   1  13
TORSDOF 6
