REMARK  Name = ZINC10305322
REMARK  11 active torsions:
REMARK  status: ('A' for Active; 'I' for Inactive)
REMARK    1  A    between atoms: C_1  and  C_2
REMARK    2  A    between atoms: C_2  and  C_3
REMARK    3  A    between atoms: C_2  and  C_4
REMARK    4  A    between atoms: C_4  and  C_6
REMARK    5  A    between atoms: C_4  and  N_23
REMARK    6  A    between atoms: C_6  and  O_8
REMARK    7  A    between atoms: O_8  and  C_9
REMARK    8  A    between atoms: C_9  and  C_10
REMARK    9  A    between atoms: N_15  and  C_18
REMARK   10  A    between atoms: N_23  and  S_24
REMARK   11  A    between atoms: S_24  and  C_27
REMARK                            x       y       z     vdW  Elec       q    Type
REMARK                         _______ _______ _______ _____ _____    ______ ____
ROOT
ATOM      1  C   UNL     1      -6.181   4.934  -4.431  0.00  0.00    +0.327 C 
ATOM      2  O   UNL     1      -6.274   3.769  -4.741  0.00  0.00    -0.249 OA
ENDROOT
BRANCH   1   3
ATOM      3  C   UNL     1      -7.081   5.958  -5.073  0.00  0.00    +0.187 C 
BRANCH   3   5
ATOM      4  C   UNL     1      -8.742   7.771  -4.629  0.00  0.00    +0.009 C 
ATOM      5  C   UNL     1      -7.915   6.651  -3.994  0.00  0.00    +0.012 C 
ATOM      6  C   UNL     1      -8.852   5.633  -3.341  0.00  0.00    +0.009 C 
ENDBRANCH   3   5
BRANCH   3   7
ATOM      7  N   UNL     1      -7.972   5.295  -6.028  0.00  0.00    -0.176 NA
ATOM      8  H   UNL     1      -8.604   4.626  -5.719  0.00  0.00    +0.149 HD
BRANCH   7   9
ATOM      9  S   UNL     1      -7.902   5.687  -7.636  0.00  0.00    +0.059 S 
ATOM     10  O   UNL     1      -8.853   4.863  -8.296  0.00  0.00    -0.153 OA
ATOM     11  O   UNL     1      -7.941   7.105  -7.710  0.00  0.00    -0.153 OA
BRANCH   9  12
ATOM     12  C   UNL     1      -6.315   5.195  -8.223  0.00  0.00    +0.105 A 
ATOM     13  C   UNL     1      -5.256   6.082  -8.176  0.00  0.00    +0.030 A 
ATOM     14  C   UNL     1      -4.010   5.694  -8.632  0.00  0.00    +0.022 A 
ATOM     15  C   UNL     1      -3.825   4.423  -9.145  0.00  0.00    +0.041 A 
ATOM     16  C   UNL     1      -4.887   3.537  -9.196  0.00  0.00    +0.022 A 
ATOM     17  C   UNL     1      -6.132   3.924  -8.735  0.00  0.00    +0.030 A 
ATOM     18 CL   UNL     1      -2.262   3.938  -9.723  0.00  0.00    -0.084 Cl
ENDBRANCH   9  12
ENDBRANCH   7   9
ENDBRANCH   3   7
ENDBRANCH   1   3
BRANCH   1  19
ATOM     19  O   UNL     1      -5.275   5.315  -3.517  0.00  0.00    -0.454 OA
BRANCH  19  20
ATOM     20  C   UNL     1      -4.442   4.274  -2.941  0.00  0.00    +0.327 C 
BRANCH  20  21
ATOM     21  C   UNL     1      -3.494   4.886  -1.942  0.00  0.00    +0.253 C 
ATOM     22  O   UNL     1      -3.517   6.081  -1.736  0.00  0.00    -0.272 OA
ATOM     23  N   UNL     1      -2.619   4.105  -1.278  0.00  0.00    -0.296 N 
ATOM     24  C   UNL     1      -1.684   4.681  -0.299  0.00  0.00    +0.127 C 
ATOM     25  C   UNL     1      -0.269   4.200  -0.636  0.00  0.00    +0.125 C 
ATOM     26  N   UNL     1      -0.260   2.733  -0.714  0.00  0.00    -0.314 N 
ATOM     27  C   UNL     1      -1.123   2.252  -1.801  0.00  0.00    +0.125 C 
ATOM     28  C   UNL     1      -2.573   2.654  -1.512  0.00  0.00    +0.127 C 
BRANCH  26  29
ATOM     29  C   UNL     1       1.036   2.250  -0.856  0.00  0.00    +0.099 A 
ATOM     30  C   UNL     1       1.255   0.879  -0.949  0.00  0.00    +0.042 A 
ATOM     31  C   UNL     1       2.548   0.413  -1.095  0.00  0.00    +0.005 A 
ATOM     32  C   UNL     1       3.584   1.336  -1.146  0.00  0.00    +0.018 A 
ATOM     33  C   UNL     1       3.295   2.682  -1.048  0.00  0.00    +0.084 A 
ATOM     34  N   UNL     1       2.037   3.177  -0.903  0.00  0.00    -0.350 N 
ATOM     35  H   UNL     1       1.851   4.184  -0.833  0.00  0.00    +0.166 HD
ENDBRANCH  26  29
ENDBRANCH  20  21
ENDBRANCH  19  20
ENDBRANCH   1  19
TORSDOF 9
