REMARK  Name = ZINC40723948
REMARK  3 active torsions:
REMARK  status: ('A' for Active; 'I' for Inactive)
REMARK    1  A    between atoms: C_1  and  C_2
REMARK    2  A    between atoms: C_13  and  N_19
REMARK    3  A    between atoms: C_14  and  N_18
REMARK                            x       y       z     vdW  Elec       q    Type
REMARK                         _______ _______ _______ _____ _____    ______ ____
ROOT
ATOM      1  C   UNL     1      -0.018   1.503   0.010  0.00  0.00    +0.046 C 
ATOM      2  C   UNL     1       0.002  -0.004   0.002  0.00  0.00    -0.024 A 
ATOM      3  C   UNL     1       0.006  -0.675  -1.193  0.00  0.00    +0.005 A 
ATOM      4  C   UNL     1       0.025  -2.061  -1.246  0.00  0.00    +0.001 A 
ATOM      5  C   UNL     1       0.040  -2.784  -0.066  0.00  0.00    +0.017 A 
ATOM      6  C   UNL     1       0.037  -2.120   1.134  0.00  0.00    +0.041 A 
ATOM      7  C   UNL     1       0.023  -0.710   1.227  0.00  0.00    +0.083 A 
ATOM      8  N   UNL     1       0.028  -0.205   2.480  0.00  0.00    -0.224 NA
ATOM      9  C   UNL     1       0.048  -0.970   3.548  0.00  0.00    +0.165 A 
ATOM     10  S   UNL     1       0.052  -2.611   2.842  0.00  0.00    -0.052 S 
ATOM     11  N   UNL     1       0.056  -0.599   4.879  0.00  0.00    -0.277 N 
ATOM     12  C   UNL     1       0.078  -1.573   5.873  0.00  0.00    +0.150 A 
ATOM     13  C   UNL     1       0.080  -1.210   7.221  0.00  0.00    +0.105 A 
ATOM     14  C   UNL     1       0.103  -2.228   8.177  0.00  0.00    +0.142 A 
ATOM     15  N   UNL     1       0.123  -3.494   7.770  0.00  0.00    -0.219 NA
ATOM     16  C   UNL     1       0.121  -3.793   6.487  0.00  0.00    +0.225 A 
ATOM     17  N   UNL     1       0.093  -2.864   5.553  0.00  0.00    -0.219 NA
ATOM     18  H   UNL     1       0.045   0.341   5.121  0.00  0.00    +0.156 HD
ENDROOT
BRANCH  14  19
ATOM     19  N   UNL     1       0.106  -1.922   9.533  0.00  0.00    -0.342 N 
ATOM     20  H   UNL     1       0.092  -0.996   9.821  0.00  0.00    +0.144 HD
ATOM     21  H   UNL     1       0.123  -2.635  10.190  0.00  0.00    +0.144 HD
ENDBRANCH  14  19
BRANCH  13  22
ATOM     22  N   UNL     1       0.059   0.140   7.604  0.00  0.00    -0.353 N 
ATOM     23  H   UNL     1       0.043   0.836   6.929  0.00  0.00    +0.143 HD
ATOM     24  H   UNL     1       0.060   0.377   8.545  0.00  0.00    +0.143 HD
ENDBRANCH  13  22
TORSDOF 2
