REMARK  Name = ZINC00707055
REMARK  10 active torsions:
REMARK  status: ('A' for Active; 'I' for Inactive)
REMARK    1  A    between atoms: C_1  and  C_2
REMARK    2  A    between atoms: C_4  and  C_18
REMARK    3  A    between atoms: C_5  and  C_17
REMARK    4  A    between atoms: N_6  and  C_7
REMARK    5  A    between atoms: C_10  and  C_13
REMARK    6  A    between atoms: C_13  and  O_15
REMARK    7  A    between atoms: O_15  and  C_16
REMARK    8  A    between atoms: C_18  and  C_20
REMARK    9  A    between atoms: C_20  and  S_21
REMARK   10  A    between atoms: S_21  and  C_22
REMARK                            x       y       z     vdW  Elec       q    Type
REMARK                         _______ _______ _______ _____ _____    ______ ____
ROOT
ATOM      1  C   UNL     1      -5.690   3.148   2.351  0.00  0.00    +0.064 C 
ATOM      2  C   UNL     1      -5.848   3.928   1.071  0.00  0.00    +0.022 A 
ATOM      3  C   UNL     1      -6.903   4.695   0.753  0.00  0.00    +0.034 A 
ATOM      4  C   UNL     1      -6.624   5.254  -0.577  0.00  0.00    +0.039 A 
ATOM      5  C   UNL     1      -5.387   4.760  -0.945  0.00  0.00    +0.031 A 
ATOM      6  N   UNL     1      -4.940   3.966   0.049  0.00  0.00    -0.317 N 
ATOM      7  C   UNL     1      -4.664   5.055  -2.234  0.00  0.00    +0.064 C 
ENDROOT
BRANCH   6   8
ATOM      8  C   UNL     1      -3.720   3.284   0.038  0.00  0.00    +0.047 A 
ATOM      9  C   UNL     1      -3.704   1.893   0.030  0.00  0.00    +0.027 A 
ATOM     10  C   UNL     1      -2.504   1.218   0.021  0.00  0.00    +0.017 A 
ATOM     11  C   UNL     1      -1.302   1.931   0.019  0.00  0.00    +0.059 A 
ATOM     12  C   UNL     1      -1.323   3.328   0.032  0.00  0.00    +0.017 A 
ATOM     13  C   UNL     1      -2.526   3.997   0.037  0.00  0.00    +0.027 A 
BRANCH  11  14
ATOM     14  C   UNL     1      -0.014   1.211   0.009  0.00  0.00    +0.339 C 
ATOM     15  O   UNL     1       0.002  -0.004   0.002  0.00  0.00    -0.245 OA
BRANCH  14  16
ATOM     16  O   UNL     1       1.143   1.900   0.001  0.00  0.00    -0.464 OA
ATOM     17  C   UNL     1       2.372   1.126  -0.015  0.00  0.00    +0.280 C 
ENDBRANCH  14  16
ENDBRANCH  11  14
ENDBRANCH   6   8
BRANCH   4  18
ATOM     18  C   UNL     1      -7.479   6.155  -1.353  0.00  0.00    +0.175 C 
ATOM     19  O   UNL     1      -7.121   6.541  -2.446  0.00  0.00    -0.291 OA
BRANCH  18  20
ATOM     20  C   UNL     1      -8.805   6.602  -0.793  0.00  0.00    +0.157 C 
BRANCH  20  21
ATOM     21  S   UNL     1      -9.622   7.703  -1.982  0.00  0.00    -0.078 S 
BRANCH  21  22
ATOM     22  C   UNL     1     -11.137   8.133  -1.192  0.00  0.00    +0.197 A 
ATOM     23  N   UNL     1     -11.530   7.715  -0.017  0.00  0.00    -0.121 NA
ATOM     24  N   UNL     1     -12.782   8.285   0.251  0.00  0.00    -0.121 NA
ATOM     25  C   UNL     1     -13.105   9.018  -0.772  0.00  0.00    +0.202 A 
ATOM     26  N   UNL     1     -12.114   8.966  -1.716  0.00  0.00    -0.264 N 
ATOM     27  C   UNL     1     -12.289   9.702  -2.898  0.00  0.00    +0.065 A 
ATOM     28  C   UNL     1     -11.392   9.776  -3.976  0.00  0.00    +0.027 A 
ATOM     29  C   UNL     1     -11.684  10.538  -5.083  0.00  0.00    +0.002 A 
ATOM     30  C   UNL     1     -12.867  11.253  -5.171  0.00  0.00    +0.001 A 
ATOM     31  C   UNL     1     -13.768  11.197  -4.123  0.00  0.00    +0.017 A 
ATOM     32  C   UNL     1     -13.474  10.434  -3.016  0.00  0.00    +0.040 A 
ATOM     33  S   UNL     1     -14.323  10.093  -1.493  0.00  0.00    -0.048 S 
ENDBRANCH  21  22
ENDBRANCH  20  21
ENDBRANCH  18  20
ENDBRANCH   4  18
TORSDOF 7
