REMARK  Name = ZINC51699980
REMARK  5 active torsions:
REMARK  status: ('A' for Active; 'I' for Inactive)
REMARK    1  A    between atoms: C_1  and  O_2
REMARK    2  A    between atoms: O_2  and  C_3
REMARK    3  A    between atoms: C_3  and  C_4
REMARK    4  A    between atoms: C_6  and  N_16
REMARK    5  A    between atoms: N_16  and  N_17
REMARK                            x       y       z     vdW  Elec       q    Type
REMARK                         _______ _______ _______ _____ _____    ______ ____
ROOT
ATOM      1  C   UNL     1       0.577  -2.075  -1.064  0.00  0.00    +0.069 A 
ATOM      2  C   UNL     1      -0.042  -2.666   0.029  0.00  0.00    +0.050 A 
ATOM      3  C   UNL     1      -0.047  -4.047   0.151  0.00  0.00    +0.053 A 
ATOM      4  C   UNL     1       0.590  -4.803  -0.861  0.00  0.00    +0.037 A 
ATOM      5  C   UNL     1       0.627  -6.205  -0.810  0.00  0.00    +0.029 A 
ATOM      6  C   UNL     1       1.250  -6.899  -1.805  0.00  0.00    +0.017 A 
ATOM      7  C   UNL     1       1.850  -6.233  -2.871  0.00  0.00    +0.018 A 
ATOM      8  C   UNL     1       1.832  -4.873  -2.950  0.00  0.00    +0.044 A 
ATOM      9  C   UNL     1       1.198  -4.124  -1.943  0.00  0.00    +0.088 A 
ATOM     10  N   UNL     1       1.160  -2.788  -1.999  0.00  0.00    -0.248 NA
ATOM     11 BR   UNL     1       2.656  -3.997  -4.409  0.00  0.00    -0.048 Br
ATOM     12 BR   UNL     1      -0.181  -7.126   0.630  0.00  0.00    -0.050 Br
ENDROOT
BRANCH   3  13
ATOM     13  N   UNL     1      -0.657  -4.667   1.232  0.00  0.00    -0.282 N 
ATOM     14  H   UNL     1      -0.742  -5.633   1.251  0.00  0.00    +0.166 HD
BRANCH  13  15
ATOM     15  N   UNL     1      -1.137  -3.917   2.268  0.00  0.00    -0.256 NA
ATOM     16  H   UNL     1      -1.795  -3.227   1.940  0.00  0.00    +0.140 HD
ATOM     17  H   UNL     1      -1.551  -4.504   2.977  0.00  0.00    +0.140 HD
ENDBRANCH  13  15
ENDBRANCH   3  13
BRANCH   1  18
ATOM     18  C   UNL     1       0.573  -0.573  -1.183  0.00  0.00    +0.214 C 
BRANCH  18  20
ATOM     19  C   UNL     1      -0.172   1.420  -0.080  0.00  0.00    +0.194 C 
ATOM     20  O   UNL     1      -0.111  -0.007  -0.064  0.00  0.00    -0.377 OA
ENDBRANCH  18  20
ENDBRANCH   1  18
TORSDOF 4
