REMARK  Name = ZINC64197106
REMARK  11 active torsions:
REMARK  status: ('A' for Active; 'I' for Inactive)
REMARK    1  A    between atoms: C_1  and  O_2
REMARK    2  A    between atoms: O_2  and  C_3
REMARK    3  A    between atoms: C_7  and  N_9
REMARK    4  A    between atoms: C_10  and  S_15
REMARK    5  A    between atoms: S_15  and  C_16
REMARK    6  A    between atoms: C_16  and  C_17
REMARK    7  A    between atoms: N_19  and  C_20
REMARK    8  A    between atoms: C_20  and  C_21
REMARK    9  A    between atoms: C_21  and  C_22
REMARK   10  A    between atoms: C_26  and  O_31
REMARK   11  A    between atoms: O_31  and  C_32
REMARK                            x       y       z     vdW  Elec       q    Type
REMARK                         _______ _______ _______ _____ _____    ______ ____
ROOT
ATOM      1  C   UNL     1       4.402  -4.941   1.697  0.00  0.00    +0.167 C 
ENDROOT
BRANCH   1   2
ATOM      2  C   UNL     1       5.888  -4.698   1.615  0.00  0.00    +0.223 C 
ATOM      3  O   UNL     1       6.482  -4.252   2.573  0.00  0.00    -0.275 OA
ATOM      4  N   UNL     1       6.554  -4.978   0.478  0.00  0.00    -0.314 N 
ATOM      5  H   UNL     1       6.079  -5.335  -0.288  0.00  0.00    +0.149 HD
BRANCH   4   6
ATOM      6  C   UNL     1       7.998  -4.742   0.399  0.00  0.00    +0.108 C 
BRANCH   6   7
ATOM      7  C   UNL     1       8.505  -5.140  -0.989  0.00  0.00    +0.052 C 
BRANCH   7   8
ATOM      8  C   UNL     1       9.990  -4.898  -1.070  0.00  0.00    -0.040 C 
ATOM      9  C   UNL     1      10.972  -5.800  -0.855  0.00  0.00    -0.001 A 
ATOM     10  C   UNL     1      10.951  -7.224  -0.495  0.00  0.00    +0.013 A 
ATOM     11  C   UNL     1      12.122  -7.880  -0.345  0.00  0.00    +0.046 A 
ATOM     12  C   UNL     1      13.359  -7.234  -0.524  0.00  0.00    +0.122 A 
ATOM     13  C   UNL     1      13.455  -5.921  -0.858  0.00  0.00    +0.071 A 
ATOM     14  C   UNL     1      12.286  -5.141  -1.040  0.00  0.00    +0.046 A 
ATOM     15  N   UNL     1      12.120  -3.878  -1.357  0.00  0.00    -0.380 N 
ATOM     16  C   UNL     1      10.681  -3.598  -1.415  0.00  0.00    +0.144 C 
ATOM     17  H   UNL     1      12.829  -3.239  -1.528  0.00  0.00    +0.160 HD
BRANCH  12  18
ATOM     18  O   UNL     1      14.499  -7.949  -0.358  0.00  0.00    -0.495 OA
ATOM     19  C   UNL     1      14.355  -9.327  -0.007  0.00  0.00    +0.277 C 
ENDBRANCH  12  18
ENDBRANCH   7   8
ENDBRANCH   6   7
ENDBRANCH   4   6
ENDBRANCH   1   2
BRANCH   1  20
ATOM     20  S   UNL     1       3.802  -4.469   3.342  0.00  0.00    -0.114 S 
BRANCH  20  22
ATOM     21  N   UNL     1       1.388  -4.020   2.213  0.00  0.00    -0.254 N 
ATOM     22  C   UNL     1       2.023  -4.817   3.277  0.00  0.00    +0.203 C 
ATOM     23  N   UNL     1       1.790  -6.236   2.910  0.00  0.00    -0.320 NA
ATOM     24  N   UNL     1       0.629  -6.150   2.007  0.00  0.00    +0.411 N 
ATOM     25  N   UNL     1       0.864  -4.893   1.289  0.00  0.00    -0.265 NA
ATOM     26  H   UNL     1       2.591  -6.622   2.433  0.00  0.00    +0.106 HD
ATOM     27  H   UNL     1       0.614  -6.931   1.369  0.00  0.00    -0.031 HD
ATOM     28  H   UNL     1       1.502  -5.032   0.521  0.00  0.00    +0.125 HD
ATOM     29  H   UNL     1      -0.231  -6.101   2.534  0.00  0.00    -0.031 HD
BRANCH  21  34
ATOM     30  C   UNL     1       0.626  -0.618   1.042  0.00  0.00    +0.122 A 
ATOM     31  C   UNL     1       1.202   0.140   2.051  0.00  0.00    +0.046 A 
ATOM     32  C   UNL     1       1.837  -0.483   3.109  0.00  0.00    +0.005 A 
ATOM     33  C   UNL     1       1.900  -1.862   3.165  0.00  0.00    +0.025 A 
ATOM     34  C   UNL     1       1.325  -2.626   2.157  0.00  0.00    +0.049 A 
ATOM     35  C   UNL     1       0.682  -2.002   1.097  0.00  0.00    +0.070 A 
BRANCH  30  37
ATOM     36  C   UNL     1      -0.017   1.425   0.010  0.00  0.00    +0.277 C 
ATOM     37  O   UNL     1       0.002  -0.004   0.002  0.00  0.00    -0.495 OA
ENDBRANCH  30  37
ENDBRANCH  21  34
ENDBRANCH  20  22
ENDBRANCH   1  20
TORSDOF 9
