REMARK  Name = ZINC39605474
REMARK  6 active torsions:
REMARK  status: ('A' for Active; 'I' for Inactive)
REMARK    1  A    between atoms: C_1  and  C_2
REMARK    2  A    between atoms: C_4  and  C_8
REMARK    3  A    between atoms: C_11  and  S_19
REMARK    4  A    between atoms: N_12  and  C_13
REMARK    5  A    between atoms: S_19  and  C_20
REMARK    6  A    between atoms: C_20  and  C_21
REMARK                            x       y       z     vdW  Elec       q    Type
REMARK                         _______ _______ _______ _____ _____    ______ ____
ROOT
ATOM      1  C   UNL     1       0.040  -3.318  -1.580  0.00  0.00    +0.187 A 
ATOM      2  N   UNL     1      -0.233  -3.356  -2.865  0.00  0.00    -0.126 NA
ATOM      3  N   UNL     1      -0.127  -4.560  -3.302  0.00  0.00    -0.122 NA
ATOM      4  C   UNL     1       0.222  -5.367  -2.325  0.00  0.00    +0.196 A 
ATOM      5  N   UNL     1       0.346  -4.606  -1.194  0.00  0.00    -0.269 N 
ENDROOT
BRANCH   1   9
ATOM      6  C   UNL     1      -0.018   1.503   0.010  0.00  0.00    +0.067 C 
ATOM      7  C   UNL     1       0.002  -0.004   0.002  0.00  0.00    +0.060 A 
ATOM      8  C   UNL     1       0.008  -0.810  -1.135  0.00  0.00    +0.055 A 
ATOM      9  C   UNL     1       0.028  -2.124  -0.717  0.00  0.00    +0.103 A 
ATOM     10  N   UNL     1       0.034  -2.110   0.648  0.00  0.00    -0.274 N 
ATOM     11  H   UNL     1       0.047  -2.888   1.228  0.00  0.00    +0.189 HD
ATOM     12  N   UNL     1       0.023  -0.772   1.062  0.00  0.00    -0.179 NA
ENDBRANCH   1   9
BRANCH   5  13
ATOM     13  C   UNL     1       0.706  -5.044   0.087  0.00  0.00    +0.051 A 
ATOM     14  C   UNL     1       1.888  -4.603   0.667  0.00  0.00    +0.026 A 
ATOM     15  C   UNL     1       2.240  -5.036   1.931  0.00  0.00    +0.002 A 
ATOM     16  C   UNL     1       1.416  -5.908   2.618  0.00  0.00    +0.000 A 
ATOM     17  C   UNL     1       0.239  -6.350   2.043  0.00  0.00    +0.002 A 
ATOM     18  C   UNL     1      -0.121  -5.916   0.782  0.00  0.00    +0.026 A 
ENDBRANCH   5  13
BRANCH   4  19
ATOM     19  S   UNL     1       0.486  -7.105  -2.449  0.00  0.00    -0.084 S 
BRANCH  19  20
ATOM     20  C   UNL     1       0.168  -7.474  -4.196  0.00  0.00    +0.103 C 
BRANCH  20  21
ATOM     21  C   UNL     1       0.365  -8.970  -4.446  0.00  0.00    +0.129 C 
ATOM     22  C   UNL     1       0.168  -9.302  -5.913  0.00  0.00    +0.035 C 
ATOM     23  C   UNL     1       1.152 -10.093  -6.284  0.00  0.00    +0.214 C 
ATOM     24  O   UNL     1       2.005 -10.365  -5.268  0.00  0.00    -0.414 OA
ATOM     25  N   UNL     1       1.778  -9.364  -4.206  0.00  0.00    -0.148 NA
ATOM     26  H   UNL     1       1.889  -9.772  -3.290  0.00  0.00    +0.168 HD
ENDBRANCH  20  21
ENDBRANCH  19  20
ENDBRANCH   4  19
TORSDOF 5
