REMARK  Name = ZINC02641351
REMARK  4 active torsions:
REMARK  status: ('A' for Active; 'I' for Inactive)
REMARK    1  A    between atoms: C_1  and  N_2
REMARK    2  A    between atoms: C_7  and  C_9
REMARK    3  A    between atoms: N_11  and  C_12
REMARK    4  A    between atoms: C_13  and  C_21
REMARK                            x       y       z     vdW  Elec       q    Type
REMARK                         _______ _______ _______ _____ _____    ______ ____
ROOT
ATOM      1  C   UNL     1       1.684   2.069  -0.003  0.00  0.00    +0.085 A 
ATOM      2  C   UNL     1       2.232   0.794  -0.015  0.00  0.00    +0.068 A 
ATOM      3  C   UNL     1       1.312  -0.332  -0.012  0.00  0.00    -0.023 A 
ATOM      4  C   UNL     1       0.002  -0.004   0.002  0.00  0.00    -0.004 A 
ATOM      5  S   UNL     1      -0.022   1.766   0.012  0.00  0.00    -0.077 S 
ATOM      6  C   UNL     1      -1.164  -0.944   0.007  0.00  0.00    +0.043 C 
ATOM      7  C   UNL     1      -0.660  -2.341  -0.383  0.00  0.00    +0.005 C 
ATOM      8  C   UNL     1       0.590  -2.663   0.440  0.00  0.00    +0.005 C 
ATOM      9  C   UNL     1       1.757  -1.789  -0.023  0.00  0.00    +0.037 C 
ENDROOT
BRANCH   2  10
ATOM     10  C   UNL     1       3.683   0.590  -0.030  0.00  0.00    +0.244 C 
ATOM     11  O   UNL     1       4.276   0.510  -1.090  0.00  0.00    -0.270 OA
ATOM     12  N   UNL     1       4.362   0.490   1.131  0.00  0.00    -0.325 N 
ATOM     13  H   UNL     1       3.889   0.553   1.976  0.00  0.00    +0.145 HD
ATOM     14  H   UNL     1       5.322   0.355   1.121  0.00  0.00    +0.145 HD
ENDBRANCH   2  10
BRANCH   1  17
ATOM     15  C   UNL     1       1.634   4.436   0.010  0.00  0.00    +0.269 C 
ATOM     16  O   UNL     1       0.419   4.401   0.022  0.00  0.00    -0.268 OA
ATOM     17  N   UNL     1       2.342   3.288  -0.003  0.00  0.00    -0.274 N 
ATOM     18  H   UNL     1       3.311   3.316  -0.013  0.00  0.00    +0.156 HD
BRANCH  15  25
ATOM     19  C   UNL     1       5.770   6.835  -0.017  0.00  0.00    +0.176 C 
ATOM     20  N   UNL     1       4.306   6.876  -0.003  0.00  0.00    -0.232 N 
ATOM     21  C   UNL     1       3.684   8.070   0.009  0.00  0.00    +0.267 A 
ATOM     22  O   UNL     1       4.336   9.101   0.009  0.00  0.00    -0.266 OA
ATOM     23  C   UNL     1       2.273   8.121   0.023  0.00  0.00    +0.074 A 
ATOM     24  C   UNL     1       1.591   6.941   0.023  0.00  0.00    +0.040 A 
ATOM     25  C   UNL     1       2.336   5.737   0.010  0.00  0.00    +0.146 A 
ATOM     26  N   UNL     1       3.650   5.772   0.002  0.00  0.00    -0.164 NA
ENDBRANCH  15  25
ENDBRANCH   1  17
TORSDOF 3
