REMARK  Name = ZINC38773608
REMARK  5 active torsions:
REMARK  status: ('A' for Active; 'I' for Inactive)
REMARK    1  A    between atoms: C_4  and  C_10
REMARK    2  A    between atoms: C_6  and  N_7
REMARK    3  A    between atoms: N_12  and  C_13
REMARK    4  A    between atoms: C_13  and  C_14
REMARK    5  A    between atoms: C_14  and  N_15
REMARK                            x       y       z     vdW  Elec       q    Type
REMARK                         _______ _______ _______ _____ _____    ______ ____
ROOT
ATOM      1  N   UNL     1       6.022  -4.970  -0.085  0.00  0.00    +0.383 N 
ATOM      2  C   UNL     1       6.725  -4.681  -1.341  0.00  0.00    -0.059 C 
ATOM      3  C   UNL     1       8.111  -5.332  -1.312  0.00  0.00    +0.088 C 
ATOM      4  N   UNL     1       7.947  -6.766  -1.024  0.00  0.00    -0.313 N 
ATOM      5  C   UNL     1       7.118  -7.151   0.128  0.00  0.00    +0.088 C 
ATOM      6  C   UNL     1       5.778  -6.414   0.031  0.00  0.00    -0.059 C 
ATOM      7  C   UNL     1       8.554  -7.722  -1.813  0.00  0.00    +0.162 A 
ATOM      8  N   UNL     1       9.323  -7.555  -2.865  0.00  0.00    -0.225 NA
ATOM      9  C   UNL     1       9.853  -8.594  -3.547  0.00  0.00    +0.080 A 
ATOM     10  C   UNL     1      10.690  -8.553  -4.686  0.00  0.00    +0.030 A 
ATOM     11  C   UNL     1      11.145  -9.710  -5.263  0.00  0.00    +0.022 A 
ATOM     12  C   UNL     1      10.805 -10.956  -4.755  0.00  0.00    +0.042 A 
ATOM     13  C   UNL     1       9.987 -11.033  -3.641  0.00  0.00    +0.037 A 
ATOM     14  C   UNL     1       9.527  -9.879  -3.058  0.00  0.00    +0.042 A 
ATOM     15  S   UNL     1       8.498  -9.502  -1.660  0.00  0.00    -0.052 S 
ATOM     16 CL   UNL     1      11.398 -12.403  -5.510  0.00  0.00    -0.084 Cl
ATOM     17  H   UNL     1       6.587  -4.663   0.692  0.00  0.00    -0.082 HD
ENDROOT
BRANCH   1  18
ATOM     18  C   UNL     1       4.739  -4.256  -0.068  0.00  0.00    -0.060 C 
BRANCH  18  19
ATOM     19  C   UNL     1       4.995  -2.747  -0.062  0.00  0.00    +0.086 C 
BRANCH  19  22
ATOM     20  C   UNL     1       3.694  -0.687  -0.038  0.00  0.00    +0.245 C 
ATOM     21  O   UNL     1       4.738  -0.063  -0.046  0.00  0.00    -0.270 OA
ATOM     22  N   UNL     1       3.715  -2.034  -0.046  0.00  0.00    -0.313 N 
ATOM     23  H   UNL     1       2.883  -2.532  -0.040  0.00  0.00    +0.149 HD
BRANCH  20  27
ATOM     24  C   UNL     1      -0.017   1.380   0.010  0.00  0.00    +0.034 A 
ATOM     25  C   UNL     1       1.168   2.094   0.002  0.00  0.00    +0.023 A 
ATOM     26  C   UNL     1       2.378   1.429  -0.013  0.00  0.00    +0.053 A 
ATOM     27  C   UNL     1       2.404   0.032  -0.021  0.00  0.00    +0.057 A 
ATOM     28  C   UNL     1       1.204  -0.681  -0.013  0.00  0.00    +0.047 A 
ATOM     29  C   UNL     1       0.002  -0.004   0.002  0.00  0.00    +0.127 A 
ATOM     30 CL   UNL     1       3.864   2.327  -0.024  0.00  0.00    -0.083 Cl
BRANCH  29  31
ATOM     31  N   UNL     1      -1.271  -0.759   0.011  0.00  0.00    +0.056 N 
ATOM     32  O   UNL     1      -2.325  -0.168   0.024  0.00  0.00    -0.126 OA
ATOM     33  O   UNL     1      -1.256  -1.968   0.004  0.00  0.00    -0.126 OA
ENDBRANCH  29  31
ENDBRANCH  20  27
ENDBRANCH  19  22
ENDBRANCH  18  19
ENDBRANCH   1  18
TORSDOF 5
