REMARK  Name = ZINC62200758
REMARK  7 active torsions:
REMARK  status: ('A' for Active; 'I' for Inactive)
REMARK    1  A    between atoms: C_1  and  C_2
REMARK    2  A    between atoms: C_2  and  C_3
REMARK    3  A    between atoms: C_5  and  C_15
REMARK    4  A    between atoms: C_12  and  C_13
REMARK    5  A    between atoms: C_12  and  C_14
REMARK    6  A    between atoms: C_15  and  C_16
REMARK    7  A    between atoms: C_16  and  N_17
REMARK                            x       y       z     vdW  Elec       q    Type
REMARK                         _______ _______ _______ _____ _____    ______ ____
ROOT
ATOM      1  C   UNL     1       0.707  -0.490  -1.238  0.00  0.00    -0.026 A 
ATOM      2  C   UNL     1      -0.023  -0.816  -2.362  0.00  0.00    +0.009 A 
ATOM      3  C   UNL     1       0.615  -1.264  -3.505  0.00  0.00    -0.048 A 
ATOM      4  C   UNL     1       1.994  -1.384  -3.521  0.00  0.00    +0.010 A 
ATOM      5  C   UNL     1       2.725  -1.059  -2.401  0.00  0.00    -0.011 A 
ATOM      6  C   UNL     1       2.096  -0.604  -1.248  0.00  0.00    +0.041 A 
ATOM      7  N   UNL     1       3.041  -0.335  -0.258  0.00  0.00    -0.284 N 
ATOM      8  C   UNL     1       4.296  -0.578  -0.672  0.00  0.00    +0.227 C 
ATOM      9  O   UNL     1       5.310  -0.433  -0.022  0.00  0.00    -0.275 OA
ATOM     10  C   UNL     1       4.205  -1.079  -2.098  0.00  0.00    +0.068 C 
ATOM     11  C   UNL     1       4.758  -2.501  -2.217  0.00  0.00    +0.025 C 
ATOM     12  C   UNL     1       4.957  -0.130  -3.034  0.00  0.00    +0.025 C 
ATOM     13  H   UNL     1       2.817  -0.009   0.628  0.00  0.00    +0.155 HD
ENDROOT
BRANCH   1  15
ATOM     14  C   UNL     1      -0.019   1.526   0.010  0.00  0.00    +0.009 C 
ATOM     15  C   UNL     1       0.002  -0.004   0.002  0.00  0.00    +0.033 C 
ENDBRANCH   1  15
BRANCH   3  16
ATOM     16  C   UNL     1      -0.189  -1.619  -4.729  0.00  0.00    +0.015 C 
BRANCH  16  17
ATOM     17  C   UNL     1      -0.348  -0.380  -5.612  0.00  0.00    -0.082 C 
BRANCH  17  18
ATOM     18  N   UNL     1      -1.131  -0.726  -6.805  0.00  0.00    +0.378 N 
ATOM     19  H   UNL     1      -0.654  -1.449  -7.323  0.00  0.00    -0.090 HD
ATOM     20  H   UNL     1      -2.042  -1.058  -6.525  0.00  0.00    -0.090 HD
ATOM     21  H   UNL     1      -1.236   0.091  -7.388  0.00  0.00    -0.090 HD
ENDBRANCH  17  18
ENDBRANCH  16  17
ENDBRANCH   3  16
TORSDOF 4
