REMARK  Name = ZINC61122153
REMARK  3 active torsions:
REMARK  status: ('A' for Active; 'I' for Inactive)
REMARK    1  A    between atoms: C_3  and  N_21
REMARK    2  A    between atoms: C_6  and  C_7
REMARK    3  A    between atoms: N_11  and  C_12
REMARK                            x       y       z     vdW  Elec       q    Type
REMARK                         _______ _______ _______ _____ _____    ______ ____
ROOT
ATOM      1  C   UNL     1      -1.243  -0.907   0.331  0.00  0.00    +0.187 A 
ATOM      2  N   UNL     1      -2.433  -0.393   0.565  0.00  0.00    -0.108 NA
ATOM      3  N   UNL     1      -3.352  -1.140   0.069  0.00  0.00    -0.022 NA
ATOM      4  N   UNL     1      -2.836  -2.170  -0.509  0.00  0.00    -0.039 NA
ATOM      5  N   UNL     1      -1.441  -2.061  -0.369  0.00  0.00    -0.190 N 
ENDROOT
BRANCH   5   6
ATOM      6  C   UNL     1      -0.465  -2.948  -0.845  0.00  0.00    +0.110 A 
ATOM      7  C   UNL     1       0.519  -2.498  -1.715  0.00  0.00    +0.069 A 
ATOM      8  C   UNL     1       1.482  -3.375  -2.182  0.00  0.00    +0.128 A 
ATOM      9  C   UNL     1       1.465  -4.701  -1.784  0.00  0.00    +0.079 A 
ATOM     10  C   UNL     1       0.486  -5.153  -0.916  0.00  0.00    +0.163 A 
ATOM     11  C   UNL     1      -0.477  -4.278  -0.441  0.00  0.00    +0.184 A 
ATOM     12  F   UNL     1      -1.430  -4.717   0.410  0.00  0.00    -0.200 F 
ATOM     13  F   UNL     1       0.472  -6.447  -0.529  0.00  0.00    -0.202 F 
ATOM     14  F   UNL     1       2.439  -2.937  -3.029  0.00  0.00    -0.205 F 
ENDBRANCH   5   6
BRANCH   1  20
ATOM     15  C   UNL     1       0.156   1.013   1.079  0.00  0.00    +0.013 A 
ATOM     16  C   UNL     1       1.370   1.540   1.463  0.00  0.00    +0.023 A 
ATOM     17  C   UNL     1       2.498   0.727   1.514  0.00  0.00    +0.025 A 
ATOM     18  C   UNL     1       2.403  -0.620   1.178  0.00  0.00    +0.023 A 
ATOM     19  C   UNL     1       1.192  -1.152   0.793  0.00  0.00    +0.013 A 
ATOM     20  C   UNL     1       0.058  -0.338   0.742  0.00  0.00    +0.021 A 
BRANCH  17  21
ATOM     21  N   UNL     1       3.725   1.263   1.903  0.00  0.00    -0.358 N 
ATOM     22  H   UNL     1       3.792   2.201   2.137  0.00  0.00    +0.142 HD
ATOM     23  H   UNL     1       4.511   0.697   1.938  0.00  0.00    +0.142 HD
ENDBRANCH  17  21
ENDBRANCH   1  20
TORSDOF 3
