REMARK  Name = ZINC06664236
REMARK  6 active torsions:
REMARK  status: ('A' for Active; 'I' for Inactive)
REMARK    1  A    between atoms: C_1  and  C_2
REMARK    2  A    between atoms: C_3  and  C_29
REMARK    3  A    between atoms: C_11  and  O_13
REMARK    4  A    between atoms: O_13  and  C_14
REMARK    5  A    between atoms: C_14  and  C_15
REMARK    6  A    between atoms: C_15  and  N_17
REMARK                            x       y       z     vdW  Elec       q    Type
REMARK                         _______ _______ _______ _____ _____    ______ ____
ROOT
ATOM      1  O   UNL     1       0.123  -2.950   4.747  0.00  0.00    -0.481 OA
ENDROOT
BRANCH   1  12
ATOM      2  C   UNL     1       0.061   1.498   0.002  0.00  0.00    +0.045 C 
ATOM      3  C   UNL     1       0.065  -0.009  -0.005  0.00  0.00    -0.030 A 
ATOM      4  C   UNL     1       0.061  -0.702  -1.173  0.00  0.00    +0.037 A 
ATOM      5  C   UNL     1       0.066  -2.112  -1.153  0.00  0.00    +0.340 A 
ATOM      6  O   UNL     1       0.062  -2.720  -2.208  0.00  0.00    -0.245 OA
ATOM      7  O   UNL     1       0.075  -2.800  -0.001  0.00  0.00    -0.422 OA
ATOM      8  C   UNL     1       0.079  -2.173   1.195  0.00  0.00    +0.143 A 
ATOM      9  C   UNL     1       0.080  -0.767   1.248  0.00  0.00    +0.022 A 
ATOM     10  C   UNL     1       0.090  -0.113   2.486  0.00  0.00    +0.035 A 
ATOM     11  C   UNL     1       0.104  -0.844   3.639  0.00  0.00    +0.083 A 
ATOM     12  C   UNL     1       0.109  -2.237   3.592  0.00  0.00    +0.143 A 
ATOM     13  C   UNL     1       0.088  -2.900   2.376  0.00  0.00    +0.094 A 
ATOM     14 CL   UNL     1       0.117  -0.033   5.174  0.00  0.00    -0.080 Cl
ATOM     15  C   UNL     1       0.051   0.035  -2.488  0.00  0.00    +0.051 C 
ENDBRANCH   1  12
BRANCH   1  16
ATOM     16  C   UNL     1       0.127  -4.375   4.630  0.00  0.00    +0.326 C 
BRANCH  16  17
ATOM     17  C   UNL     1       0.144  -4.991   6.005  0.00  0.00    +0.277 C 
ATOM     18  O   UNL     1       0.151  -4.279   6.991  0.00  0.00    -0.270 OA
BRANCH  17  19
ATOM     19  N   UNL     1       0.150  -6.314   6.141  0.00  0.00    -0.144 NA
ATOM     20  C   UNL     1       0.270  -6.858   7.349  0.00  0.00    +0.199 A 
ATOM     21  N   UNL     1       0.277  -6.174   8.523  0.00  0.00    -0.326 N 
ATOM     22  H   UNL     1       0.196  -5.213   8.621  0.00  0.00    +0.169 HD
ATOM     23  C   UNL     1       0.420  -7.090   9.560  0.00  0.00    +0.065 A 
ATOM     24  C   UNL     1       0.488  -6.956  10.940  0.00  0.00    +0.028 A 
ATOM     25  C   UNL     1       0.634  -8.077  11.733  0.00  0.00    +0.002 A 
ATOM     26  C   UNL     1       0.714  -9.334  11.159  0.00  0.00    +0.002 A 
ATOM     27  C   UNL     1       0.648  -9.478   9.787  0.00  0.00    +0.028 A 
ATOM     28  C   UNL     1       0.500  -8.359   8.981  0.00  0.00    +0.065 A 
ATOM     29  N   UNL     1       0.399  -8.187   7.604  0.00  0.00    -0.326 N 
ATOM     30  H   UNL     1       0.419  -8.894   6.940  0.00  0.00    +0.169 HD
ENDBRANCH  17  19
ENDBRANCH  16  17
ENDBRANCH   1  16
TORSDOF 4
