REMARK  Name = ZINC38605014
REMARK  7 active torsions:
REMARK  status: ('A' for Active; 'I' for Inactive)
REMARK    1  A    between atoms: C_1  and  C_2
REMARK    2  A    between atoms: C_2  and  C_4
REMARK    3  A    between atoms: C_2  and  N_22
REMARK    4  A    between atoms: N_6  and  C_7
REMARK    5  A    between atoms: C_15  and  C_17
REMARK    6  A    between atoms: C_17  and  O_19
REMARK    7  A    between atoms: O_19  and  C_20
REMARK                            x       y       z     vdW  Elec       q    Type
REMARK                         _______ _______ _______ _____ _____    ______ ____
ROOT
ATOM      1  C   UNL     1      -3.637  -0.422   0.990  0.00  0.00    +0.053 C 
ATOM      2  C   UNL     1      -4.719  -0.131   1.802  0.00  0.00    +0.019 A 
ATOM      3  C   UNL     1      -4.868   0.718   2.926  0.00  0.00    +0.026 A 
ATOM      4  C   UNL     1      -6.073   0.811   3.542  0.00  0.00    +0.019 A 
ATOM      5  C   UNL     1      -7.182   0.087   3.095  0.00  0.00    +0.017 A 
ATOM      6  C   UNL     1      -7.112  -0.744   2.027  0.00  0.00    +0.027 A 
ATOM      7  C   UNL     1      -5.886  -0.895   1.330  0.00  0.00    +0.045 A 
ATOM      8  N   UNL     1      -5.563  -1.626   0.282  0.00  0.00    -0.367 N 
ATOM      9  C   UNL     1      -4.149  -1.406  -0.038  0.00  0.00    +0.234 C 
ATOM     10 BR   UNL     1      -6.256   1.948   5.042  0.00  0.00    -0.050 Br
ATOM     11  H   UNL     1      -6.165  -2.213  -0.202  0.00  0.00    +0.161 HD
ENDROOT
BRANCH   1  14
ATOM     12  C   UNL     1      -1.389  -0.413   0.313  0.00  0.00    +0.203 C 
ATOM     13  O   UNL     1      -1.605  -1.364  -0.409  0.00  0.00    -0.277 OA
ATOM     14  N   UNL     1      -2.373   0.077   1.092  0.00  0.00    -0.288 N 
ATOM     15  H   UNL     1      -2.182   0.787   1.726  0.00  0.00    +0.155 HD
BRANCH  12  17
ATOM     16  C   UNL     1      -0.093   1.615  -0.283  0.00  0.00    -0.004 C 
ATOM     17  C   UNL     1      -0.021   0.219   0.338  0.00  0.00    +0.016 C 
BRANCH  17  18
ATOM     18  N   UNL     1       0.916  -0.612  -0.429  0.00  0.00    +0.388 N 
ATOM     19  C   UNL     1       2.277  -0.109  -0.229  0.00  0.00    -0.067 C 
ATOM     20  C   UNL     1       3.293  -1.155  -0.701  0.00  0.00    +0.050 C 
ATOM     21  S   UNL     1       3.047  -1.427  -2.484  0.00  0.00    -0.164 S 
ATOM     22  C   UNL     1       1.252  -1.705  -2.600  0.00  0.00    +0.050 C 
ATOM     23  C   UNL     1       0.541  -0.577  -1.844  0.00  0.00    -0.067 C 
ATOM     24  H   UNL     1       0.864  -1.563  -0.097  0.00  0.00    -0.081 HD
ENDBRANCH  17  18
ENDBRANCH  12  17
ENDBRANCH   1  14
BRANCH   9  25
ATOM     25  C   UNL     1      -4.011  -0.828  -1.423  0.00  0.00    +0.335 C 
ATOM     26  O   UNL     1      -4.904  -0.160  -1.891  0.00  0.00    -0.248 OA
BRANCH  25  27
ATOM     27  O   UNL     1      -2.898  -1.054  -2.138  0.00  0.00    -0.466 OA
ATOM     28  C   UNL     1      -2.835  -0.476  -3.443  0.00  0.00    +0.280 C 
ENDBRANCH  25  27
ENDBRANCH   9  25
TORSDOF 5
