REMARK  Name = ZINC20653434
REMARK  7 active torsions:
REMARK  status: ('A' for Active; 'I' for Inactive)
REMARK    1  A    between atoms: C_1  and  C_2
REMARK    2  A    between atoms: C_5  and  C_8
REMARK    3  A    between atoms: C_8  and  C_13
REMARK    4  A    between atoms: C_15  and  C_18
REMARK    5  A    between atoms: C_18  and  N_19
REMARK    6  A    between atoms: C_26  and  C_32
REMARK    7  A    between atoms: C_29  and  C_31
REMARK                            x       y       z     vdW  Elec       q    Type
REMARK                         _______ _______ _______ _____ _____    ______ ____
ROOT
ATOM      1  C   UNL     1      -0.026   0.998  -0.071  0.00  0.00    +0.182 A 
ATOM      2  N   UNL     1      -0.008  -0.346  -0.081  0.00  0.00    -0.197 NA
ATOM      3  C   UNL     1       1.259  -0.682  -0.111  0.00  0.00    +0.211 A 
ATOM      4  O   UNL     1       1.962   0.454  -0.118  0.00  0.00    -0.340 OA
ATOM      5  N   UNL     1       1.208   1.404  -0.095  0.00  0.00    -0.060 NA
ENDROOT
BRANCH   1   6
ATOM      6  C   UNL     1      -1.252   1.874  -0.044  0.00  0.00    +0.059 C 
ATOM      7  C   UNL     1      -2.088   1.652  -1.321  0.00  0.00    +0.019 C 
ATOM      8  C   UNL     1      -2.634   3.059  -1.667  0.00  0.00    +0.001 C 
ATOM      9  C   UNL     1      -1.442   3.984  -1.315  0.00  0.00    +0.001 C 
ATOM     10  C   UNL     1      -0.841   3.357  -0.040  0.00  0.00    +0.019 C 
BRANCH   6  15
ATOM     11  C   UNL     1      -4.426   0.688   4.638  0.00  0.00    +0.044 C 
ATOM     12  C   UNL     1      -3.599   0.997   3.416  0.00  0.00    -0.050 A 
ATOM     13  C   UNL     1      -4.072   1.883   2.467  0.00  0.00    +0.003 A 
ATOM     14  C   UNL     1      -3.312   2.167   1.347  0.00  0.00    +0.005 A 
ATOM     15  C   UNL     1      -2.080   1.565   1.177  0.00  0.00    -0.034 A 
ATOM     16  C   UNL     1      -1.609   0.674   2.124  0.00  0.00    +0.005 A 
ATOM     17  C   UNL     1      -2.367   0.393   3.245  0.00  0.00    +0.003 A 
ENDBRANCH   6  15
ENDBRANCH   1   6
BRANCH   3  18
ATOM     18  C   UNL     1       1.816  -2.082  -0.133  0.00  0.00    +0.022 C 
BRANCH  18  19
ATOM     19  N   UNL     1       1.967  -2.528  -1.524  0.00  0.00    +0.388 N 
ATOM     20  C   UNL     1       0.658  -2.666  -2.178  0.00  0.00    -0.059 C 
ATOM     21  C   UNL     1       0.862  -3.053  -3.645  0.00  0.00    +0.088 C 
ATOM     22  N   UNL     1       1.618  -4.311  -3.716  0.00  0.00    -0.317 N 
ATOM     23  C   UNL     1       2.927  -4.173  -3.062  0.00  0.00    +0.088 C 
ATOM     24  C   UNL     1       2.723  -3.786  -1.595  0.00  0.00    -0.059 C 
ATOM     25  C   UNL     1       1.761  -4.732  -5.033  0.00  0.00    +0.143 A 
ATOM     26  C   UNL     1       1.273  -5.977  -5.425  0.00  0.00    +0.078 A 
ATOM     27  N   UNL     1       1.406  -6.371  -6.677  0.00  0.00    -0.255 NA
ATOM     28  C   UNL     1       2.011  -5.590  -7.557  0.00  0.00    +0.134 A 
ATOM     29  C   UNL     1       2.501  -4.358  -7.170  0.00  0.00    +0.058 A 
ATOM     30  N   UNL     1       2.367  -3.953  -5.918  0.00  0.00    -0.234 NA
ATOM     31  C   UNL     1       3.189  -3.473  -8.178  0.00  0.00    +0.067 C 
ATOM     32  C   UNL     1       0.589  -6.870  -4.421  0.00  0.00    +0.069 C 
ATOM     33  H   UNL     1       2.537  -1.758  -2.064  0.00  0.00    -0.081 HD
ENDBRANCH  18  19
ENDBRANCH   3  18
TORSDOF 4
