REMARK  Name = ZINC00910342
REMARK  9 active torsions:
REMARK  status: ('A' for Active; 'I' for Inactive)
REMARK    1  A    between atoms: C_1  and  C_2
REMARK    2  A    between atoms: C_4  and  C_39
REMARK    3  A    between atoms: C_7  and  C_14
REMARK    4  A    between atoms: C_14  and  C_16
REMARK    5  A    between atoms: C_14  and  N_30
REMARK    6  A    between atoms: N_20  and  C_21
REMARK    7  A    between atoms: C_21  and  C_22
REMARK    8  A    between atoms: C_25  and  O_28
REMARK    9  A    between atoms: O_28  and  C_29
REMARK                            x       y       z     vdW  Elec       q    Type
REMARK                         _______ _______ _______ _____ _____    ______ ____
ROOT
ATOM      1  C   UNL     1       1.187  -2.235  -0.021  0.00  0.00    +0.179 C 
ENDROOT
BRANCH   1   8
ATOM      2  C   UNL     1       1.882   5.560  -1.565  0.00  0.00    +0.044 C 
ATOM      3  C   UNL     1       1.984   4.082  -1.289  0.00  0.00    -0.048 A 
ATOM      4  C   UNL     1       3.231   3.473  -1.259  0.00  0.00    +0.007 A 
ATOM      5  C   UNL     1       3.346   2.135  -1.009  0.00  0.00    -0.041 A 
ATOM      6  C   UNL     1       2.196   1.371  -0.782  0.00  0.00    +0.002 A 
ATOM      7  C   UNL     1       2.282  -0.066  -0.513  0.00  0.00    +0.021 A 
ATOM      8  C   UNL     1       1.134  -0.755  -0.301  0.00  0.00    +0.045 A 
ATOM      9  C   UNL     1      -0.111  -0.092  -0.342  0.00  0.00    +0.255 A 
ATOM     10  O   UNL     1      -1.131  -0.730  -0.149  0.00  0.00    -0.268 OA
ATOM     11  N   UNL     1      -0.200   1.227  -0.589  0.00  0.00    -0.322 N 
ATOM     12  H   UNL     1      -1.073   1.651  -0.614  0.00  0.00    +0.169 HD
ATOM     13  C   UNL     1       0.930   1.984  -0.812  0.00  0.00    +0.050 A 
ATOM     14  C   UNL     1       0.838   3.349  -1.068  0.00  0.00    +0.029 A 
ATOM     15  C   UNL     1       4.705   1.484  -0.979  0.00  0.00    +0.044 C 
ENDBRANCH   1   8
BRANCH   1  16
ATOM     16  N   UNL     1       0.429  -2.530   1.202  0.00  0.00    -0.315 N 
ATOM     17  C   UNL     1       0.212  -3.985   1.353  0.00  0.00    +0.111 C 
ATOM     18  C   UNL     1       0.182  -4.164   2.889  0.00  0.00    +0.056 C 
ATOM     19  C   UNL     1       1.001  -2.987   3.381  0.00  0.00    -0.025 A 
ATOM     20  C   UNL     1       1.113  -2.077   2.337  0.00  0.00    +0.034 A 
ATOM     21  C   UNL     1       1.840  -0.905   2.536  0.00  0.00    +0.023 A 
ATOM     22  C   UNL     1       2.433  -0.654   3.756  0.00  0.00    +0.002 A 
ATOM     23  C   UNL     1       2.312  -1.564   4.789  0.00  0.00    +0.000 A 
ATOM     24  C   UNL     1       1.594  -2.732   4.599  0.00  0.00    +0.005 A 
ENDBRANCH   1  16
BRANCH   1  25
ATOM     25  C   UNL     1       0.584  -2.987  -1.179  0.00  0.00    +0.177 A 
ATOM     26  N   UNL     1      -0.692  -3.136  -1.437  0.00  0.00    -0.111 NA
ATOM     27  N   UNL     1      -0.803  -3.840  -2.510  0.00  0.00    -0.023 NA
ATOM     28  N   UNL     1       0.370  -4.144  -2.944  0.00  0.00    -0.044 NA
ATOM     29  N   UNL     1       1.252  -3.632  -2.154  0.00  0.00    -0.223 N 
BRANCH  29  30
ATOM     30  C   UNL     1       2.707  -3.737  -2.289  0.00  0.00    +0.182 C 
BRANCH  30  31
ATOM     31  C   UNL     1       3.193  -4.961  -1.558  0.00  0.00    -0.026 A 
ATOM     32  C   UNL     1       3.561  -4.870  -0.228  0.00  0.00    +0.009 A 
ATOM     33  C   UNL     1       4.001  -5.992   0.447  0.00  0.00    +0.046 A 
ATOM     34  C   UNL     1       4.085  -7.209  -0.214  0.00  0.00    +0.120 A 
ATOM     35  C   UNL     1       3.721  -7.297  -1.550  0.00  0.00    +0.046 A 
ATOM     36  C   UNL     1       3.276  -6.173  -2.219  0.00  0.00    +0.009 A 
BRANCH  34  37
ATOM     37  O   UNL     1       4.523  -8.313   0.446  0.00  0.00    -0.495 OA
ATOM     38  C   UNL     1       4.881  -8.149   1.819  0.00  0.00    +0.277 C 
ENDBRANCH  34  37
ENDBRANCH  30  31
ENDBRANCH  29  30
ENDBRANCH   1  25
TORSDOF 6
