REMARK  Name = ZINC16501023
REMARK  10 active torsions:
REMARK  status: ('A' for Active; 'I' for Inactive)
REMARK    1  A    between atoms: C_1  and  C_2
REMARK    2  A    between atoms: C_2  and  C_3
REMARK    3  A    between atoms: C_3  and  C_5
REMARK    4  A    between atoms: C_3  and  N_6
REMARK    5  A    between atoms: N_6  and  C_7
REMARK    6  A    between atoms: C_7  and  C_8
REMARK    7  A    between atoms: C_18  and  C_20
REMARK    8  A    between atoms: C_23  and  C_26
REMARK    9  A    between atoms: C_27  and  C_29
REMARK   10  A    between atoms: C_32  and  N_35
REMARK                            x       y       z     vdW  Elec       q    Type
REMARK                         _______ _______ _______ _____ _____    ______ ____
ROOT
ATOM      1  C   UNL     1      -1.968   2.154   1.085  0.00  0.00    +0.234 C 
ATOM      2  O   UNL     1      -1.065   2.258   1.888  0.00  0.00    -0.274 OA
ATOM      3  N   UNL     1      -3.249   2.227   1.499  0.00  0.00    -0.289 N 
ATOM      4  C   UNL     1      -4.348   2.234   0.522  0.00  0.00    +0.114 C 
ATOM      5  C   UNL     1      -5.176   0.950   0.727  0.00  0.00    +0.062 C 
ATOM      6  C   UNL     1      -5.368   0.733   2.193  0.00  0.00    -0.003 A 
ATOM      7  C   UNL     1      -4.681   1.304   3.219  0.00  0.00    -0.012 A 
ATOM      8  C   UNL     1      -5.052   0.925   4.508  0.00  0.00    +0.013 A 
ATOM      9  C   UNL     1      -6.053   0.032   4.689  0.00  0.00    +0.046 A 
ATOM     10  S   UNL     1      -6.533  -0.328   3.006  0.00  0.00    -0.101 S 
ATOM     11  C   UNL     1      -3.566   2.308   2.931  0.00  0.00    +0.137 C 
ENDROOT
BRANCH  11  12
ATOM     12  C   UNL     1      -2.345   1.962   3.744  0.00  0.00    -0.023 A 
ATOM     13  C   UNL     1      -1.780   0.704   3.642  0.00  0.00    +0.006 A 
ATOM     14  C   UNL     1      -0.658   0.389   4.385  0.00  0.00    +0.004 A 
ATOM     15  C   UNL     1      -0.106   1.327   5.236  0.00  0.00    -0.050 A 
ATOM     16  C   UNL     1      -0.674   2.583   5.342  0.00  0.00    +0.004 A 
ATOM     17  C   UNL     1      -1.794   2.901   4.596  0.00  0.00    +0.006 A 
ATOM     18  C   UNL     1       1.114   0.981   6.050  0.00  0.00    +0.044 C 
ENDBRANCH  11  12
BRANCH   1  19
ATOM     19  C   UNL     1      -1.659   1.943  -0.374  0.00  0.00    +0.204 C 
BRANCH  19  20
ATOM     20  N   UNL     1      -0.206   1.899  -0.564  0.00  0.00    -0.286 N 
ATOM     21  C   UNL     1       0.448   0.724  -0.487  0.00  0.00    +0.247 C 
ATOM     22  O   UNL     1      -0.152  -0.287  -0.179  0.00  0.00    -0.270 OA
BRANCH  21  23
ATOM     23  C   UNL     1       1.897   0.664  -0.778  0.00  0.00    +0.037 A 
ATOM     24  C   UNL     1       2.404  -0.338  -1.608  0.00  0.00    +0.015 A 
ATOM     25  C   UNL     1       3.756  -0.384  -1.880  0.00  0.00    +0.033 A 
ATOM     26  C   UNL     1       4.609   0.552  -1.324  0.00  0.00    +0.126 A 
ATOM     27  C   UNL     1       4.114   1.544  -0.496  0.00  0.00    +0.033 A 
ATOM     28  C   UNL     1       2.763   1.605  -0.221  0.00  0.00    +0.015 A 
BRANCH  26  29
ATOM     29  N   UNL     1       6.059   0.492  -1.616  0.00  0.00    +0.056 N 
ATOM     30  O   UNL     1       6.813   1.315  -1.128  0.00  0.00    -0.126 OA
ATOM     31  O   UNL     1       6.498  -0.380  -2.344  0.00  0.00    -0.126 OA
ENDBRANCH  26  29
ENDBRANCH  21  23
BRANCH  20  32
ATOM     32  C   UNL     1       0.533   3.133  -0.844  0.00  0.00    +0.074 C 
ATOM     33  C   UNL     1       0.463   4.056   0.374  0.00  0.00    +0.028 C 
BRANCH  32  35
ATOM     34  C   UNL     1       0.094   2.965  -3.298  0.00  0.00    +0.005 C 
ATOM     35  C   UNL     1      -0.087   3.836  -2.053  0.00  0.00    +0.019 C 
ENDBRANCH  32  35
ENDBRANCH  20  32
ENDBRANCH  19  20
ENDBRANCH   1  19
TORSDOF 7
