REMARK  Name = ZINC13549920
REMARK  6 active torsions:
REMARK  status: ('A' for Active; 'I' for Inactive)
REMARK    1  A    between atoms: C_4  and  N_7
REMARK    2  A    between atoms: C_16  and  C_22
REMARK    3  A    between atoms: C_22  and  N_23
REMARK    4  A    between atoms: C_24  and  O_26
REMARK    5  A    between atoms: O_26  and  C_27
REMARK    6  A    between atoms: C_27  and  C_28
REMARK                            x       y       z     vdW  Elec       q    Type
REMARK                         _______ _______ _______ _____ _____    ______ ____
ROOT
ATOM      1  N   UNL     1       0.823   2.865  -3.498  0.00  0.00    -0.210 N 
ATOM      2  C   UNL     1       1.498   2.020  -2.647  0.00  0.00    +0.233 C 
ATOM      3  O   UNL     1       2.022   0.961  -2.919  0.00  0.00    -0.274 OA
ATOM      4  C   UNL     1       1.445   2.694  -1.314  0.00  0.00    +0.123 C 
ATOM      5  C   UNL     1       1.212   1.968   0.001  0.00  0.00    +0.155 C 
ATOM      6  C   UNL     1      -0.013   1.076   0.008  0.00  0.00    +0.004 C 
ATOM      7  C   UNL     1      -1.105   1.827   0.017  0.00  0.00    +0.008 C 
ATOM      8  C   UNL     1      -0.574   3.287  -0.109  0.00  0.00    +0.116 C 
ATOM      9  C   UNL     1      -0.035   3.214  -1.493  0.00  0.00    +0.128 C 
ATOM     10  C   UNL     1      -0.014   3.733  -2.823  0.00  0.00    +0.233 C 
ATOM     11  O   UNL     1      -0.594   4.705  -3.258  0.00  0.00    -0.274 OA
ATOM     12  O   UNL     1       0.628   3.119   0.748  0.00  0.00    -0.359 OA
ENDROOT
BRANCH   1  16
ATOM     13  C   UNL     1       1.254   2.812  -7.644  0.00  0.00    +0.000 A 
ATOM     14  C   UNL     1       1.974   1.926  -6.864  0.00  0.00    +0.002 A 
ATOM     15  C   UNL     1       1.833   1.941  -5.490  0.00  0.00    +0.024 A 
ATOM     16  C   UNL     1       0.968   2.848  -4.892  0.00  0.00    +0.044 A 
ATOM     17  C   UNL     1       0.243   3.733  -5.678  0.00  0.00    +0.024 A 
ATOM     18  C   UNL     1       0.392   3.717  -7.051  0.00  0.00    +0.002 A 
ENDBRANCH   1  16
BRANCH   8  19
ATOM     19  C   UNL     1      -1.538   4.431   0.210  0.00  0.00    +0.147 C 
BRANCH  19  20
ATOM     20  N   UNL     1      -1.960   4.338   1.610  0.00  0.00    -0.278 N 
ATOM     21  C   UNL     1      -2.814   5.248   2.118  0.00  0.00    +0.401 C 
ATOM     22  O   UNL     1      -3.235   6.145   1.415  0.00  0.00    -0.226 OA
ATOM     23  H   UNL     1      -1.623   3.622   2.171  0.00  0.00    +0.152 HD
BRANCH  21  24
ATOM     24  O   UNL     1      -3.202   5.162   3.404  0.00  0.00    -0.446 OA
BRANCH  24  25
ATOM     25  C   UNL     1      -4.125   6.176   3.884  0.00  0.00    +0.270 C 
BRANCH  25  26
ATOM     26  C   UNL     1      -4.443   5.920   5.334  0.00  0.00    +0.010 A 
ATOM     27  C   UNL     1      -3.872   4.845   5.987  0.00  0.00    +0.029 A 
ATOM     28  C   UNL     1      -4.163   4.609   7.319  0.00  0.00    +0.060 A 
ATOM     29  C   UNL     1      -5.028   5.452   7.997  0.00  0.00    +0.061 A 
ATOM     30  C   UNL     1      -5.599   6.528   7.343  0.00  0.00    +0.041 A 
ATOM     31  C   UNL     1      -5.302   6.766   6.013  0.00  0.00    +0.049 A 
ATOM     32 CL   UNL     1      -6.013   8.121   5.194  0.00  0.00    -0.083 Cl
ATOM     33 CL   UNL     1      -5.395   5.157   9.668  0.00  0.00    -0.082 Cl
ATOM     34 CL   UNL     1      -3.445   3.258   8.139  0.00  0.00    -0.082 Cl
ENDBRANCH  25  26
ENDBRANCH  24  25
ENDBRANCH  21  24
ENDBRANCH  19  20
ENDBRANCH   8  19
TORSDOF 6
