REMARK  Name = ZINC12309763
REMARK  13 active torsions:
REMARK  status: ('A' for Active; 'I' for Inactive)
REMARK    1  A    between atoms: C_1  and  C_2
REMARK    2  A    between atoms: C_2  and  C_3
REMARK    3  A    between atoms: C_3  and  C_4
REMARK    4  A    between atoms: C_4  and  C_5
REMARK    5  A    between atoms: C_11  and  N_12
REMARK    6  A    between atoms: N_12  and  O_13
REMARK    7  A    between atoms: O_13  and  C_14
REMARK    8  A    between atoms: C_14  and  C_15
REMARK    9  A    between atoms: N_17  and  C_18
REMARK   10  A    between atoms: C_21  and  C_25
REMARK   11  A    between atoms: C_23  and  C_24
REMARK   12  A    between atoms: N_28  and  C_33
REMARK   13  A    between atoms: N_31  and  C_32
REMARK                            x       y       z     vdW  Elec       q    Type
REMARK                         _______ _______ _______ _____ _____    ______ ____
ROOT
ATOM      1  C   UNL     1       1.190   5.999   0.599  0.00  0.00    -0.005 A 
ATOM      2  C   UNL     1       2.317   5.270   0.581  0.00  0.00    +0.090 A 
ATOM      3  N   UNL     1       2.342   3.990   0.096  0.00  0.00    -0.347 N 
ATOM      4  H   UNL     1       3.304   3.504  -0.124  0.00  0.00    +0.167 HD
ATOM      5  C   UNL     1       1.204   3.281  -0.130  0.00  0.00    +0.129 A 
ATOM      6  C   UNL     1      -0.025   3.934  -0.153  0.00  0.00    +0.106 A 
ATOM      7  C   UNL     1      -0.052   5.389   0.084  0.00  0.00    +0.082 A 
ATOM      8  C   UNL     1      -1.203   3.191  -0.399  0.00  0.00    +0.268 A 
ATOM      9  O   UNL     1      -2.289   3.741  -0.427  0.00  0.00    -0.267 OA
ATOM     10  N   UNL     1      -1.100   1.860  -0.608  0.00  0.00    -0.263 N 
ATOM     11  C   UNL     1       0.097   1.249  -0.573  0.00  0.00    +0.333 A 
ATOM     12  O   UNL     1       0.151   0.049  -0.758  0.00  0.00    -0.246 OA
ATOM     13  N   UNL     1       1.236   1.927  -0.343  0.00  0.00    -0.282 N 
ATOM     14  C   UNL     1       2.516   1.215  -0.321  0.00  0.00    +0.155 C 
ATOM     15  C   UNL     1      -2.308   1.073  -0.871  0.00  0.00    +0.157 C 
ENDROOT
BRANCH   7  16
ATOM     16  N   UNL     1      -1.127   6.107  -0.152  0.00  0.00    -0.264 N 
ATOM     17  H   UNL     1      -1.269   7.070   0.360  0.00  0.00    +0.194 HD
BRANCH  16  18
ATOM     18  O   UNL     1      -2.104   5.641  -1.065  0.00  0.00    -0.265 OA
BRANCH  18  19
ATOM     19  C   UNL     1      -3.219   6.521  -1.224  0.00  0.00    +0.288 C 
BRANCH  19  20
ATOM     20  C   UNL     1      -4.189   5.928  -2.212  0.00  0.00    +0.246 C 
ATOM     21  O   UNL     1      -3.951   4.858  -2.730  0.00  0.00    -0.273 OA
ATOM     22  N   UNL     1      -5.323   6.588  -2.521  0.00  0.00    -0.283 N 
ATOM     23  H   UNL     1      -5.506   7.591  -2.108  0.00  0.00    +0.155 HD
BRANCH  22  24
ATOM     24  C   UNL     1      -6.268   5.998  -3.368  0.00  0.00    +0.036 A 
ATOM     25  C   UNL     1      -5.870   5.047  -4.298  0.00  0.00    +0.024 A 
ATOM     26  C   UNL     1      -6.805   4.466  -5.133  0.00  0.00    +0.005 A 
ATOM     27  C   UNL     1      -8.136   4.830  -5.042  0.00  0.00    -0.050 A 
ATOM     28  C   UNL     1      -8.535   5.777  -4.117  0.00  0.00    +0.008 A 
ATOM     29  C   UNL     1      -7.606   6.357  -3.275  0.00  0.00    -0.029 A 
ATOM     30  C   UNL     1      -8.043   7.384  -2.263  0.00  0.00    +0.045 C 
ATOM     31  C   UNL     1      -9.153   4.194  -5.954  0.00  0.00    +0.044 C 
ENDBRANCH  22  24
ENDBRANCH  19  20
ENDBRANCH  18  19
ENDBRANCH  16  18
ENDBRANCH   7  16
BRANCH   1  32
ATOM     32  C   UNL     1       1.192   7.408   1.133  0.00  0.00    +0.039 C 
BRANCH  32  33
ATOM     33  C   UNL     1       0.891   7.386   2.633  0.00  0.00    +0.004 C 
BRANCH  33  35
ATOM     34  C   UNL     1       0.592   8.794   4.675  0.00  0.00    +0.004 C 
ATOM     35  C   UNL     1       0.893   8.817   3.175  0.00  0.00    -0.003 C 
ENDBRANCH  33  35
ENDBRANCH  32  33
ENDBRANCH   1  32
TORSDOF 8
