REMARK  Name = ZINC27436586
REMARK  7 active torsions:
REMARK  status: ('A' for Active; 'I' for Inactive)
REMARK    1  A    between atoms: C_3  and  C_18
REMARK    2  A    between atoms: C_6  and  C_7
REMARK    3  A    between atoms: C_8  and  C_9
REMARK    4  A    between atoms: N_10  and  N_11
REMARK    5  A    between atoms: C_22  and  C_27
REMARK    6  A    between atoms: C_28  and  C_29
REMARK    7  A    between atoms: N_30  and  N_31
REMARK                            x       y       z     vdW  Elec       q    Type
REMARK                         _______ _______ _______ _____ _____    ______ ____
ROOT
ATOM      1  C   UNL     1       3.652   2.175  -0.022  0.00  0.00    +0.090 A 
ATOM      2  C   UNL     1       4.904   1.636  -0.043  0.00  0.00    +0.121 A 
ATOM      3  N   UNL     1       5.789   2.678  -0.044  0.00  0.00    -0.305 N 
ATOM      4  C   UNL     1       7.152   2.720  -0.060  0.00  0.00    +0.100 A 
ATOM      5  C   UNL     1       7.809   3.930  -0.057  0.00  0.00    -0.008 A 
ATOM      6  C   UNL     1       7.065   5.137  -0.036  0.00  0.00    +0.013 A 
ATOM      7  C   UNL     1       5.710   5.087  -0.020  0.00  0.00    +0.047 A 
ATOM      8  C   UNL     1       5.055   3.836  -0.024  0.00  0.00    +0.138 A 
ATOM      9  N   UNL     1       3.770   3.513  -0.017  0.00  0.00    -0.228 NA
ENDROOT
BRANCH   1  12
ATOM     10  C   UNL     1      -0.017   1.396   0.010  0.00  0.00    +0.008 A 
ATOM     11  C   UNL     1       1.161   2.096   0.002  0.00  0.00    +0.010 A 
ATOM     12  C   UNL     1       2.380   1.415  -0.013  0.00  0.00    +0.002 A 
ATOM     13  C   UNL     1       2.401   0.019  -0.022  0.00  0.00    +0.010 A 
ATOM     14  C   UNL     1       1.225  -0.685  -0.014  0.00  0.00    +0.008 A 
ATOM     15  C   UNL     1       0.002  -0.004   0.002  0.00  0.00    -0.025 A 
BRANCH  15  16
ATOM     16  C   UNL     1      -1.260  -0.757   0.011  0.00  0.00    +0.009 C 
ATOM     17  C   UNL     1      -1.240  -2.110   0.003  0.00  0.00    +0.022 C 
BRANCH  17  18
ATOM     18  C   UNL     1      -2.452  -2.833   0.011  0.00  0.00    +0.133 C 
ATOM     19  N   UNL     1      -2.433  -4.144   0.004  0.00  0.00    -0.180 NA
BRANCH  19  20
ATOM     20  N   UNL     1      -3.541  -4.805   0.011  0.00  0.00    -0.252 N 
ATOM     21  C   UNL     1      -3.522  -6.125   0.004  0.00  0.00    +0.174 C 
ATOM     22  N   UNL     1      -2.336  -6.835  -0.005  0.00  0.00    -0.317 N 
ATOM     23  C   UNL     1      -2.240  -8.009   0.877  0.00  0.00    +0.105 C 
ATOM     24  C   UNL     1      -3.478  -8.887   0.659  0.00  0.00    +0.037 C 
ATOM     25  C   UNL     1      -4.739  -8.045   0.889  0.00  0.00    +0.105 C 
ATOM     26  N   UNL     1      -4.687  -6.869   0.012  0.00  0.00    -0.317 N 
ATOM     27  H   UNL     1      -5.444  -6.625  -0.543  0.00  0.00    +0.149 HD
ATOM     28  H   UNL     1      -1.594  -6.569  -0.572  0.00  0.00    +0.149 HD
ATOM     29  H   UNL     1      -4.388  -4.332   0.022  0.00  0.00    +0.191 HD
ENDBRANCH  19  20
ENDBRANCH  17  18
ENDBRANCH  15  16
ENDBRANCH   1  12
BRANCH   5  30
ATOM     30  C   UNL     1       9.280   3.970  -0.074  0.00  0.00    +0.011 C 
ATOM     31  C   UNL     1       9.923   5.156  -0.071  0.00  0.00    +0.022 C 
BRANCH  31  32
ATOM     32  C   UNL     1      11.340   5.195  -0.088  0.00  0.00    +0.130 C 
ATOM     33  N   UNL     1      11.960   6.340  -0.085  0.00  0.00    -0.188 NA
BRANCH  33  34
ATOM     34  N   UNL     1      13.360   6.379  -0.101  0.00  0.00    -0.211 N 
ATOM     35  C   UNL     1      14.013   7.583  -0.098  0.00  0.00    +0.174 C 
ATOM     36  N   UNL     1      13.289   8.693  -0.073  0.00  0.00    -0.360 N 
ATOM     37  C   UNL     1      13.916  10.016  -0.063  0.00  0.00    +0.117 C 
ATOM     38  C   UNL     1      15.270   9.934  -0.777  0.00  0.00    +0.040 C 
ATOM     39  C   UNL     1      16.102   8.832  -0.112  0.00  0.00    +0.106 C 
ATOM     40  N   UNL     1      15.338   7.584  -0.114  0.00  0.00    -0.317 N 
ATOM     41  H   UNL     1      13.868   5.552  -0.115  0.00  0.00    +0.177 HD
ATOM     42  H   UNL     1      15.812   6.738  -0.131  0.00  0.00    +0.149 HD
ATOM     43  H   UNL     1      12.321   8.628  -0.061  0.00  0.00    +0.162 HD
ENDBRANCH  33  34
ENDBRANCH  31  32
ENDBRANCH   5  30
TORSDOF 7
