REMARK  Name = ZINC09102689
REMARK  12 active torsions:
REMARK  status: ('A' for Active; 'I' for Inactive)
REMARK    1  A    between atoms: C_1  and  C_2
REMARK    2  A    between atoms: C_3  and  C_34
REMARK    3  A    between atoms: C_11  and  C_13
REMARK    4  A    between atoms: C_13  and  C_15
REMARK    5  A    between atoms: C_13  and  S_16
REMARK    6  A    between atoms: S_16  and  C_17
REMARK    7  A    between atoms: C_20  and  C_29
REMARK    8  A    between atoms: N_21  and  C_22
REMARK    9  A    between atoms: C_29  and  C_31
REMARK   10  A    between atoms: C_29  and  N_57
REMARK   11  A    between atoms: C_32  and  N_57
REMARK   12  A    between atoms: C_33  and  N_57
REMARK                            x       y       z     vdW  Elec       q    Type
REMARK                         _______ _______ _______ _____ _____    ______ ____
ROOT
ATOM      1  C   UNL     1      -1.995   4.518   4.346  0.00  0.00    +0.197 A 
ATOM      2  N   UNL     1      -2.890   3.600   4.064  0.00  0.00    -0.122 NA
ATOM      3  N   UNL     1      -2.564   2.989   2.981  0.00  0.00    -0.135 NA
ATOM      4  C   UNL     1      -1.451   3.475   2.510  0.00  0.00    +0.125 A 
ATOM      5  N   UNL     1      -1.044   4.465   3.365  0.00  0.00    -0.275 N 
ENDROOT
BRANCH   5   6
ATOM      6  C   UNL     1       0.107   5.259   3.256  0.00  0.00    +0.050 A 
ATOM      7  C   UNL     1       1.364   4.680   3.359  0.00  0.00    +0.028 A 
ATOM      8  C   UNL     1       2.496   5.463   3.247  0.00  0.00    +0.022 A 
ATOM      9  C   UNL     1       2.377   6.827   3.041  0.00  0.00    +0.041 A 
ATOM     10  C   UNL     1       1.125   7.407   2.943  0.00  0.00    +0.022 A 
ATOM     11  C   UNL     1      -0.009   6.627   3.050  0.00  0.00    +0.028 A 
ATOM     12 CL   UNL     1       3.801   7.810   2.906  0.00  0.00    -0.084 Cl
ENDBRANCH   5   6
BRANCH   4  13
ATOM     13  C   UNL     1      -0.740   3.027   1.259  0.00  0.00    -0.003 C 
ATOM     14  C   UNL     1      -1.486   3.553   0.032  0.00  0.00    -0.005 C 
BRANCH  13  17
ATOM     15  C   UNL     1      -0.013   1.086   0.008  0.00  0.00    -0.096 C 
ATOM     16  C   UNL     1      -0.072   1.015   2.428  0.00  0.00    -0.096 C 
ATOM     17  N   UNL     1      -0.727   1.550   1.216  0.00  0.00    +0.382 N 
ATOM     18  H   UNL     1      -1.695   1.209   1.182  0.00  0.00    -0.082 HD
ENDBRANCH  13  17
ENDBRANCH   4  13
BRANCH   1  19
ATOM     19  S   UNL     1      -2.012   5.608   5.731  0.00  0.00    -0.075 S 
BRANCH  19  20
ATOM     20  C   UNL     1      -3.540   5.067   6.537  0.00  0.00    +0.117 C 
ATOM     21  C   UNL     1      -3.378   3.625   7.023  0.00  0.00    +0.027 C 
BRANCH  20  32
ATOM     22  C   UNL     1      -5.761   8.932  11.545  0.00  0.00    +0.045 C 
ATOM     23  C   UNL     1      -4.428   8.466  11.018  0.00  0.00    -0.026 A 
ATOM     24  C   UNL     1      -3.289   8.853  11.614  0.00  0.00    -0.008 A 
ATOM     25  S   UNL     1      -2.024   8.059  10.641  0.00  0.00    -0.073 S 
ATOM     26  C   UNL     1      -3.062   7.232   9.463  0.00  0.00    +0.116 A 
ATOM     27  C   UNL     1      -4.361   7.596   9.859  0.00  0.00    +0.075 A 
ATOM     28  C   UNL     1      -5.425   7.057   9.064  0.00  0.00    +0.260 A 
ATOM     29  O   UNL     1      -6.586   7.314   9.327  0.00  0.00    -0.267 OA
ATOM     30  N   UNL     1      -5.120   6.261   8.022  0.00  0.00    -0.309 N 
ATOM     31  H   UNL     1      -5.835   5.893   7.480  0.00  0.00    +0.170 HD
ATOM     32  C   UNL     1      -3.832   5.963   7.713  0.00  0.00    +0.124 A 
ATOM     33  N   UNL     1      -2.841   6.435   8.421  0.00  0.00    -0.225 NA
ATOM     34  C   UNL     1      -3.121   9.745  12.817  0.00  0.00    +0.052 C 
ENDBRANCH  20  32
ENDBRANCH  19  20
ENDBRANCH   1  19
TORSDOF 6
