REMARK  Name = ZINC14999430
REMARK  9 active torsions:
REMARK  status: ('A' for Active; 'I' for Inactive)
REMARK    1  A    between atoms: C_1  and  N_59
REMARK    2  A    between atoms: C_2  and  C_3
REMARK    3  A    between atoms: C_2  and  N_59
REMARK    4  A    between atoms: N_11  and  C_14
REMARK    5  A    between atoms: C_14  and  C_15
REMARK    6  A    between atoms: C_25  and  C_26
REMARK    7  A    between atoms: C_25  and  N_59
REMARK    8  A    between atoms: C_26  and  C_28
REMARK    9  A    between atoms: C_26  and  O_34
REMARK                            x       y       z     vdW  Elec       q    Type
REMARK                         _______ _______ _______ _____ _____    ______ ____
ROOT
ATOM      1  C   UNL     1       2.812   5.604  -3.329  0.00  0.00    +0.001 A 
ATOM      2  C   UNL     1       3.600   4.746  -4.026  0.00  0.00    +0.017 A 
ATOM      3  C   UNL     1       4.056   3.523  -3.367  0.00  0.00    +0.003 A 
ATOM      4  C   UNL     1       4.872   2.602  -4.037  0.00  0.00    +0.059 A 
ATOM      5  C   UNL     1       5.285   1.459  -3.390  0.00  0.00    +0.167 A 
ATOM      6  C   UNL     1       4.893   1.215  -2.068  0.00  0.00    +0.168 A 
ATOM      7  C   UNL     1       4.088   2.119  -1.399  0.00  0.00    +0.076 A 
ATOM      8  C   UNL     1       3.668   3.280  -2.035  0.00  0.00    +0.056 A 
ATOM      9  N   UNL     1       2.861   4.191  -1.384  0.00  0.00    -0.303 N 
ATOM     10  C   UNL     1       2.448   5.313  -1.999  0.00  0.00    +0.253 A 
ATOM     11  O   UNL     1       1.740   6.098  -1.391  0.00  0.00    -0.267 OA
ATOM     12  O   UNL     1       5.432   0.027  -1.669  0.00  0.00    -0.453 OA
ATOM     13  C   UNL     1       6.488  -0.252  -2.607  0.00  0.00    +0.466 C 
ATOM     14  O   UNL     1       6.068   0.421  -3.808  0.00  0.00    -0.453 OA
ENDROOT
BRANCH   1  15
ATOM     15  C   UNL     1       2.325   6.873  -3.980  0.00  0.00    -0.038 C 
BRANCH  15  17
ATOM     16  C   UNL     1       0.003   6.404  -3.480  0.00  0.00    -0.096 C 
ATOM     17  N   UNL     1       0.987   6.628  -4.559  0.00  0.00    +0.383 N 
ATOM     18  H   UNL     1       1.029   5.791  -5.152  0.00  0.00    -0.082 HD
BRANCH  17  19
ATOM     19  C   UNL     1       0.576   7.782  -5.386  0.00  0.00    -0.042 C 
BRANCH  19  20
ATOM     20  C   UNL     1      -0.698   7.414  -6.148  0.00  0.00    +0.128 C 
BRANCH  20  21
ATOM     21  C   UNL     1      -1.119   8.574  -7.014  0.00  0.00    -0.021 A 
ATOM     22  C   UNL     1      -0.566   8.735  -8.271  0.00  0.00    +0.006 A 
ATOM     23  C   UNL     1      -0.955   9.796  -9.066  0.00  0.00    +0.000 A 
ATOM     24  C   UNL     1      -1.890  10.702  -8.601  0.00  0.00    +0.000 A 
ATOM     25  C   UNL     1      -2.439  10.544  -7.343  0.00  0.00    +0.000 A 
ATOM     26  C   UNL     1      -2.054   9.480  -6.549  0.00  0.00    +0.006 A 
ENDBRANCH  20  21
BRANCH  20  27
ATOM     27  O   UNL     1      -0.449   6.272  -6.971  0.00  0.00    -0.389 OA
ATOM     28  H   UNL     1       0.248   6.405  -7.628  0.00  0.00    +0.210 HD
ENDBRANCH  20  27
ENDBRANCH  19  20
ENDBRANCH  17  19
ENDBRANCH  15  17
ENDBRANCH   1  15
BRANCH   9  29
ATOM     29  C   UNL     1       2.454   3.935  -0.000  0.00  0.00    +0.160 C 
BRANCH  29  30
ATOM     30  C   UNL     1       1.158   3.165   0.007  0.00  0.00    -0.025 A 
ATOM     31  C   UNL     1       1.175   1.783   0.000  0.00  0.00    +0.005 A 
ATOM     32  C   UNL     1      -0.013   1.076   0.008  0.00  0.00    +0.003 A 
ATOM     33  C   UNL     1      -1.219   1.750   0.017  0.00  0.00    +0.038 A 
ATOM     34  C   UNL     1      -1.237   3.135   0.030  0.00  0.00    +0.124 A 
ATOM     35  C   UNL     1      -0.047   3.842   0.022  0.00  0.00    +0.043 A 
ATOM     36  F   UNL     1      -2.416   3.795   0.044  0.00  0.00    -0.205 F 
ENDBRANCH  29  30
ENDBRANCH   9  29
TORSDOF 8
