REMARK  Name = ZINC43222995
REMARK  8 active torsions:
REMARK  status: ('A' for Active; 'I' for Inactive)
REMARK    1  A    between atoms: C_1  and  C_2
REMARK    2  A    between atoms: C_2  and  C_4
REMARK    3  A    between atoms: C_2  and  N_14
REMARK    4  A    between atoms: C_15  and  C_17
REMARK    5  A    between atoms: C_22  and  C_24
REMARK    6  A    between atoms: N_26  and  C_27
REMARK    7  A    between atoms: N_26  and  C_28
REMARK    8  A    between atoms: C_28  and  C_29
REMARK                            x       y       z     vdW  Elec       q    Type
REMARK                         _______ _______ _______ _____ _____    ______ ____
ROOT
ATOM      1  C   UNL     1       2.541  -0.905   2.643  0.00  0.00    +0.068 C 
ATOM      2  C   UNL     1       1.969  -2.336   2.542  0.00  0.00    -0.069 C 
ATOM      3  N   UNL     1       2.953  -3.074   1.708  0.00  0.00    +0.380 N 
ATOM      4  C   UNL     1       4.272  -2.573   2.171  0.00  0.00    -0.069 C 
ATOM      5  C   UNL     1       4.056  -1.059   2.401  0.00  0.00    +0.068 C 
ATOM      6  H   UNL     1       2.877  -4.067   1.869  0.00  0.00    -0.086 HD
ATOM      7  H   UNL     1       2.817  -2.862   0.731  0.00  0.00    -0.086 HD
ENDROOT
BRANCH   1   9
ATOM      8  N   UNL     1       0.603   0.221   1.596  0.00  0.00    -0.309 N 
ATOM      9  C   UNL     1       1.929  -0.021   1.587  0.00  0.00    +0.215 C 
ATOM     10  O   UNL     1       2.629   0.472   0.729  0.00  0.00    -0.276 OA
ATOM     11  H   UNL     1       0.043  -0.174   2.283  0.00  0.00    +0.149 HD
BRANCH   8  13
ATOM     12  C   UNL     1       0.055   2.537   1.034  0.00  0.00    +0.033 C 
ATOM     13  C   UNL     1       0.008   1.080   0.570  0.00  0.00    +0.101 C 
BRANCH  13  14
ATOM     14  C   UNL     1      -1.424   0.672   0.341  0.00  0.00    -0.020 A 
ATOM     15  C   UNL     1      -2.134   0.079   1.339  0.00  0.00    +0.006 A 
ATOM     16  C   UNL     1      -3.460  -0.305   1.147  0.00  0.00    +0.001 A 
ATOM     17  C   UNL     1      -4.083  -0.100  -0.046  0.00  0.00    +0.008 A 
ATOM     18  C   UNL     1      -3.382   0.510  -1.100  0.00  0.00    -0.018 A 
ATOM     19  C   UNL     1      -2.035   0.906  -0.902  0.00  0.00    -0.013 A 
ATOM     20  C   UNL     1      -1.336   1.521  -1.955  0.00  0.00    +0.009 A 
ATOM     21  C   UNL     1      -1.961   1.732  -3.146  0.00  0.00    +0.001 A 
ATOM     22  C   UNL     1      -3.287   1.348  -3.338  0.00  0.00    +0.001 A 
ATOM     23  C   UNL     1      -3.991   0.738  -2.346  0.00  0.00    +0.008 A 
ENDBRANCH  13  14
ENDBRANCH   8  13
ENDBRANCH   1   9
BRANCH   5  24
ATOM     24  C   UNL     1       4.829  -0.595   3.609  0.00  0.00    +0.218 C 
ATOM     25  O   UNL     1       4.361  -0.737   4.719  0.00  0.00    -0.275 OA
ATOM     26  N   UNL     1       6.040  -0.023   3.455  0.00  0.00    -0.300 N 
ATOM     27  C   UNL     1       6.657   0.041   2.128  0.00  0.00    +0.132 C 
BRANCH  26  28
ATOM     28  C   UNL     1       6.739   0.534   4.616  0.00  0.00    +0.142 C 
BRANCH  28  29
ATOM     29  C   UNL     1       7.601  -0.531   5.242  0.00  0.00    -0.030 A 
ATOM     30  C   UNL     1       7.083  -1.347   6.231  0.00  0.00    +0.005 A 
ATOM     31  C   UNL     1       7.874  -2.324   6.805  0.00  0.00    +0.000 A 
ATOM     32  C   UNL     1       9.183  -2.486   6.391  0.00  0.00    +0.000 A 
ATOM     33  C   UNL     1       9.701  -1.670   5.403  0.00  0.00    +0.000 A 
ATOM     34  C   UNL     1       8.909  -0.696   4.825  0.00  0.00    +0.005 A 
ENDBRANCH  28  29
ENDBRANCH  26  28
ENDBRANCH   5  24
TORSDOF 6
