REMARK  Name = ZINC63195532
REMARK  6 active torsions:
REMARK  status: ('A' for Active; 'I' for Inactive)
REMARK    1  A    between atoms: C_1  and  C_2
REMARK    2  A    between atoms: C_2  and  C_4
REMARK    3  A    between atoms: C_2  and  N_23
REMARK    4  A    between atoms: N_10  and  C_11
REMARK    5  A    between atoms: C_11  and  C_12
REMARK    6  A    between atoms: N_14  and  C_15
REMARK                            x       y       z     vdW  Elec       q    Type
REMARK                         _______ _______ _______ _____ _____    ______ ____
ROOT
ATOM      1  C   UNL     1       2.277  -2.456   0.026  0.00  0.00    +0.181 C 
ENDROOT
BRANCH   1   7
ATOM      2  C   UNL     1       2.234  -0.598   1.577  0.00  0.00    +0.042 C 
ATOM      3  C   UNL     1       2.244  -0.229   3.062  0.00  0.00    +0.017 C 
ATOM      4  C   UNL     1       3.578  -0.658   3.680  0.00  0.00    +0.003 C 
ATOM      5  C   UNL     1       3.768  -2.163   3.471  0.00  0.00    +0.015 C 
ATOM      6  C   UNL     1       3.714  -2.475   1.974  0.00  0.00    +0.085 C 
ATOM      7  N   UNL     1       2.419  -2.047   1.429  0.00  0.00    -0.293 NA
BRANCH   2   9
ATOM      8  C   UNL     1      -0.232  -0.996   1.606  0.00  0.00    -0.013 C 
ATOM      9  C   UNL     1       0.895  -0.189   0.959  0.00  0.00    -0.061 C 
BRANCH   9  10
ATOM     10  N   UNL     1       0.667   1.243   1.189  0.00  0.00    +0.381 N 
ATOM     11  H   UNL     1       1.371   1.779   0.703  0.00  0.00    -0.090 HD
ATOM     12  H   UNL     1      -0.247   1.498   0.845  0.00  0.00    -0.090 HD
ATOM     13  H   UNL     1       0.720   1.438   2.178  0.00  0.00    -0.090 HD
ENDBRANCH   9  10
ENDBRANCH   2   9
ENDBRANCH   1   7
BRANCH   1  14
ATOM     14  C   UNL     1       2.081  -3.949  -0.045  0.00  0.00    +0.231 C 
ATOM     15  O   UNL     1       2.061  -4.607   0.974  0.00  0.00    -0.274 OA
ATOM     16  N   UNL     1       1.927  -4.552  -1.240  0.00  0.00    -0.282 N 
ATOM     17  H   UNL     1       1.858  -4.019  -2.048  0.00  0.00    +0.155 HD
BRANCH  16  18
ATOM     18  C   UNL     1       1.866  -5.949  -1.317  0.00  0.00    +0.070 A 
ATOM     19  C   UNL     1       0.969  -6.652  -0.522  0.00  0.00    +0.064 A 
ATOM     20  C   UNL     1       0.912  -8.031  -0.600  0.00  0.00    +0.022 A 
ATOM     21  C   UNL     1       1.747  -8.711  -1.468  0.00  0.00    +0.003 A 
ATOM     22  C   UNL     1       2.641  -8.015  -2.260  0.00  0.00    +0.022 A 
ATOM     23  C   UNL     1       2.699  -6.635  -2.192  0.00  0.00    +0.064 A 
ATOM     24 CL   UNL     1       3.817  -5.762  -3.193  0.00  0.00    -0.082 Cl
ATOM     25 CL   UNL     1      -0.078  -5.799   0.569  0.00  0.00    -0.082 Cl
ENDBRANCH  16  18
ENDBRANCH   1  14
TORSDOF 5
