REMARK  Name = ZINC03537355
REMARK  9 active torsions:
REMARK  status: ('A' for Active; 'I' for Inactive)
REMARK    1  A    between atoms: C_1  and  N_2
REMARK    2  A    between atoms: C_3  and  N_34
REMARK    3  A    between atoms: C_4  and  C_11
REMARK    4  A    between atoms: N_7  and  C_10
REMARK    5  A    between atoms: C_11  and  C_13
REMARK    6  A    between atoms: C_13  and  S_14
REMARK    7  A    between atoms: S_14  and  C_15
REMARK    8  A    between atoms: N_25  and  C_26
REMARK    9  A    between atoms: C_26  and  C_27
REMARK                            x       y       z     vdW  Elec       q    Type
REMARK                         _______ _______ _______ _____ _____    ______ ____
ROOT
ATOM      1  C   UNL     1      -1.119  -2.032  -0.097  0.00  0.00    +0.173 A 
ATOM      2  N   UNL     1      -1.138  -0.722  -0.103  0.00  0.00    -0.223 NA
ATOM      3  C   UNL     1      -0.001   0.002  -0.139  0.00  0.00    +0.079 A 
ATOM      4  C   UNL     1      -0.021   1.400  -0.144  0.00  0.00    +0.028 A 
ATOM      5  C   UNL     1       1.156   2.093  -0.181  0.00  0.00    +0.002 A 
ATOM      6  C   UNL     1       2.376   1.429  -0.212  0.00  0.00    +0.001 A 
ATOM      7  C   UNL     1       2.428   0.063  -0.208  0.00  0.00    +0.015 A 
ATOM      8  C   UNL     1       1.243  -0.670  -0.171  0.00  0.00    +0.065 A 
ATOM      9  C   UNL     1       1.238  -2.139  -0.164  0.00  0.00    +0.263 A 
ATOM     10  O   UNL     1       2.277  -2.774  -0.190  0.00  0.00    -0.267 OA
ATOM     11  N   UNL     1       0.036  -2.760  -0.127  0.00  0.00    -0.283 N 
ENDROOT
BRANCH   1  12
ATOM     12  S   UNL     1      -2.654  -2.894  -0.048  0.00  0.00    -0.080 S 
BRANCH  12  13
ATOM     13  C   UNL     1      -3.800  -1.494  -0.022  0.00  0.00    +0.157 C 
BRANCH  13  14
ATOM     14  C   UNL     1      -5.218  -2.005   0.022  0.00  0.00    +0.182 C 
ATOM     15  O   UNL     1      -5.432  -3.200   0.034  0.00  0.00    -0.291 OA
BRANCH  14  19
ATOM     16  C   UNL     1     -10.025  -1.081  -0.079  0.00  0.00    +0.155 C 
ATOM     17  N   UNL     1      -8.635  -0.624   0.001  0.00  0.00    -0.284 N 
ATOM     18  C   UNL     1      -7.625  -1.543  -0.034  0.00  0.00    +0.116 A 
ATOM     19  C   UNL     1      -6.295  -1.095   0.049  0.00  0.00    +0.120 A 
ATOM     20  C   UNL     1      -6.064   0.351   0.158  0.00  0.00    +0.269 A 
ATOM     21  O   UNL     1      -4.933   0.796   0.227  0.00  0.00    -0.267 OA
ATOM     22  N   UNL     1      -7.131   1.177   0.179  0.00  0.00    -0.263 N 
ATOM     23  C   UNL     1      -8.380   0.690   0.102  0.00  0.00    +0.333 A 
ATOM     24  O   UNL     1      -9.314   1.468   0.125  0.00  0.00    -0.246 OA
ATOM     25  C   UNL     1      -6.924   2.623   0.287  0.00  0.00    +0.157 C 
BRANCH  18  26
ATOM     26  N   UNL     1      -7.902  -2.870  -0.142  0.00  0.00    -0.344 N 
ATOM     27  H   UNL     1      -7.186  -3.522  -0.082  0.00  0.00    +0.144 HD
ATOM     28  H   UNL     1      -8.816  -3.166  -0.279  0.00  0.00    +0.144 HD
ENDBRANCH  18  26
ENDBRANCH  14  19
ENDBRANCH  13  14
ENDBRANCH  12  13
ENDBRANCH   1  12
BRANCH  11  29
ATOM     29  C   UNL     1      -0.026  -4.224  -0.117  0.00  0.00    +0.162 C 
BRANCH  29  30
ATOM     30  C   UNL     1      -0.088  -4.733  -1.534  0.00  0.00    -0.027 A 
ATOM     31  C   UNL     1      -1.313  -4.920  -2.148  0.00  0.00    +0.008 A 
ATOM     32  C   UNL     1      -1.371  -5.383  -3.449  0.00  0.00    +0.038 A 
ATOM     33  C   UNL     1      -0.203  -5.668  -4.134  0.00  0.00    +0.123 A 
ATOM     34  C   UNL     1       1.023  -5.485  -3.517  0.00  0.00    +0.038 A 
ATOM     35  C   UNL     1       1.079  -5.018  -2.218  0.00  0.00    +0.008 A 
ATOM     36  F   UNL     1      -0.259  -6.124  -5.405  0.00  0.00    -0.205 F 
ENDBRANCH  29  30
ENDBRANCH  11  29
TORSDOF 7
