REMARK  Name = ZINC67442851
REMARK  4 active torsions:
REMARK  status: ('A' for Active; 'I' for Inactive)
REMARK    1  A    between atoms: C_5  and  C_7
REMARK    2  A    between atoms: C_10  and  C_12
REMARK    3  A    between atoms: C_12  and  N_13
REMARK    4  A    between atoms: C_16  and  C_19
REMARK                            x       y       z     vdW  Elec       q    Type
REMARK                         _______ _______ _______ _____ _____    ______ ____
ROOT
ATOM      1  N   UNL     1      -0.412  -5.922   1.348  0.00  0.00    +0.386 N 
ATOM      2  C   UNL     1       0.858  -6.269   1.998  0.00  0.00    -0.077 C 
ATOM      3  C   UNL     1       0.603  -6.629   3.463  0.00  0.00    -0.008 C 
ATOM      4  C   UNL     1      -0.350  -7.826   3.530  0.00  0.00    +0.054 C 
ATOM      5  C   UNL     1      -1.642  -7.480   2.784  0.00  0.00    -0.008 C 
ATOM      6  C   UNL     1      -1.304  -7.088   1.345  0.00  0.00    -0.077 C 
ATOM      7  H   UNL     1      -0.850  -5.166   1.851  0.00  0.00    -0.081 HD
ENDROOT
BRANCH   4   8
ATOM      8  C   UNL     1      -0.668  -8.137   4.970  0.00  0.00    +0.141 A 
ATOM      9  N   UNL     1      -1.242  -7.333   5.827  0.00  0.00    -0.133 NA
ATOM     10  N   UNL     1      -1.365  -7.912   6.970  0.00  0.00    -0.129 NA
ATOM     11  C   UNL     1      -0.868  -9.136   6.900  0.00  0.00    +0.161 A 
ATOM     12  N   UNL     1      -0.415  -9.309   5.615  0.00  0.00    -0.286 N 
ATOM     13  C   UNL     1       0.153 -10.489   5.234  0.00  0.00    +0.094 A 
ATOM     14  C   UNL     1       0.275 -11.505   6.114  0.00  0.00    +0.018 A 
ATOM     15  C   UNL     1      -0.181 -11.360   7.435  0.00  0.00    +0.005 A 
ATOM     16  C   UNL     1      -0.743 -10.186   7.830  0.00  0.00    +0.048 A 
ENDBRANCH   4   8
BRANCH   1  17
ATOM     17  C   UNL     1      -0.152  -5.502  -0.036  0.00  0.00    +0.021 C 
BRANCH  17  21
ATOM     18  C   UNL     1       1.249  -2.160  -0.022  0.00  0.00    +0.250 A 
ATOM     19  N   UNL     1       2.320  -2.919  -0.031  0.00  0.00    -0.107 NA
ATOM     20  N   UNL     1       1.964  -4.156  -0.037  0.00  0.00    -0.114 NA
ATOM     21  C   UNL     1       0.662  -4.234  -0.032  0.00  0.00    +0.202 A 
ATOM     22  O   UNL     1       0.179  -2.980  -0.016  0.00  0.00    -0.422 OA
BRANCH  18  27
ATOM     23  C   UNL     1      -0.017   1.375   0.010  0.00  0.00    +0.001 A 
ATOM     24  C   UNL     1       1.170   2.087   0.002  0.00  0.00    +0.001 A 
ATOM     25  C   UNL     1       2.383   1.422  -0.013  0.00  0.00    +0.021 A 
ATOM     26  C   UNL     1       2.416   0.041  -0.021  0.00  0.00    +0.053 A 
ATOM     27  C   UNL     1       1.222  -0.683  -0.013  0.00  0.00    +0.057 A 
ATOM     28  C   UNL     1       0.002  -0.004   0.002  0.00  0.00    +0.015 A 
ATOM     29 CL   UNL     1       3.939  -0.792  -0.041  0.00  0.00    -0.083 Cl
ENDBRANCH  18  27
ENDBRANCH  17  21
ENDBRANCH   1  17
TORSDOF 4
