REMARK  Name = ZINC26779616
REMARK  7 active torsions:
REMARK  status: ('A' for Active; 'I' for Inactive)
REMARK    1  A    between atoms: C_1  and  C_2
REMARK    2  A    between atoms: C_2  and  C_3
REMARK    3  A    between atoms: C_3  and  C_4
REMARK    4  A    between atoms: C_4  and  N_5
REMARK    5  A    between atoms: C_9  and  C_10
REMARK    6  A    between atoms: C_11  and  N_21
REMARK    7  A    between atoms: N_24  and  C_27
REMARK                            x       y       z     vdW  Elec       q    Type
REMARK                         _______ _______ _______ _____ _____    ______ ____
ROOT
ATOM      1  C   UNL     1       3.161   1.287   8.569  0.00  0.00    +0.081 A 
ATOM      2  C   UNL     1       4.316   1.840   9.170  0.00  0.00    +0.136 A 
ATOM      3  N   UNL     1       4.978   1.140  10.080  0.00  0.00    -0.214 NA
ATOM      4  C   UNL     1       4.588  -0.082  10.442  0.00  0.00    +0.142 A 
ATOM      5  C   UNL     1       5.333  -0.779  11.410  0.00  0.00    +0.047 A 
ATOM      6  C   UNL     1       4.943  -2.030  11.787  0.00  0.00    +0.005 A 
ATOM      7  C   UNL     1       3.804  -2.604  11.204  0.00  0.00    +0.018 A 
ATOM      8  C   UNL     1       3.101  -1.920  10.274  0.00  0.00    +0.096 A 
ATOM      9  N   UNL     1       3.483  -0.668   9.891  0.00  0.00    -0.268 N 
ATOM     10  C   UNL     1       2.757  -0.012   8.960  0.00  0.00    +0.267 A 
ATOM     11  O   UNL     1       1.770  -0.529   8.466  0.00  0.00    -0.267 OA
ENDROOT
BRANCH   1  16
ATOM     12  N   UNL     1       0.903   5.340   7.579  0.00  0.00    -0.255 N 
ATOM     13  C   UNL     1       1.286   4.191   7.051  0.00  0.00    +0.258 C 
ATOM     14  O   UNL     1       1.082   3.943   5.875  0.00  0.00    -0.269 OA
ATOM     15  C   UNL     1       1.944   3.251   7.894  0.00  0.00    +0.077 C 
ATOM     16  C   UNL     1       2.432   2.011   7.597  0.00  0.00    +0.037 C 
ATOM     17  S   UNL     1       1.958   4.137   9.447  0.00  0.00    -0.061 S 
ATOM     18  C   UNL     1       1.134   5.617   8.882  0.00  0.00    +0.121 C 
ATOM     19  S   UNL     1       0.736   7.028   9.766  0.00  0.00    -0.027 S 
BRANCH  12  20
ATOM     20  C   UNL     1       0.224   6.330   6.740  0.00  0.00    +0.115 C 
BRANCH  20  21
ATOM     21  C   UNL     1      -1.286   6.092   6.791  0.00  0.00    +0.019 C 
BRANCH  21  23
ATOM     22  C   UNL     1      -3.506   6.888   5.965  0.00  0.00    +0.004 C 
ATOM     23  C   UNL     1      -1.996   7.126   5.914  0.00  0.00    -0.002 C 
ENDBRANCH  21  23
ENDBRANCH  20  21
ENDBRANCH  12  20
ENDBRANCH   1  16
BRANCH   2  24
ATOM     24  N   UNL     1       4.748   3.099   8.814  0.00  0.00    -0.312 N 
ATOM     25  C   UNL     1       5.165   3.135   7.405  0.00  0.00    +0.125 C 
ATOM     26  C   UNL     1       5.560   4.565   7.029  0.00  0.00    +0.124 C 
ATOM     27  N   UNL     1       6.647   5.017   7.909  0.00  0.00    -0.327 N 
ATOM     28  C   UNL     1       6.230   4.981   9.318  0.00  0.00    +0.124 C 
ATOM     29  C   UNL     1       5.835   3.551   9.694  0.00  0.00    +0.125 C 
BRANCH  27  30
ATOM     30  C   UNL     1       7.085   6.295   7.548  0.00  0.00    +0.030 A 
ATOM     31  C   UNL     1       7.077   7.322   8.482  0.00  0.00    +0.026 A 
ATOM     32  C   UNL     1       7.514   8.583   8.125  0.00  0.00    +0.040 A 
ATOM     33  C   UNL     1       7.951   8.825   6.833  0.00  0.00    +0.124 A 
ATOM     34  C   UNL     1       7.955   7.803   5.899  0.00  0.00    +0.040 A 
ATOM     35  C   UNL     1       7.524   6.540   6.253  0.00  0.00    +0.026 A 
ATOM     36  F   UNL     1       8.374  10.060   6.485  0.00  0.00    -0.205 F 
ENDBRANCH  27  30
ENDBRANCH   2  24
TORSDOF 6
