REMARK  Name = ZINC15958243
REMARK  7 active torsions:
REMARK  status: ('A' for Active; 'I' for Inactive)
REMARK    1  A    between atoms: C_1  and  C_2
REMARK    2  A    between atoms: C_2  and  C_3
REMARK    3  A    between atoms: C_3  and  C_4
REMARK    4  A    between atoms: C_4  and  C_5
REMARK    5  A    between atoms: C_8  and  S_12
REMARK    6  A    between atoms: S_12  and  C_13
REMARK    7  A    between atoms: C_13  and  C_14
REMARK                            x       y       z     vdW  Elec       q    Type
REMARK                         _______ _______ _______ _____ _____    ______ ____
ROOT
ATOM      1  C   UNL     1      -8.764  -4.946  -1.940  0.00  0.00    +0.226 C 
ATOM      2  O   UNL     1      -9.460  -5.122  -0.963  0.00  0.00    -0.275 OA
ATOM      3  N   UNL     1      -9.242  -5.226  -3.169  0.00  0.00    -0.300 N 
ATOM      4  C   UNL     1     -10.606  -5.739  -3.343  0.00  0.00    +0.113 C 
ATOM      5  C   UNL     1     -10.593  -6.983  -4.221  0.00  0.00    +0.027 C 
ATOM      6  C   UNL     1      -9.801  -6.741  -5.506  0.00  0.00    +0.018 C 
ATOM      7  C   UNL     1      -8.368  -6.361  -5.126  0.00  0.00    +0.054 C 
ATOM      8  C   UNL     1      -8.410  -5.019  -4.365  0.00  0.00    +0.117 C 
ATOM      9  C   UNL     1      -7.786  -7.413  -4.212  0.00  0.00    +0.027 A 
ATOM     10  C   UNL     1      -6.436  -7.574  -4.220  0.00  0.00    +0.022 A 
ATOM     11  C   UNL     1      -5.822  -8.483  -3.352  0.00  0.00    +0.007 A 
ATOM     12  C   UNL     1      -6.598  -9.187  -2.479  0.00  0.00    +0.070 A 
ATOM     13  C   UNL     1      -7.987  -8.996  -2.493  0.00  0.00    +0.251 A 
ATOM     14  O   UNL     1      -8.685  -9.571  -1.673  0.00  0.00    -0.268 OA
ATOM     15  N   UNL     1      -8.562  -8.177  -3.408  0.00  0.00    -0.312 N 
ATOM     16  C   UNL     1     -10.017  -8.186  -3.495  0.00  0.00    +0.130 C 
ENDROOT
BRANCH   1  17
ATOM     17  C   UNL     1      -7.362  -4.414  -1.780  0.00  0.00    +0.173 C 
BRANCH  17  18
ATOM     18  S   UNL     1      -7.017  -4.139  -0.021  0.00  0.00    -0.078 S 
BRANCH  18  22
ATOM     19  C   UNL     1      -2.826  -2.585   0.015  0.00  0.00    +0.083 A 
ATOM     20  C   UNL     1      -3.463  -2.920  -1.168  0.00  0.00    +0.281 A 
ATOM     21  N   UNL     1      -4.717  -3.382  -1.139  0.00  0.00    -0.185 NA
ATOM     22  C   UNL     1      -5.365  -3.526  -0.002  0.00  0.00    +0.173 A 
ATOM     23  N   UNL     1      -4.785  -3.210   1.189  0.00  0.00    -0.302 N 
ATOM     24  C   UNL     1      -3.518  -2.745   1.222  0.00  0.00    +0.259 A 
ATOM     25  O   UNL     1      -2.987  -2.465   2.284  0.00  0.00    -0.267 OA
ATOM     26  O   UNL     1      -2.818  -2.780  -2.349  0.00  0.00    -0.265 OA
ATOM     27  H   UNL     1      -5.280  -3.324   2.015  0.00  0.00    +0.171 HD
BRANCH  19  28
ATOM     28  C   UNL     1      -1.413  -2.063   0.004  0.00  0.00    +0.046 C 
BRANCH  28  29
ATOM     29  C   UNL     1      -1.433  -0.534   0.013  0.00  0.00    +0.005 C 
BRANCH  29  31
ATOM     30  C   UNL     1      -0.019   1.526   0.010  0.00  0.00    +0.004 C 
ATOM     31  C   UNL     1       0.002  -0.004   0.002  0.00  0.00    -0.003 C 
ENDBRANCH  29  31
ENDBRANCH  28  29
ENDBRANCH  19  28
ENDBRANCH  18  22
ENDBRANCH  17  18
ENDBRANCH   1  17
TORSDOF 6
