REMARK  Name = ZINC09724487
REMARK  12 active torsions:
REMARK  status: ('A' for Active; 'I' for Inactive)
REMARK    1  A    between atoms: C_1  and  C_2
REMARK    2  A    between atoms: C_2  and  O_3
REMARK    3  A    between atoms: O_3  and  C_4
REMARK    4  A    between atoms: C_4  and  C_5
REMARK    5  A    between atoms: C_5  and  N_6
REMARK    6  A    between atoms: C_10  and  S_27
REMARK    7  A    between atoms: N_15  and  C_16
REMARK    8  A    between atoms: C_16  and  C_18
REMARK    9  A    between atoms: C_21  and  N_24
REMARK   10  A    between atoms: N_24  and  C_25
REMARK   11  A    between atoms: N_24  and  C_26
REMARK   12  A    between atoms: S_27  and  N_30
REMARK                            x       y       z     vdW  Elec       q    Type
REMARK                         _______ _______ _______ _____ _____    ______ ____
ROOT
ATOM      1  N   UNL     1      -0.260   1.261   4.859  0.00  0.00    -0.319 N 
ATOM      2  C   UNL     1      -0.644   0.073   5.452  0.00  0.00    +0.058 A 
ATOM      3  C   UNL     1      -1.610  -0.846   5.013  0.00  0.00    +0.029 A 
ATOM      4  C   UNL     1      -1.865  -1.993   5.728  0.00  0.00    +0.030 A 
ATOM      5  C   UNL     1      -1.176  -2.280   6.895  0.00  0.00    +0.106 A 
ATOM      6  C   UNL     1      -0.214  -1.394   7.347  0.00  0.00    +0.045 A 
ATOM      7  C   UNL     1       0.041  -0.247   6.633  0.00  0.00    +0.041 A 
ATOM      8  S   UNL     1       1.153   1.121   6.842  0.00  0.00    -0.052 S 
ATOM      9  C   UNL     1       0.709   2.026   5.431  0.00  0.00    +0.167 A 
ATOM     10  N   UNL     1       1.198   3.187   5.010  0.00  0.00    -0.152 NA
ENDROOT
BRANCH   5  11
ATOM     11  S   UNL     1      -1.520  -3.756   7.793  0.00  0.00    +0.056 S 
ATOM     12  O   UNL     1      -2.078  -4.676   6.864  0.00  0.00    -0.153 OA
ATOM     13  O   UNL     1      -0.355  -4.051   8.551  0.00  0.00    -0.153 OA
BRANCH  11  14
ATOM     14  N   UNL     1      -2.716  -3.400   8.881  0.00  0.00    -0.204 NA
ATOM     15  H   UNL     1      -3.343  -4.087   9.155  0.00  0.00    +0.144 HD
ATOM     16  H   UNL     1      -2.790  -2.503   9.244  0.00  0.00    +0.144 HD
ENDBRANCH  11  14
ENDBRANCH   5  11
BRANCH  10  17
ATOM     17  C   UNL     1       2.158   3.802   5.709  0.00  0.00    +0.269 C 
ATOM     18  O   UNL     1       2.586   3.296   6.733  0.00  0.00    -0.268 OA
BRANCH  17  19
ATOM     19  C   UNL     1       2.702   5.095   5.240  0.00  0.00    +0.039 A 
ATOM     20  C   UNL     1       2.218   5.672   4.065  0.00  0.00    +0.015 A 
ATOM     21  C   UNL     1       2.722   6.878   3.633  0.00  0.00    +0.024 A 
ATOM     22  C   UNL     1       3.722   7.516   4.362  0.00  0.00    +0.029 A 
ATOM     23  C   UNL     1       4.210   6.941   5.531  0.00  0.00    +0.024 A 
ATOM     24  C   UNL     1       3.705   5.737   5.970  0.00  0.00    +0.015 A 
BRANCH  22  25
ATOM     25  N   UNL     1       4.234   8.733   3.920  0.00  0.00    -0.336 N 
ATOM     26  C   UNL     1       5.194   9.467   4.748  0.00  0.00    +0.129 C 
ATOM     27  C   UNL     1       3.814   9.279   2.627  0.00  0.00    +0.129 C 
ENDBRANCH  22  25
ENDBRANCH  17  19
ENDBRANCH  10  17
BRANCH   1  28
ATOM     28  C   UNL     1      -0.900   1.700   3.617  0.00  0.00    +0.152 C 
BRANCH  28  29
ATOM     29  C   UNL     1      -0.120   1.153   2.420  0.00  0.00    +0.181 C 
BRANCH  29  30
ATOM     30  O   UNL     1      -0.745   1.581   1.208  0.00  0.00    -0.378 OA
BRANCH  30  32
ATOM     31  C   UNL     1      -0.842   1.637  -1.206  0.00  0.00    +0.034 C 
ATOM     32  C   UNL     1      -0.091   1.122   0.023  0.00  0.00    +0.156 C 
ENDBRANCH  30  32
ENDBRANCH  29  30
ENDBRANCH  28  29
ENDBRANCH   1  28
TORSDOF 9
