REMARK  Name = ZINC12465060
REMARK  10 active torsions:
REMARK  status: ('A' for Active; 'I' for Inactive)
REMARK    1  A    between atoms: C_1  and  C_2
REMARK    2  A    between atoms: C_2  and  N_3
REMARK    3  A    between atoms: C_5  and  O_31
REMARK    4  A    between atoms: C_8  and  O_29
REMARK    5  A    between atoms: N_12  and  C_13
REMARK    6  A    between atoms: C_13  and  C_15
REMARK    7  A    between atoms: N_20  and  S_21
REMARK    8  A    between atoms: S_21  and  C_24
REMARK    9  A    between atoms: O_29  and  C_30
REMARK   10  A    between atoms: O_31  and  C_32
REMARK                            x       y       z     vdW  Elec       q    Type
REMARK                         _______ _______ _______ _____ _____    ______ ____
ROOT
ATOM      1  N   UNL     1      -0.020   1.094   2.454  0.00  0.00    -0.318 N 
ATOM      2  C   UNL     1       0.993   1.853   3.013  0.00  0.00    +0.103 A 
ATOM      3  C   UNL     1       1.482   3.104   2.588  0.00  0.00    +0.145 A 
ATOM      4  C   UNL     1       2.507   3.728   3.268  0.00  0.00    +0.051 A 
ATOM      5  C   UNL     1       3.086   3.146   4.383  0.00  0.00    +0.050 A 
ATOM      6  C   UNL     1       2.623   1.914   4.822  0.00  0.00    +0.136 A 
ATOM      7  C   UNL     1       1.597   1.290   4.143  0.00  0.00    +0.084 A 
ATOM      8  S   UNL     1       0.726  -0.242   4.351  0.00  0.00    -0.048 S 
ATOM      9  C   UNL     1      -0.362  -0.099   3.008  0.00  0.00    +0.167 A 
ATOM     10  N   UNL     1      -1.305  -0.953   2.613  0.00  0.00    -0.155 NA
ENDROOT
BRANCH   1  12
ATOM     11  C   UNL     1      -0.013   1.086   0.008  0.00  0.00    +0.027 C 
ATOM     12  C   UNL     1      -0.729   1.579   1.267  0.00  0.00    +0.121 C 
ENDBRANCH   1  12
BRANCH  10  13
ATOM     13  C   UNL     1      -1.500  -2.083   3.284  0.00  0.00    +0.257 C 
ATOM     14  O   UNL     1      -0.819  -2.337   4.259  0.00  0.00    -0.272 OA
BRANCH  13  15
ATOM     15  C   UNL     1      -2.567  -3.049   2.838  0.00  0.00    +0.168 C 
ATOM     16  C   UNL     1      -3.954  -2.377   2.924  0.00  0.00    +0.031 C 
ATOM     17  C   UNL     1      -4.866  -3.526   3.430  0.00  0.00    +0.019 C 
ATOM     18  C   UNL     1      -3.911  -4.284   4.386  0.00  0.00    +0.110 C 
ATOM     19  N   UNL     1      -2.591  -4.215   3.733  0.00  0.00    -0.164 NA
BRANCH  19  20
ATOM     20  S   UNL     1      -1.341  -5.277   3.969  0.00  0.00    +0.068 S 
ATOM     21  O   UNL     1      -1.921  -6.493   4.420  0.00  0.00    -0.152 OA
ATOM     22  O   UNL     1      -0.524  -5.206   2.809  0.00  0.00    -0.152 OA
BRANCH  20  23
ATOM     23  C   UNL     1      -0.375  -4.654   5.304  0.00  0.00    +0.143 A 
ATOM     24  C   UNL     1      -0.497  -4.897   6.633  0.00  0.00    +0.036 A 
ATOM     25  C   UNL     1       0.385  -4.293   7.508  0.00  0.00    +0.010 A 
ATOM     26  C   UNL     1       1.346  -3.475   7.014  0.00  0.00    +0.047 A 
ATOM     27  S   UNL     1       1.025  -3.547   5.259  0.00  0.00    -0.077 S 
ENDBRANCH  20  23
ENDBRANCH  19  20
ENDBRANCH  13  15
ENDBRANCH  10  13
BRANCH   6  28
ATOM     28  O   UNL     1       3.178   1.325   5.916  0.00  0.00    -0.494 OA
ATOM     29  C   UNL     1       4.236   2.031   6.567  0.00  0.00    +0.277 C 
ENDBRANCH   6  28
BRANCH   3  30
ATOM     30  O   UNL     1       0.937   3.705   1.496  0.00  0.00    -0.493 OA
ATOM     31  C   UNL     1       1.476   4.972   1.115  0.00  0.00    +0.277 C 
ENDBRANCH   3  30
TORSDOF 7
