REMARK  Name = ZINC06443625
REMARK  6 active torsions:
REMARK  status: ('A' for Active; 'I' for Inactive)
REMARK    1  A    between atoms: C_1  and  C_2
REMARK    2  A    between atoms: C_12  and  C_14
REMARK    3  A    between atoms: C_14  and  C_16
REMARK    4  A    between atoms: C_14  and  N_65
REMARK    5  A    between atoms: N_20  and  C_21
REMARK    6  A    between atoms: C_28  and  C_31
REMARK                            x       y       z     vdW  Elec       q    Type
REMARK                         _______ _______ _______ _____ _____    ______ ____
ROOT
ATOM      1  C   UNL     1       0.086  -2.865   4.922  0.00  0.00    +0.039 C 
ENDROOT
BRANCH   1  13
ATOM      2  C   UNL     1      -0.018   1.503   0.010  0.00  0.00    +0.046 C 
ATOM      3  C   UNL     1       0.002  -0.004   0.002  0.00  0.00    -0.026 A 
ATOM      4  C   UNL     1      -0.006  -0.690  -1.194  0.00  0.00    +0.005 A 
ATOM      5  C   UNL     1       0.020  -2.077  -1.215  0.00  0.00    +0.001 A 
ATOM      6  C   UNL     1       0.040  -2.790  -0.050  0.00  0.00    +0.010 A 
ATOM      7  C   UNL     1       0.042  -2.116   1.175  0.00  0.00    -0.001 A 
ATOM      8  C   UNL     1       0.023  -0.709   1.201  0.00  0.00    +0.052 A 
ATOM      9  N   UNL     1       0.025  -0.049   2.412  0.00  0.00    -0.322 N 
ATOM     10  H   UNL     1       0.013   0.921   2.428  0.00  0.00    +0.169 HD
ATOM     11  C   UNL     1       0.045  -0.730   3.571  0.00  0.00    +0.251 A 
ATOM     12  O   UNL     1       0.046  -0.114   4.622  0.00  0.00    -0.268 OA
ATOM     13  C   UNL     1       0.064  -2.141   3.600  0.00  0.00    +0.011 A 
ATOM     14  C   UNL     1       0.064  -2.849   2.443  0.00  0.00    +0.017 A 
ENDBRANCH   1  13
BRANCH   1  20
ATOM     15  C   UNL     1      -1.127  -3.189   6.995  0.00  0.00    -0.072 C 
ATOM     16  C   UNL     1      -2.106  -2.484   7.938  0.00  0.00    +0.017 C 
ATOM     17  C   UNL     1      -3.381  -2.173   7.205  0.00  0.00    -0.048 C 
ATOM     18  C   UNL     1      -3.468  -2.188   5.894  0.00  0.00    -0.041 C 
ATOM     19  C   UNL     1      -2.309  -2.522   5.000  0.00  0.00    -0.049 C 
ATOM     20  N   UNL     1      -1.047  -2.395   5.751  0.00  0.00    +0.392 N 
ATOM     21  H   UNL     1      -0.898  -1.409   5.993  0.00  0.00    -0.080 HD
BRANCH  17  22
ATOM     22  C   UNL     1      -4.587  -1.838   7.992  0.00  0.00    -0.022 A 
ATOM     23  C   UNL     1      -4.615  -0.681   8.771  0.00  0.00    +0.011 A 
ATOM     24  C   UNL     1      -5.744  -0.370   9.499  0.00  0.00    +0.039 A 
ATOM     25  C   UNL     1      -6.846  -1.210   9.467  0.00  0.00    +0.123 A 
ATOM     26  C   UNL     1      -6.821  -2.364   8.699  0.00  0.00    +0.039 A 
ATOM     27  C   UNL     1      -5.698  -2.681   7.963  0.00  0.00    +0.011 A 
ATOM     28  F   UNL     1      -7.947  -0.904  10.186  0.00  0.00    -0.205 F 
ENDBRANCH  17  22
ENDBRANCH   1  20
BRANCH   1  29
ATOM     29  C   UNL     1       1.377  -2.561   5.639  0.00  0.00    +0.143 A 
ATOM     30  N   UNL     1       1.691  -1.442   6.245  0.00  0.00    -0.115 NA
ATOM     31  N   UNL     1       2.875  -1.575   6.736  0.00  0.00    -0.023 NA
ATOM     32  N   UNL     1       3.327  -2.746   6.452  0.00  0.00    -0.044 NA
ATOM     33  N   UNL     1       2.432  -3.385   5.777  0.00  0.00    -0.227 N 
BRANCH  33  34
ATOM     34  C   UNL     1       2.545  -4.750   5.256  0.00  0.00    +0.111 C 
ATOM     35  C   UNL     1       2.815  -5.735   6.412  0.00  0.00    +0.027 C 
ATOM     36  C   UNL     1       3.796  -6.771   5.806  0.00  0.00    +0.002 C 
ATOM     37  C   UNL     1       4.705  -5.896   4.907  0.00  0.00    +0.002 C 
ATOM     38  C   UNL     1       3.746  -4.852   4.300  0.00  0.00    +0.027 C 
ENDBRANCH  33  34
ENDBRANCH   1  29
TORSDOF 5
