REMARK  Name = ZINC37989058
REMARK  6 active torsions:
REMARK  status: ('A' for Active; 'I' for Inactive)
REMARK    1  A    between atoms: C_1  and  N_2
REMARK    2  A    between atoms: C_6  and  C_7
REMARK    3  A    between atoms: C_7  and  N_8
REMARK    4  A    between atoms: N_8  and  C_9
REMARK    5  A    between atoms: C_9  and  C_10
REMARK    6  A    between atoms: C_14  and  N_16
REMARK                            x       y       z     vdW  Elec       q    Type
REMARK                         _______ _______ _______ _____ _____    ______ ____
ROOT
ATOM      1  C   UNL     1      -1.381   0.133   4.418  0.00  0.00    +0.116 C 
ENDROOT
BRANCH   1   2
ATOM      2  C   UNL     1      -2.812   0.244   4.878  0.00  0.00    -0.031 A 
ATOM      3  C   UNL     1      -3.489   1.443   4.746  0.00  0.00    +0.006 A 
ATOM      4  C   UNL     1      -4.801   1.546   5.167  0.00  0.00    +0.018 A 
ATOM      5  C   UNL     1      -5.438   0.449   5.720  0.00  0.00    +0.048 A 
ATOM      6  C   UNL     1      -4.761  -0.750   5.851  0.00  0.00    +0.140 A 
ATOM      7  C   UNL     1      -3.450  -0.853   5.426  0.00  0.00    +0.038 A 
ATOM      8 BR   UNL     1      -7.233   0.589   6.296  0.00  0.00    -0.048 Br
BRANCH   6   9
ATOM      9  N   UNL     1      -5.441  -1.923   6.444  0.00  0.00    +0.058 N 
ATOM     10  O   UNL     1      -4.849  -2.971   6.559  0.00  0.00    -0.126 OA
ATOM     11  O   UNL     1      -6.589  -1.834   6.812  0.00  0.00    -0.126 OA
ENDBRANCH   6   9
ENDBRANCH   1   2
BRANCH   1  12
ATOM     12  N   UNL     1      -1.350  -0.281   3.009  0.00  0.00    -0.305 NA
ATOM     13  H   UNL     1      -1.881   0.356   2.434  0.00  0.00    +0.123 HD
BRANCH  12  14
ATOM     14  C   UNL     1       0.032  -0.400   2.526  0.00  0.00    +0.158 C 
BRANCH  14  20
ATOM     15  C   UNL     1      -0.018   1.461   0.010  0.00  0.00    +0.151 C 
ATOM     16  N   UNL     1       0.002  -0.004   0.002  0.00  0.00    -0.319 N 
ATOM     17  C   UNL     1       0.009  -0.813  -1.085  0.00  0.00    +0.224 A 
ATOM     18  N   UNL     1       0.027  -2.044  -0.652  0.00  0.00    -0.138 NA
ATOM     19  N   UNL     1       0.032  -2.051   0.634  0.00  0.00    -0.133 NA
ATOM     20  C   UNL     1       0.024  -0.825   1.080  0.00  0.00    +0.147 A 
ENDBRANCH  14  20
ENDBRANCH  12  14
ENDBRANCH   1  12
TORSDOF 5
