REMARK  Name = ZINC00781276
REMARK  13 active torsions:
REMARK  status: ('A' for Active; 'I' for Inactive)
REMARK    1  A    between atoms: C_1  and  C_2
REMARK    2  A    between atoms: C_2  and  C_3
REMARK    3  A    between atoms: C_3  and  C_5
REMARK    4  A    between atoms: C_3  and  O_6
REMARK    5  A    between atoms: O_6  and  C_7
REMARK    6  A    between atoms: C_7  and  C_9
REMARK    7  A    between atoms: C_10  and  C_28
REMARK    8  A    between atoms: C_15  and  C_17
REMARK    9  A    between atoms: C_19  and  O_26
REMARK   10  A    between atoms: C_20  and  O_25
REMARK   11  A    between atoms: C_21  and  O_23
REMARK   12  A    between atoms: O_23  and  C_24
REMARK   13  A    between atoms: O_26  and  C_27
REMARK                            x       y       z     vdW  Elec       q    Type
REMARK                         _______ _______ _______ _____ _____    ______ ____
ROOT
ATOM      1  C   UNL     1       1.927   1.262   0.389  0.00  0.00    +0.078 C 
ATOM      2  C   UNL     1       2.558   1.848  -0.651  0.00  0.00    +0.021 C 
ATOM      3  N   UNL     1       1.884   2.166  -1.796  0.00  0.00    -0.273 N 
ATOM      4  C   UNL     1       0.579   1.930  -1.979  0.00  0.00    +0.304 C 
ATOM      5  O   UNL     1       0.066   2.248  -3.034  0.00  0.00    -0.252 OA
ATOM      6  N   UNL     1      -0.185   1.351  -1.032  0.00  0.00    -0.288 N 
ATOM      7  C   UNL     1       0.447   0.969   0.242  0.00  0.00    +0.144 C 
ATOM      8  C   UNL     1       4.029   2.157  -0.547  0.00  0.00    +0.061 C 
ATOM      9  H   UNL     1       2.379   2.586  -2.517  0.00  0.00    +0.156 HD
ATOM     10  H   UNL     1      -1.129   1.189  -1.186  0.00  0.00    +0.151 HD
ENDROOT
BRANCH   7  11
ATOM     11  C   UNL     1      -0.280   1.682   1.353  0.00  0.00    -0.015 A 
ATOM     12  C   UNL     1      -0.443   3.053   1.300  0.00  0.00    +0.055 A 
ATOM     13  C   UNL     1      -1.117   3.712   2.318  0.00  0.00    +0.165 A 
ATOM     14  C   UNL     1      -1.618   2.993   3.396  0.00  0.00    +0.201 A 
ATOM     15  C   UNL     1      -1.447   1.615   3.448  0.00  0.00    +0.165 A 
ATOM     16  C   UNL     1      -0.777   0.963   2.424  0.00  0.00    +0.055 A 
BRANCH  15  17
ATOM     17  O   UNL     1      -1.936   0.907   4.501  0.00  0.00    -0.491 OA
ATOM     18  C   UNL     1      -1.624  -0.487   4.546  0.00  0.00    +0.277 C 
ENDBRANCH  15  17
BRANCH  14  19
ATOM     19  O   UNL     1      -2.275   3.637   4.399  0.00  0.00    -0.501 OA
ATOM     20  H   UNL     1      -1.701   3.934   5.118  0.00  0.00    +0.292 HD
ENDBRANCH  14  19
BRANCH  13  21
ATOM     21  O   UNL     1      -1.282   5.061   2.263  0.00  0.00    -0.491 OA
ATOM     22  C   UNL     1      -0.741   5.735   1.125  0.00  0.00    +0.277 C 
ENDBRANCH  13  21
ENDBRANCH   7  11
BRANCH   1  23
ATOM     23  C   UNL     1       2.623   0.932   1.575  0.00  0.00    +0.339 C 
ATOM     24  O   UNL     1       2.961  -0.219   1.782  0.00  0.00    -0.245 OA
BRANCH  23  25
ATOM     25  O   UNL     1       2.913   1.893   2.477  0.00  0.00    -0.458 OA
BRANCH  25  26
ATOM     26  C   UNL     1       3.689   1.504   3.612  0.00  0.00    +0.173 C 
ATOM     27  C   UNL     1       2.767   0.920   4.684  0.00  0.00    +0.052 C 
BRANCH  26  29
ATOM     28  C   UNL     1       5.422   3.242   3.145  0.00  0.00    +0.007 C 
ATOM     29  C   UNL     1       4.416   2.727   4.176  0.00  0.00    +0.041 C 
ENDBRANCH  26  29
ENDBRANCH  25  26
ENDBRANCH  23  25
ENDBRANCH   1  23
TORSDOF 8
