REMARK  Name = ZINC14329283
REMARK  9 active torsions:
REMARK  status: ('A' for Active; 'I' for Inactive)
REMARK    1  A    between atoms: C_1  and  C_2
REMARK    2  A    between atoms: C_2  and  C_4
REMARK    3  A    between atoms: C_2  and  N_61
REMARK    4  A    between atoms: N_9  and  C_10
REMARK    5  A    between atoms: C_10  and  C_11
REMARK    6  A    between atoms: C_10  and  C_12
REMARK    7  A    between atoms: C_10  and  C_13
REMARK    8  A    between atoms: C_16  and  C_19
REMARK    9  A    between atoms: C_19  and  C_21
REMARK                            x       y       z     vdW  Elec       q    Type
REMARK                         _______ _______ _______ _____ _____    ______ ____
ROOT
ATOM      1  C   UNL     1      -7.161  -0.454   0.097  0.00  0.00    -0.077 C 
ATOM      2  C   UNL     1      -5.921  -1.273   0.463  0.00  0.00    -0.007 C 
ATOM      3  C   UNL     1      -4.953  -0.396   1.262  0.00  0.00    +0.057 C 
ATOM      4  C   UNL     1      -5.667   0.136   2.509  0.00  0.00    -0.007 C 
ATOM      5  C   UNL     1      -6.915   0.913   2.083  0.00  0.00    -0.077 C 
ATOM      6  N   UNL     1      -7.816   0.007   1.340  0.00  0.00    +0.387 N 
ATOM      7  H   UNL     1      -8.027  -0.809   1.927  0.00  0.00    -0.081 HD
ENDROOT
BRANCH   6   9
ATOM      8  C   UNL     1      -8.866   1.695  -0.130  0.00  0.00    -0.004 C 
ATOM      9  C   UNL     1      -9.078   0.704   1.017  0.00  0.00    +0.017 C 
BRANCH   9  10
ATOM     10  C   UNL     1     -10.105  -0.321   0.611  0.00  0.00    +0.207 C 
ATOM     11  O   UNL     1      -9.761  -1.452   0.343  0.00  0.00    -0.277 OA
ATOM     12  N   UNL     1     -11.408   0.020   0.545  0.00  0.00    -0.242 N 
ATOM     13  C   UNL     1     -12.327  -0.896   0.182  0.00  0.00    +0.306 C 
ATOM     14  O   UNL     1     -11.981  -2.030  -0.086  0.00  0.00    -0.252 OA
ATOM     15  N   UNL     1     -13.629  -0.555   0.116  0.00  0.00    -0.294 N 
ATOM     16  H   UNL     1     -11.684   0.925   0.759  0.00  0.00    +0.159 HD
ATOM     17  H   UNL     1     -13.905   0.350   0.330  0.00  0.00    +0.151 HD
BRANCH  15  18
ATOM     18  C   UNL     1     -14.628  -1.552  -0.279  0.00  0.00    +0.028 C 
ATOM     19  C   UNL     1     -14.601  -2.720   0.709  0.00  0.00    +0.031 C 
ATOM     20  C   UNL     1     -16.017  -0.911  -0.274  0.00  0.00    +0.031 C 
ATOM     21  C   UNL     1     -14.309  -2.065  -1.684  0.00  0.00    +0.031 C 
ENDBRANCH  15  18
ENDBRANCH   9  10
ENDBRANCH   6   9
BRANCH   3  22
ATOM     22  C   UNL     1      -3.758  -1.215   1.677  0.00  0.00    +0.166 C 
ATOM     23  O   UNL     1      -3.855  -2.419   1.784  0.00  0.00    -0.292 OA
BRANCH  22  24
ATOM     24  C   UNL     1      -2.476  -0.554   1.953  0.00  0.00    +0.021 A 
ATOM     25  C   UNL     1      -2.361   0.836   1.831  0.00  0.00    +0.015 A 
ATOM     26  C   UNL     1      -1.156   1.451   2.085  0.00  0.00    +0.050 A 
ATOM     27  C   UNL     1      -0.052   0.698   2.471  0.00  0.00    +0.162 A 
ATOM     28  C   UNL     1      -0.159  -0.686   2.597  0.00  0.00    +0.163 A 
ATOM     29  C   UNL     1      -1.364  -1.312   2.339  0.00  0.00    +0.060 A 
ATOM     30  O   UNL     1       0.913  -1.436   2.974  0.00  0.00    -0.485 OA
ATOM     31  C   UNL     1       2.200  -0.819   2.861  0.00  0.00    +0.270 C 
ATOM     32  C   UNL     1       2.109   0.593   3.455  0.00  0.00    +0.270 C 
ATOM     33  O   UNL     1       1.127   1.328   2.716  0.00  0.00    -0.485 OA
ENDBRANCH  22  24
ENDBRANCH   3  22
TORSDOF 5
