REMARK  Name = ZINC08877690
REMARK  5 active torsions:
REMARK  status: ('A' for Active; 'I' for Inactive)
REMARK    1  A    between atoms: C_1  and  C_2
REMARK    2  A    between atoms: C_10  and  C_36
REMARK    3  A    between atoms: C_15  and  C_16
REMARK    4  A    between atoms: C_16  and  C_17
REMARK    5  A    between atoms: C_17  and  C_18
REMARK                            x       y       z     vdW  Elec       q    Type
REMARK                         _______ _______ _______ _____ _____    ______ ____
ROOT
ATOM      1  C   UNL     1       3.362   2.088  -6.359  0.00  0.00    +0.045 C 
ATOM      2  C   UNL     1       2.304   1.699  -7.359  0.00  0.00    -0.030 A 
ATOM      3  C   UNL     1       2.659   1.047  -8.624  0.00  0.00    +0.022 A 
ATOM      4  C   UNL     1       3.992   0.772  -8.932  0.00  0.00    +0.023 A 
ATOM      5  C   UNL     1       4.301   0.161 -10.139  0.00  0.00    +0.025 A 
ATOM      6  C   UNL     1       5.542  -0.268 -10.784  0.00  0.00    +0.001 A 
ATOM      7  C   UNL     1       5.198  -0.805 -11.966  0.00  0.00    +0.109 A 
ATOM      8  O   UNL     1       3.864  -0.754 -12.117  0.00  0.00    -0.459 OA
ATOM      9  C   UNL     1       3.275  -0.181 -11.046  0.00  0.00    +0.142 A 
ATOM     10  C   UNL     1       1.954   0.096 -10.732  0.00  0.00    +0.035 A 
ATOM     11  C   UNL     1       1.634   0.707  -9.530  0.00  0.00    +0.146 A 
ATOM     12  O   UNL     1       0.345   0.973  -9.234  0.00  0.00    -0.422 OA
ATOM     13  C   UNL     1       0.026   1.562  -8.077  0.00  0.00    +0.341 A 
ATOM     14  O   UNL     1      -1.147   1.788  -7.843  0.00  0.00    -0.245 OA
ATOM     15  C   UNL     1       0.989   1.935  -7.117  0.00  0.00    +0.041 A 
ATOM     16  C   UNL     1       0.860  -0.269 -11.702  0.00  0.00    +0.051 C 
ATOM     17  C   UNL     1       6.198  -1.369 -12.949  0.00  0.00    +0.075 C 
ATOM     18  C   UNL     1       7.591  -0.847 -12.582  0.00  0.00    +0.008 C 
ATOM     19  C   UNL     1       7.849  -1.084 -11.091  0.00  0.00    +0.005 C 
ATOM     20  C   UNL     1       6.952  -0.152 -10.267  0.00  0.00    +0.039 C 
ENDROOT
BRANCH  15  21
ATOM     21  C   UNL     1       0.561   2.597  -5.833  0.00  0.00    +0.052 C 
BRANCH  21  22
ATOM     22  C   UNL     1       0.293   1.528  -4.772  0.00  0.00    +0.101 C 
BRANCH  22  23
ATOM     23  C   UNL     1      -0.135   2.190  -3.488  0.00  0.00    +0.216 C 
ATOM     24  O   UNL     1      -0.217   3.398  -3.427  0.00  0.00    -0.276 OA
ATOM     25  N   UNL     1      -0.426   1.439  -2.407  0.00  0.00    -0.301 N 
ATOM     26  C   UNL     1      -0.844   2.067  -1.148  0.00  0.00    +0.113 C 
ATOM     27  C   UNL     1      -0.019   1.525   0.010  0.00  0.00    +0.027 C 
ATOM     28  C   UNL     1       0.002  -0.004   0.002  0.00  0.00    +0.018 C 
ATOM     29  C   UNL     1       0.604  -0.471  -1.326  0.00  0.00    +0.054 C 
ATOM     30  C   UNL     1      -0.332  -0.029  -2.463  0.00  0.00    +0.117 C 
ATOM     31  C   UNL     1       1.941   0.199  -1.543  0.00  0.00    +0.027 A 
ATOM     32  C   UNL     1       2.853  -0.457  -2.310  0.00  0.00    +0.022 A 
ATOM     33  C   UNL     1       4.087   0.131  -2.607  0.00  0.00    +0.007 A 
ATOM     34  C   UNL     1       4.349   1.385  -2.139  0.00  0.00    +0.070 A 
ATOM     35  C   UNL     1       3.386   2.036  -1.355  0.00  0.00    +0.251 A 
ATOM     36  O   UNL     1       3.583   3.181  -0.982  0.00  0.00    -0.268 OA
ATOM     37  N   UNL     1       2.238   1.405  -1.006  0.00  0.00    -0.312 N 
ATOM     38  C   UNL     1       1.401   2.061  -0.000  0.00  0.00    +0.130 C 
ENDBRANCH  22  23
ENDBRANCH  21  22
ENDBRANCH  15  21
TORSDOF 3
