REMARK  Name = ZINC38744607
REMARK  7 active torsions:
REMARK  status: ('A' for Active; 'I' for Inactive)
REMARK    1  A    between atoms: C_1  and  C_2
REMARK    2  A    between atoms: C_2  and  C_3
REMARK    3  A    between atoms: C_2  and  C_4
REMARK    4  A    between atoms: C_6  and  C_10
REMARK    5  A    between atoms: C_14  and  C_19
REMARK    6  A    between atoms: C_19  and  O_20
REMARK    7  A    between atoms: O_20  and  C_21
REMARK                            x       y       z     vdW  Elec       q    Type
REMARK                         _______ _______ _______ _____ _____    ______ ____
ROOT
ATOM      1  C   UNL     1      -3.607  -3.034  -0.220  0.00  0.00    +0.182 C 
ATOM      2  N   UNL     1      -4.997  -3.293   0.240  0.00  0.00    -0.265 N 
ATOM      3  N   UNL     1      -5.122  -4.288   1.165  0.00  0.00    -0.221 N 
ATOM      4  C   UNL     1      -6.123  -5.120   1.632  0.00  0.00    +0.189 A 
ATOM      5  N   UNL     1      -5.625  -5.852   2.584  0.00  0.00    -0.128 NA
ATOM      6  N   UNL     1      -4.382  -5.568   2.755  0.00  0.00    -0.121 NA
ATOM      7  C   UNL     1      -4.030  -4.648   1.912  0.00  0.00    +0.211 A 
ATOM      8  S   UNL     1      -2.708  -3.638   1.274  0.00  0.00    -0.058 S 
ATOM      9  H   UNL     1      -5.436  -2.443   0.562  0.00  0.00    +0.168 HD
ENDROOT
BRANCH   1  12
ATOM     10  C   UNL     1      -1.412  -0.526   0.013  0.00  0.00    +0.064 C 
ATOM     11  C   UNL     1      -1.940  -1.303  -0.935  0.00  0.00    +0.029 C 
ATOM     12  C   UNL     1      -3.362  -1.543  -0.460  0.00  0.00    +0.185 C 
ATOM     13  N   UNL     1      -3.420  -0.792   0.805  0.00  0.00    -0.177 NA
ATOM     14  N   UNL     1      -2.315  -0.275   0.986  0.00  0.00    -0.158 NA
BRANCH  10  16
ATOM     15  C   UNL     1      -0.019   1.526   0.010  0.00  0.00    +0.014 C 
ATOM     16  C   UNL     1       0.002  -0.004   0.002  0.00  0.00    +0.033 C 
ATOM     17  C   UNL     1       0.742  -0.511   1.242  0.00  0.00    +0.014 C 
ENDBRANCH  10  16
ENDBRANCH   1  12
BRANCH   4  18
ATOM     18  C   UNL     1      -7.543  -5.170   1.127  0.00  0.00    +0.306 C 
BRANCH  18  19
ATOM     19  O   UNL     1      -7.637  -6.119   0.064  0.00  0.00    -0.484 OA
BRANCH  19  20
ATOM     20  C   UNL     1      -8.858  -6.286  -0.507  0.00  0.00    +0.129 A 
ATOM     21  C   UNL     1      -9.929  -5.561  -0.066  0.00  0.00    +0.046 A 
ATOM     22  C   UNL     1     -11.187  -5.721  -0.640  0.00  0.00    +0.004 A 
ATOM     23  C   UNL     1     -11.388  -6.603  -1.657  0.00  0.00    +0.009 A 
ATOM     24  C   UNL     1     -10.312  -7.368  -2.140  0.00  0.00    -0.014 A 
ATOM     25  C   UNL     1      -9.029  -7.205  -1.562  0.00  0.00    +0.024 A 
ATOM     26  C   UNL     1      -7.953  -7.966  -2.047  0.00  0.00    +0.012 A 
ATOM     27  C   UNL     1      -8.155  -8.845  -3.068  0.00  0.00    +0.001 A 
ATOM     28  C   UNL     1      -9.416  -9.001  -3.640  0.00  0.00    +0.001 A 
ATOM     29  C   UNL     1     -10.484  -8.288  -3.188  0.00  0.00    +0.008 A 
ENDBRANCH  19  20
ENDBRANCH  18  19
ENDBRANCH   4  18
TORSDOF 5
