REMARK  Name = ZINC38006756
REMARK  4 active torsions:
REMARK  status: ('A' for Active; 'I' for Inactive)
REMARK    1  A    between atoms: C_1  and  C_2
REMARK    2  A    between atoms: C_12  and  C_13
REMARK    3  A    between atoms: N_15  and  C_16
REMARK    4  A    between atoms: C_16  and  C_17
REMARK                            x       y       z     vdW  Elec       q    Type
REMARK                         _______ _______ _______ _____ _____    ______ ____
ROOT
ATOM      1  C   UNL     1      -0.018   1.503   0.010  0.00  0.00    +0.046 C 
ATOM      2  C   UNL     1       0.002  -0.004   0.002  0.00  0.00    -0.017 A 
ATOM      3  C   UNL     1       0.005  -0.697  -1.210  0.00  0.00    +0.076 A 
ATOM      4  C   UNL     1      -0.009  -0.166  -2.592  0.00  0.00    +0.260 A 
ATOM      5  O   UNL     1      -0.026   1.034  -2.800  0.00  0.00    -0.267 OA
ATOM      6  N   UNL     1      -0.002  -1.044  -3.614  0.00  0.00    -0.313 N 
ATOM      7  H   UNL     1      -0.011  -0.713  -4.526  0.00  0.00    +0.170 HD
ATOM      8  C   UNL     1       0.018  -2.382  -3.395  0.00  0.00    +0.200 A 
ATOM      9  N   UNL     1       0.031  -2.883  -2.190  0.00  0.00    -0.230 NA
ATOM     10  C   UNL     1       0.025  -2.107  -1.113  0.00  0.00    +0.116 A 
ATOM     11  S   UNL     1       0.038  -2.395   0.638  0.00  0.00    -0.064 S 
ATOM     12  C   UNL     1       0.023  -0.694   1.179  0.00  0.00    +0.079 A 
ENDROOT
BRANCH  12  13
ATOM     13  C   UNL     1       0.030  -0.168   2.547  0.00  0.00    +0.251 C 
ATOM     14  O   UNL     1       0.016   1.034   2.738  0.00  0.00    -0.270 OA
ATOM     15  N   UNL     1       0.052  -1.016   3.595  0.00  0.00    -0.307 N 
ATOM     16  H   UNL     1       0.063  -1.974   3.443  0.00  0.00    +0.149 HD
BRANCH  15  17
ATOM     17  C   UNL     1       0.059  -0.491   4.963  0.00  0.00    +0.143 C 
BRANCH  17  18
ATOM     18  C   UNL     1       0.084  -1.638   5.941  0.00  0.00    +0.007 A 
ATOM     19  C   UNL     1      -0.997  -2.261   6.464  0.00  0.00    +0.110 A 
ATOM     20  N   UNL     1      -0.552  -3.229   7.293  0.00  0.00    -0.284 N 
ATOM     21  H   UNL     1      -1.105  -3.838   7.808  0.00  0.00    +0.188 HD
ATOM     22  N   UNL     1       0.848  -3.199   7.278  0.00  0.00    -0.182 NA
ATOM     23  C   UNL     1       1.228  -2.249   6.463  0.00  0.00    +0.139 A 
ENDBRANCH  17  18
ENDBRANCH  15  17
ENDBRANCH  12  13
TORSDOF 3
