REMARK  Name = ZINC59286516
REMARK  10 active torsions:
REMARK  status: ('A' for Active; 'I' for Inactive)
REMARK    1  A    between atoms: C_1  and  C_2
REMARK    2  A    between atoms: C_5  and  C_35
REMARK    3  A    between atoms: N_8  and  C_10
REMARK    4  A    between atoms: C_10  and  C_11
REMARK    5  A    between atoms: C_16  and  C_17
REMARK    6  A    between atoms: C_17  and  N_18
REMARK    7  A    between atoms: C_19  and  C_21
REMARK    8  A    between atoms: C_21  and  N_22
REMARK    9  A    between atoms: N_29  and  C_30
REMARK   10  A    between atoms: N_31  and  C_34
REMARK                            x       y       z     vdW  Elec       q    Type
REMARK                         _______ _______ _______ _____ _____    ______ ____
ROOT
ATOM      1  N   UNL     1       1.148  -2.905   4.014  0.00  0.00    -0.310 N 
ATOM      2  C   UNL     1       0.815  -4.160   3.653  0.00  0.00    +0.233 C 
ATOM      3  O   UNL     1      -0.072  -4.344   2.847  0.00  0.00    -0.274 OA
ATOM      4  H   UNL     1       1.858  -2.758   4.659  0.00  0.00    +0.149 HD
ENDROOT
BRANCH   1   5
ATOM      5  C   UNL     1       0.437  -1.763   3.434  0.00  0.00    +0.139 C 
BRANCH   5  11
ATOM      6  C   UNL     1       2.197   0.013   3.329  0.00  0.00    -0.059 A 
ATOM      7  C   UNL     1       2.761   1.192   3.781  0.00  0.00    +0.002 A 
ATOM      8  C   UNL     1       2.186   1.872   4.838  0.00  0.00    +0.000 A 
ATOM      9  C   UNL     1       1.047   1.374   5.443  0.00  0.00    +0.000 A 
ATOM     10  C   UNL     1       0.483   0.197   4.990  0.00  0.00    +0.005 A 
ATOM     11  C   UNL     1       1.056  -0.482   3.930  0.00  0.00    -0.029 A 
BRANCH   6  12
ATOM     12  C   UNL     1       2.824  -0.729   2.177  0.00  0.00    -0.043 C 
BRANCH  12  18
ATOM     13  C   UNL     1       4.785  -3.178   4.999  0.00  0.00    +0.005 C 
ATOM     14  C   UNL     1       5.647  -2.356   4.039  0.00  0.00    -0.031 C 
ATOM     15  C   UNL     1       6.171  -3.261   2.920  0.00  0.00    +0.003 C 
ATOM     16  C   UNL     1       4.984  -3.798   2.114  0.00  0.00    -0.031 C 
ATOM     17  C   UNL     1       4.166  -2.622   1.575  0.00  0.00    -0.075 C 
ATOM     18  N   UNL     1       3.673  -1.811   2.695  0.00  0.00    +0.383 N 
ATOM     19  C   UNL     1       4.805  -1.233   3.430  0.00  0.00    -0.075 C 
ATOM     20  C   UNL     1       5.499  -4.641   0.946  0.00  0.00    +0.005 C 
ATOM     21  H   UNL     1       3.131  -2.392   3.317  0.00  0.00    -0.081 HD
ENDBRANCH  12  18
ENDBRANCH   6  12
ENDBRANCH   5  11
ENDBRANCH   1   5
BRANCH   2  22
ATOM     22  C   UNL     1       1.546  -5.335   4.250  0.00  0.00    +0.225 C 
BRANCH  22  23
ATOM     23  N   UNL     1       1.003  -6.580   3.699  0.00  0.00    -0.250 N 
ATOM     24  C   UNL     1      -0.031  -7.185   4.320  0.00  0.00    +0.283 A 
ATOM     25  O   UNL     1      -0.511  -6.703   5.330  0.00  0.00    -0.265 OA
ATOM     26  C   UNL     1      -0.550  -8.383   3.784  0.00  0.00    +0.151 A 
ATOM     27  C   UNL     1       0.017  -8.911   2.631  0.00  0.00    +0.168 A 
ATOM     28  N   UNL     1      -0.649 -10.031   2.339  0.00  0.00    -0.218 NA
ATOM     29  C   UNL     1      -1.587 -10.234   3.229  0.00  0.00    +0.202 A 
ATOM     30  N   UNL     1      -1.567  -9.245   4.143  0.00  0.00    -0.328 N 
ATOM     31  C   UNL     1      -2.457  -9.109   5.300  0.00  0.00    +0.150 C 
ATOM     32  N   UNL     1       1.077  -8.242   2.041  0.00  0.00    -0.280 N 
ATOM     33  C   UNL     1       1.538  -7.098   2.581  0.00  0.00    +0.334 A 
ATOM     34  O   UNL     1       2.466  -6.522   2.046  0.00  0.00    -0.246 OA
ATOM     35  C   UNL     1       1.693  -8.777   0.824  0.00  0.00    +0.155 C 
ENDBRANCH  22  23
ENDBRANCH   2  22
TORSDOF 6
