REMARK  Name = ZINC38277242
REMARK  8 active torsions:
REMARK  status: ('A' for Active; 'I' for Inactive)
REMARK    1  A    between atoms: C_4  and  C_7
REMARK    2  A    between atoms: C_8  and  C_9
REMARK    3  A    between atoms: C_9  and  C_11
REMARK    4  A    between atoms: C_14  and  O_17
REMARK    5  A    between atoms: O_17  and  C_18
REMARK    6  A    between atoms: C_20  and  O_40
REMARK    7  A    between atoms: C_22  and  O_39
REMARK    8  A    between atoms: C_31  and  C_34
REMARK                            x       y       z     vdW  Elec       q    Type
REMARK                         _______ _______ _______ _____ _____    ______ ____
ROOT
ATOM      1  C   UNL     1       6.370  -8.970  -0.102  0.00  0.00    +0.339 C 
ATOM      2  C   UNL     1       6.195 -10.485   0.023  0.00  0.00    +0.214 C 
ATOM      3  C   UNL     1       5.448 -11.022  -1.204  0.00  0.00    +0.180 C 
ATOM      4  C   UNL     1       6.221 -10.614  -2.458  0.00  0.00    +0.184 C 
ATOM      5  C   UNL     1       6.338  -9.084  -2.486  0.00  0.00    +0.179 C 
ATOM      6  O   UNL     1       7.043  -8.656  -1.325  0.00  0.00    -0.331 OA
ATOM      7  C   UNL     1       7.075  -8.679  -3.763  0.00  0.00    +0.197 C 
ATOM      8  O   UNL     1       6.372  -9.231  -4.884  0.00  0.00    -0.342 OA
ATOM      9  C   UNL     1       6.220 -10.650  -4.843  0.00  0.00    +0.319 C 
ATOM     10  O   UNL     1       5.546 -11.040  -3.642  0.00  0.00    -0.336 OA
ENDROOT
BRANCH   9  11
ATOM     11  C   UNL     1       5.414 -11.101  -6.034  0.00  0.00    +0.161 A 
ATOM     12  C   UNL     1       5.750 -10.922  -7.325  0.00  0.00    +0.050 A 
ATOM     13  C   UNL     1       4.716 -11.496  -8.100  0.00  0.00    +0.041 A 
ATOM     14  C   UNL     1       3.810 -11.990  -7.237  0.00  0.00    +0.195 A 
ATOM     15  O   UNL     1       4.241 -11.753  -5.987  0.00  0.00    -0.463 OA
ENDBRANCH   9  11
BRANCH   3  16
ATOM     16  O   UNL     1       5.362 -12.446  -1.130  0.00  0.00    -0.386 OA
ATOM     17  H   UNL     1       4.895 -12.772  -0.348  0.00  0.00    +0.210 HD
ENDBRANCH   3  16
BRANCH   2  18
ATOM     18  O   UNL     1       5.446 -10.782   1.202  0.00  0.00    -0.383 OA
ATOM     19  H   UNL     1       5.861 -10.474   2.020  0.00  0.00    +0.210 HD
ENDBRANCH   2  18
BRANCH   1  20
ATOM     20  O   UNL     1       5.086  -8.343  -0.092  0.00  0.00    -0.461 OA
BRANCH  20  24
ATOM     21  C   UNL     1       5.017  -4.216  -0.070  0.00  0.00    +0.022 A 
ATOM     22  C   UNL     1       3.820  -4.937  -0.067  0.00  0.00    +0.015 A 
ATOM     23  C   UNL     1       3.847  -6.313  -0.075  0.00  0.00    +0.046 A 
ATOM     24  C   UNL     1       5.063  -6.986  -0.085  0.00  0.00    +0.124 A 
ATOM     25  C   UNL     1       6.256  -6.273  -0.087  0.00  0.00    +0.046 A 
ATOM     26  C   UNL     1       6.238  -4.896  -0.085  0.00  0.00    +0.015 A 
BRANCH  21  27
ATOM     27  C   UNL     1       4.992  -2.739  -0.061  0.00  0.00    +0.186 C 
ATOM     28  O   UNL     1       6.037  -2.113  -0.068  0.00  0.00    -0.287 OA
BRANCH  27  30
ATOM     29  C   UNL     1       3.691  -0.679  -0.037  0.00  0.00    +0.011 C 
ATOM     30  C   UNL     1       3.714  -2.029  -0.045  0.00  0.00    +0.052 C 
BRANCH  29  34
ATOM     31  C   UNL     1      -0.017   1.380   0.010  0.00  0.00    +0.000 A 
ATOM     32  C   UNL     1       1.168   2.096   0.002  0.00  0.00    +0.001 A 
ATOM     33  C   UNL     1       2.377   1.434  -0.013  0.00  0.00    +0.008 A 
ATOM     34  C   UNL     1       2.405   0.035  -0.021  0.00  0.00    -0.025 A 
ATOM     35  C   UNL     1       1.203  -0.681  -0.013  0.00  0.00    +0.008 A 
ATOM     36  C   UNL     1       0.002  -0.004   0.002  0.00  0.00    +0.001 A 
ENDBRANCH  29  34
ENDBRANCH  27  30
ENDBRANCH  21  27
ENDBRANCH  20  24
ENDBRANCH   1  20
TORSDOF 8
