REMARK  Name = ZINC14988715
REMARK  7 active torsions:
REMARK  status: ('A' for Active; 'I' for Inactive)
REMARK    1  A    between atoms: C_1  and  C_2
REMARK    2  A    between atoms: C_10  and  C_11
REMARK    3  A    between atoms: N_13  and  C_14
REMARK    4  A    between atoms: C_14  and  C_16
REMARK    5  A    between atoms: C_14  and  C_17
REMARK    6  A    between atoms: N_22  and  C_23
REMARK    7  A    between atoms: C_23  and  C_24
REMARK                            x       y       z     vdW  Elec       q    Type
REMARK                         _______ _______ _______ _____ _____    ______ ____
ROOT
ATOM      1  C   UNL     1      -4.963   2.349  -1.345  0.00  0.00    +0.046 C 
ATOM      2  C   UNL     1      -4.016   2.677  -2.470  0.00  0.00    -0.019 A 
ATOM      3  C   UNL     1      -4.454   3.450  -3.554  0.00  0.00    +0.051 A 
ATOM      4  C   UNL     1      -5.739   4.022  -3.794  0.00  0.00    +0.131 A 
ATOM      5  N   UNL     1      -5.936   4.724  -4.898  0.00  0.00    -0.220 NA
ATOM      6  C   UNL     1      -4.982   4.916  -5.791  0.00  0.00    +0.224 A 
ATOM      7  N   UNL     1      -3.773   4.415  -5.627  0.00  0.00    -0.228 NA
ATOM      8  C   UNL     1      -3.486   3.702  -4.557  0.00  0.00    +0.114 A 
ATOM      9  S   UNL     1      -2.041   2.872  -3.949  0.00  0.00    -0.064 S 
ATOM     10  C   UNL     1      -2.732   2.224  -2.436  0.00  0.00    +0.079 A 
ATOM     11  N   UNL     1      -6.763   3.845  -2.887  0.00  0.00    -0.324 N 
ATOM     12  H   UNL     1      -6.590   3.408  -2.038  0.00  0.00    +0.148 HD
ENDROOT
BRANCH  10  13
ATOM     13  C   UNL     1      -2.077   1.409  -1.406  0.00  0.00    +0.252 C 
ATOM     14  O   UNL     1      -2.701   1.054  -0.423  0.00  0.00    -0.270 OA
ATOM     15  N   UNL     1      -0.784   1.055  -1.548  0.00  0.00    -0.302 N 
ATOM     16  H   UNL     1      -0.287   1.338  -2.331  0.00  0.00    +0.150 HD
BRANCH  15  17
ATOM     17  C   UNL     1      -0.130   0.242  -0.520  0.00  0.00    +0.126 C 
ATOM     18  C   UNL     1      -0.413  -1.238  -0.784  0.00  0.00    +0.035 C 
BRANCH  17  19
ATOM     19  C   UNL     1       1.357   0.484  -0.558  0.00  0.00    +0.098 A 
ATOM     20  N   UNL     1       2.157   0.538  -1.598  0.00  0.00    -0.250 NA
ATOM     21  C   UNL     1       3.446   0.766  -1.461  0.00  0.00    +0.119 A 
ATOM     22  C   UNL     1       3.942   0.934  -0.209  0.00  0.00    +0.066 A 
ATOM     23  S   UNL     1       2.452   0.756   0.761  0.00  0.00    -0.079 S 
ENDBRANCH  17  19
ENDBRANCH  15  17
ENDBRANCH  10  13
BRANCH  11  24
ATOM     24  C   UNL     1      -8.114   4.316  -3.205  0.00  0.00    +0.138 C 
BRANCH  24  25
ATOM     25  C   UNL     1      -9.038   4.003  -2.057  0.00  0.00    -0.027 A 
ATOM     26  C   UNL     1      -9.720   2.800  -2.028  0.00  0.00    +0.009 A 
ATOM     27  C   UNL     1     -10.565   2.506  -0.975  0.00  0.00    +0.050 A 
ATOM     28  C   UNL     1     -10.740   3.422   0.050  0.00  0.00    +0.166 A 
ATOM     29  C   UNL     1     -10.057   4.636   0.019  0.00  0.00    +0.167 A 
ATOM     30  C   UNL     1      -9.207   4.921  -1.037  0.00  0.00    +0.054 A 
ATOM     31  O   UNL     1     -10.395   5.355   1.129  0.00  0.00    -0.453 OA
ATOM     32  C   UNL     1     -11.600   4.746   1.630  0.00  0.00    +0.466 C 
ATOM     33  O   UNL     1     -11.505   3.381   1.180  0.00  0.00    -0.453 OA
ENDBRANCH  24  25
ENDBRANCH  11  24
TORSDOF 5
