REMARK  Name = ZINC57773762
REMARK  11 active torsions:
REMARK  status: ('A' for Active; 'I' for Inactive)
REMARK    1  A    between atoms: C_1  and  C_2
REMARK    2  A    between atoms: C_2  and  C_4
REMARK    3  A    between atoms: C_2  and  N_25
REMARK    4  A    between atoms: C_12  and  C_14
REMARK    5  A    between atoms: C_14  and  C_15
REMARK    6  A    between atoms: C_15  and  N_16
REMARK    7  A    between atoms: C_26  and  C_28
REMARK    8  A    between atoms: C_28  and  C_30
REMARK    9  A    between atoms: C_28  and  N_33
REMARK   10  A    between atoms: C_30  and  C_31
REMARK   11  A    between atoms: C_30  and  C_32
REMARK                            x       y       z     vdW  Elec       q    Type
REMARK                         _______ _______ _______ _____ _____    ______ ____
ROOT
ATOM      1  C   UNL     1       0.598  -0.531  -1.278  0.00  0.00    +0.236 C 
ATOM      2  O   UNL     1      -0.088  -1.170  -2.048  0.00  0.00    -0.274 OA
ATOM      3  N   UNL     1       1.893  -0.294  -1.567  0.00  0.00    -0.297 N 
ATOM      4  C   UNL     1       2.765   0.377  -0.593  0.00  0.00    +0.127 C 
ATOM      5  C   UNL     1       3.988  -0.513  -0.336  0.00  0.00    +0.126 C 
ATOM      6  N   UNL     1       4.552  -0.920  -1.630  0.00  0.00    -0.298 N 
ATOM      7  C   UNL     1       3.679  -1.591  -2.604  0.00  0.00    +0.126 C 
ATOM      8  C   UNL     1       2.459  -0.706  -2.859  0.00  0.00    +0.127 C 
ATOM      9  C   UNL     1       5.847  -0.683  -1.919  0.00  0.00    +0.217 C 
ATOM     10  O   UNL     1       6.558  -0.129  -1.107  0.00  0.00    -0.276 OA
ENDROOT
BRANCH   1  12
ATOM     11  C   UNL     1      -0.305   1.488  -0.156  0.00  0.00    +0.038 C 
ATOM     12  C   UNL     1       0.002  -0.003   0.001  0.00  0.00    +0.156 C 
BRANCH  12  13
ATOM     13  N   UNL     1      -1.236  -0.728   0.299  0.00  0.00    -0.306 N 
ATOM     14  C   UNL     1      -1.677  -0.816   1.570  0.00  0.00    +0.199 C 
ATOM     15  O   UNL     1      -1.048  -0.296   2.467  0.00  0.00    -0.278 OA
ATOM     16  H   UNL     1      -1.739  -1.143  -0.418  0.00  0.00    +0.149 HD
BRANCH  14  17
ATOM     17  C   UNL     1      -2.950  -1.561   1.876  0.00  0.00    +0.015 C 
BRANCH  17  18
ATOM     18  N   UNL     1      -3.467  -1.131   3.182  0.00  0.00    +0.386 N 
ATOM     19  H   UNL     1      -4.320  -1.630   3.387  0.00  0.00    -0.089 HD
ATOM     20  H   UNL     1      -2.783  -1.327   3.896  0.00  0.00    -0.089 HD
ATOM     21  H   UNL     1      -3.655  -0.140   3.159  0.00  0.00    -0.089 HD
ENDBRANCH  17  18
BRANCH  17  22
ATOM     22  C   UNL     1      -2.666  -3.064   1.910  0.00  0.00    -0.023 C 
ATOM     23  C   UNL     1      -1.723  -3.378   3.074  0.00  0.00    +0.006 C 
ATOM     24  C   UNL     1      -3.979  -3.827   2.097  0.00  0.00    +0.006 C 
ENDBRANCH  17  22
ENDBRANCH  14  17
ENDBRANCH  12  13
ENDBRANCH   1  12
BRANCH   9  25
ATOM     25  C   UNL     1       6.412  -1.106  -3.250  0.00  0.00    +0.117 C 
BRANCH  25  26
ATOM     26  C   UNL     1       7.891  -0.722  -3.322  0.00  0.00    +0.131 C 
BRANCH  26  27
ATOM     27  N   UNL     1       8.441  -1.134  -4.616  0.00  0.00    -0.345 N 
ATOM     28  C   UNL     1       9.095  -2.310  -4.853  0.00  0.00    +0.087 A 
ATOM     29  C   UNL     1       9.469  -2.377  -6.143  0.00  0.00    +0.027 A 
ATOM     30  C   UNL     1       9.017  -1.144  -6.781  0.00  0.00    +0.003 A 
ATOM     31  C   UNL     1       8.370  -0.396  -5.775  0.00  0.00    +0.065 A 
ATOM     32  C   UNL     1       7.830   0.838  -6.110  0.00  0.00    +0.109 A 
ATOM     33  N   UNL     1       7.924   1.291  -7.344  0.00  0.00    -0.365 N 
ATOM     34  C   UNL     1       8.522   0.611  -8.309  0.00  0.00    +0.083 A 
ATOM     35  C   UNL     1       9.090  -0.610  -8.071  0.00  0.00    +0.027 A 
ATOM     36  H   UNL     1       7.539   2.156  -7.554  0.00  0.00    +0.165 HD
ENDBRANCH  26  27
ENDBRANCH  25  26
ENDBRANCH   9  25
TORSDOF 8
