REMARK  Name = ZINC01103323
REMARK  8 active torsions:
REMARK  status: ('A' for Active; 'I' for Inactive)
REMARK    1  A    between atoms: C_1  and  C_2
REMARK    2  A    between atoms: C_4  and  C_29
REMARK    3  A    between atoms: C_5  and  C_9
REMARK    4  A    between atoms: C_6  and  C_8
REMARK    5  A    between atoms: C_19  and  C_27
REMARK    6  A    between atoms: C_20  and  N_26
REMARK    7  A    between atoms: C_21  and  C_22
REMARK    8  A    between atoms: C_21  and  C_24
REMARK                            x       y       z     vdW  Elec       q    Type
REMARK                         _______ _______ _______ _____ _____    ______ ____
ROOT
ATOM      1  C   UNL     1       1.205   1.262   1.134  0.00  0.00    +0.067 C 
ATOM      2  C   UNL     1       2.310   2.138   1.686  0.00  0.00    +0.030 C 
ATOM      3  C   UNL     1       2.707   1.637   3.062  0.00  0.00    +0.009 C 
ATOM      4  C   UNL     1       3.432   2.637   3.901  0.00  0.00    +0.001 C 
ATOM      5  C   UNL     1       4.886   2.823   3.538  0.00  0.00    +0.004 C 
ATOM      6  C   UNL     1       5.057   3.651   2.280  0.00  0.00    +0.027 C 
ATOM      7  C   UNL     1       4.541   2.954   1.085  0.00  0.00    -0.022 C 
ATOM      8  C   UNL     1       3.485   2.281   0.769  0.00  0.00    -0.029 C 
ATOM      9  C   UNL     1       3.442   1.680  -0.590  0.00  0.00    +0.074 C 
ATOM     10  C   UNL     1       2.274   1.252  -1.119  0.00  0.00    +0.054 C 
ATOM     11  C   UNL     1       0.990   1.373  -0.357  0.00  0.00    +0.188 C 
ENDROOT
BRANCH   1  16
ATOM     12  C   UNL     1      -3.733   2.665   3.787  0.00  0.00    +0.044 C 
ATOM     13  C   UNL     1      -2.445   2.299   3.095  0.00  0.00    -0.050 A 
ATOM     14  C   UNL     1      -1.992   0.994   3.124  0.00  0.00    +0.007 A 
ATOM     15  C   UNL     1      -0.811   0.658   2.489  0.00  0.00    -0.046 A 
ATOM     16  C   UNL     1      -0.083   1.628   1.825  0.00  0.00    -0.035 A 
ATOM     17  C   UNL     1      -0.534   2.934   1.800  0.00  0.00    -0.046 A 
ATOM     18  C   UNL     1      -1.717   3.269   2.432  0.00  0.00    +0.007 A 
ATOM     19  C   UNL     1       0.263   3.993   1.082  0.00  0.00    +0.044 C 
ATOM     20  C   UNL     1      -0.316  -0.765   2.521  0.00  0.00    +0.044 C 
ENDBRANCH   1  16
BRANCH  10  21
ATOM     21  N   UNL     1       2.264   0.700  -2.369  0.00  0.00    -0.358 N 
ATOM     22  H   UNL     1       1.319   0.348  -2.808  0.00  0.00    +0.142 HD
ATOM     23  H   UNL     1       3.202   0.607  -2.936  0.00  0.00    +0.142 HD
ENDBRANCH  10  21
BRANCH  11  24
ATOM     24  C   UNL     1       0.074   0.305  -0.790  0.00  0.00    +0.091 C 
ATOM     25  N   UNL     1      -0.633  -0.519  -1.124  0.00  0.00    -0.194 NA
ENDBRANCH  11  24
BRANCH  11  26
ATOM     26  C   UNL     1       0.377   2.678  -0.656  0.00  0.00    +0.091 C 
ATOM     27  N   UNL     1      -0.097   3.684  -0.887  0.00  0.00    -0.194 NA
ENDBRANCH  11  26
BRANCH   9  28
ATOM     28  C   UNL     1       4.651   1.554  -1.347  0.00  0.00    +0.101 C 
ATOM     29  N   UNL     1       5.610   1.453  -1.947  0.00  0.00    -0.191 NA
ENDBRANCH   9  28
TORSDOF 5
