REMARK  Name = ZINC06662343
REMARK  8 active torsions:
REMARK  status: ('A' for Active; 'I' for Inactive)
REMARK    1  A    between atoms: C_1  and  C_2
REMARK    2  A    between atoms: C_2  and  C_22
REMARK    3  A    between atoms: C_7  and  N_11
REMARK    4  A    between atoms: C_8  and  C_9
REMARK    5  A    between atoms: C_12  and  C_14
REMARK    6  A    between atoms: N_16  and  C_17
REMARK    7  A    between atoms: C_17  and  C_18
REMARK    8  A    between atoms: C_18  and  O_19
REMARK                            x       y       z     vdW  Elec       q    Type
REMARK                         _______ _______ _______ _____ _____    ______ ____
ROOT
ATOM      1  C   UNL     1       1.524  -1.968  -0.252  0.00  0.00    +0.041 C 
ATOM      2  C   UNL     1       1.392  -0.458  -0.455  0.00  0.00    +0.068 C 
ATOM      3  C   UNL     1       0.002  -0.004   0.002  0.00  0.00    +0.071 C 
ATOM      4  C   UNL     1      -0.019   1.522   0.010  0.00  0.00    -0.013 A 
ATOM      5  C   UNL     1       1.152   2.205   0.003  0.00  0.00    +0.022 A 
ATOM      6  S   UNL     1       0.682   3.911   0.015  0.00  0.00    -0.075 S 
ATOM      7  C   UNL     1      -1.091   3.704   0.031  0.00  0.00    +0.090 A 
ATOM      8  C   UNL     1      -1.228   2.320   0.020  0.00  0.00    +0.084 A 
ATOM      9  C   UNL     1       2.524   1.608  -0.012  0.00  0.00    +0.203 C 
ATOM     10  O   UNL     1       2.403   0.212   0.303  0.00  0.00    -0.368 OA
ATOM     11  C   UNL     1       1.571  -0.127  -1.938  0.00  0.00    +0.041 C 
ENDROOT
BRANCH   7  12
ATOM     12  N   UNL     1      -2.078   4.675   0.044  0.00  0.00    -0.271 N 
ATOM     13  C   UNL     1      -1.741   5.980   0.048  0.00  0.00    +0.304 C 
ATOM     14  O   UNL     1      -0.571   6.304   0.038  0.00  0.00    -0.265 OA
ATOM     15  H   UNL     1      -3.013   4.416   0.052  0.00  0.00    +0.156 HD
BRANCH  13  16
ATOM     16  C   UNL     1      -2.805   7.026   0.063  0.00  0.00    +0.299 C 
ATOM     17  O   UNL     1      -3.975   6.702   0.072  0.00  0.00    -0.265 OA
ATOM     18  N   UNL     1      -2.467   8.331   0.066  0.00  0.00    -0.305 N 
ATOM     19  H   UNL     1      -1.533   8.590   0.058  0.00  0.00    +0.149 HD
BRANCH  18  20
ATOM     20  C   UNL     1      -3.512   9.358   0.080  0.00  0.00    +0.132 C 
BRANCH  20  21
ATOM     21  C   UNL     1      -2.864  10.744   0.081  0.00  0.00    +0.174 C 
BRANCH  21  22
ATOM     22  O   UNL     1      -2.158  10.941  -1.145  0.00  0.00    -0.393 OA
ATOM     23  H   UNL     1      -1.722  11.801  -1.215  0.00  0.00    +0.209 HD
ENDBRANCH  21  22
ENDBRANCH  20  21
ENDBRANCH  18  20
ENDBRANCH  13  16
ENDBRANCH   7  12
BRANCH   8  24
ATOM     24  C   UNL     1      -2.521   1.704   0.024  0.00  0.00    +0.102 C 
ATOM     25  N   UNL     1      -3.547   1.216   0.026  0.00  0.00    -0.191 NA
ENDBRANCH   8  24
TORSDOF 6
