REMARK  Name = ZINC33812564
REMARK  11 active torsions:
REMARK  status: ('A' for Active; 'I' for Inactive)
REMARK    1  A    between atoms: C_1  and  C_2
REMARK    2  A    between atoms: C_2  and  C_3
REMARK    3  A    between atoms: C_3  and  N_4
REMARK    4  A    between atoms: C_5  and  N_29
REMARK    5  A    between atoms: C_6  and  C_14
REMARK    6  A    between atoms: C_7  and  C_13
REMARK    7  A    between atoms: C_8  and  C_11
REMARK    8  A    between atoms: N_18  and  C_22
REMARK    9  A    between atoms: C_22  and  C_23
REMARK   10  A    between atoms: N_32  and  C_35
REMARK   11  A    between atoms: C_35  and  C_36
REMARK                            x       y       z     vdW  Elec       q    Type
REMARK                         _______ _______ _______ _____ _____    ______ ____
ROOT
ATOM      1  N   UNL     1       0.345  -2.331  -1.420  0.00  0.00    -0.295 N 
ATOM      2  C   UNL     1       1.452  -2.820  -0.804  0.00  0.00    +0.112 A 
ATOM      3  C   UNL     1       1.846  -4.154  -0.999  0.00  0.00    +0.019 A 
ATOM      4  C   UNL     1       1.084  -4.984  -1.838  0.00  0.00    -0.017 A 
ATOM      5  C   UNL     1      -0.047  -4.460  -2.457  0.00  0.00    +0.120 A 
ATOM      6  C   UNL     1      -0.405  -3.107  -2.224  0.00  0.00    +0.270 A 
ATOM      7  O   UNL     1      -1.396  -2.643  -2.759  0.00  0.00    -0.266 OA
ATOM      8  C   UNL     1       1.484  -6.420  -2.065  0.00  0.00    +0.046 C 
ENDROOT
BRANCH   3   9
ATOM      9  C   UNL     1       3.041  -4.675  -0.333  0.00  0.00    +0.032 C 
ATOM     10  C   UNL     1       2.924  -5.645   0.615  0.00  0.00    +0.077 C 
ATOM     11  C   UNL     1       1.748  -6.218   1.187  0.00  0.00    +0.258 C 
ATOM     12  O   UNL     1       0.639  -5.852   0.841  0.00  0.00    -0.269 OA
ATOM     13  N   UNL     1       1.899  -7.159   2.104  0.00  0.00    -0.253 N 
ATOM     14  C   UNL     1       3.129  -7.565   2.487  0.00  0.00    +0.121 C 
ATOM     15  S   UNL     1       3.555  -8.753   3.644  0.00  0.00    -0.027 S 
ATOM     16  S   UNL     1       4.200  -6.552   1.478  0.00  0.00    -0.061 S 
BRANCH  13  17
ATOM     17  C   UNL     1       0.715  -7.770   2.712  0.00  0.00    +0.146 C 
BRANCH  17  18
ATOM     18  C   UNL     1       0.292  -8.990   1.892  0.00  0.00    +0.136 C 
ATOM     19  C   UNL     1      -1.024  -9.569   2.455  0.00  0.00    +0.035 C 
ATOM     20  C   UNL     1      -0.788 -11.099   2.336  0.00  0.00    +0.031 C 
ATOM     21  C   UNL     1       0.735 -11.184   2.606  0.00  0.00    +0.160 C 
ATOM     22  O   UNL     1       1.292 -10.011   1.988  0.00  0.00    -0.375 OA
ENDBRANCH  17  18
ENDBRANCH  13  17
ENDBRANCH   3   9
BRANCH   2  23
ATOM     23  N   UNL     1       2.187  -2.009   0.009  0.00  0.00    -0.320 N 
ATOM     24  C   UNL     1       1.963  -1.992   1.463  0.00  0.00    +0.088 C 
ATOM     25  C   UNL     1       3.314  -2.166   2.165  0.00  0.00    -0.060 C 
ATOM     26  N   UNL     1       4.250  -1.142   1.684  0.00  0.00    +0.382 N 
ATOM     27  C   UNL     1       4.519  -1.342   0.255  0.00  0.00    -0.060 C 
ATOM     28  C   UNL     1       3.232  -1.131  -0.541  0.00  0.00    +0.088 C 
ATOM     29  H   UNL     1       3.847  -0.227   1.824  0.00  0.00    -0.082 HD
BRANCH  26  30
ATOM     30  C   UNL     1       5.508  -1.239   2.436  0.00  0.00    -0.082 C 
ATOM     31  C   UNL     1       6.438  -0.096   2.024  0.00  0.00    -0.017 C 
ENDBRANCH  26  30
ENDBRANCH   2  23
BRANCH   5  32
ATOM     32  C   UNL     1      -0.845  -5.279  -3.319  0.00  0.00    +0.105 C 
ATOM     33  N   UNL     1      -1.478  -5.929  -4.003  0.00  0.00    -0.191 NA
ENDBRANCH   5  32
BRANCH   1  34
ATOM     34  C   UNL     1      -0.044  -0.936  -1.200  0.00  0.00    +0.126 C 
BRANCH  34  36
ATOM     35  C   UNL     1      -1.482   0.592   0.156  0.00  0.00    +0.005 C 
ATOM     36  C   UNL     1      -1.076  -0.865  -0.073  0.00  0.00    +0.018 C 
ENDBRANCH  34  36
ENDBRANCH   1  34
TORSDOF 8
