REMARK  Name = ZINC64774805
REMARK  7 active torsions:
REMARK  status: ('A' for Active; 'I' for Inactive)
REMARK    1  A    between atoms: C_1  and  C_2
REMARK    2  A    between atoms: C_5  and  C_8
REMARK    3  A    between atoms: C_10  and  C_14
REMARK    4  A    between atoms: C_11  and  C_13
REMARK    5  A    between atoms: C_14  and  S_15
REMARK    6  A    between atoms: S_15  and  C_16
REMARK    7  A    between atoms: N_27  and  C_28
REMARK                            x       y       z     vdW  Elec       q    Type
REMARK                         _______ _______ _______ _____ _____    ______ ____
ROOT
ATOM      1  C   UNL     1      -1.410  -9.471   2.970  0.00  0.00    +0.209 C 
ATOM      2  N   UNL     1      -0.624  -9.108   4.181  0.00  0.00    -0.273 NA
ATOM      3  C   UNL     1       0.092 -10.361   4.455  0.00  0.00    +0.209 C 
ATOM      4  C   UNL     1       0.346 -10.951   3.076  0.00  0.00    +0.132 C 
ATOM      5  N   UNL     1       1.476 -11.599   2.921  0.00  0.00    -0.225 NA
ATOM      6  C   UNL     1       2.429 -11.549   3.843  0.00  0.00    +0.213 C 
ATOM      7  N   UNL     1       2.404 -10.832   4.941  0.00  0.00    -0.167 NA
ATOM      8  C   UNL     1       1.306 -10.134   5.317  0.00  0.00    +0.262 C 
ATOM      9  O   UNL     1       1.298  -9.377   6.267  0.00  0.00    -0.271 OA
ATOM     10  N   UNL     1      -0.643 -10.519   2.275  0.00  0.00    -0.262 N 
ATOM     11  H   UNL     1       0.021  -8.359   3.982  0.00  0.00    +0.126 HD
ENDROOT
BRANCH  10  12
ATOM     12  C   UNL     1      -0.902 -10.988   0.984  0.00  0.00    +0.037 A 
ATOM     13  C   UNL     1      -1.953 -10.456   0.248  0.00  0.00    +0.023 A 
ATOM     14  C   UNL     1      -2.206 -10.922  -1.027  0.00  0.00    +0.002 A 
ATOM     15  C   UNL     1      -1.415 -11.917  -1.572  0.00  0.00    +0.000 A 
ATOM     16  C   UNL     1      -0.368 -12.449  -0.841  0.00  0.00    +0.002 A 
ATOM     17  C   UNL     1      -0.105 -11.983   0.432  0.00  0.00    +0.023 A 
ENDBRANCH  10  12
BRANCH   1  18
ATOM     18  S   UNL     1      -1.603  -8.023   1.896  0.00  0.00    -0.116 S 
BRANCH  18  19
ATOM     19  C   UNL     1       0.101  -7.514   1.536  0.00  0.00    +0.131 C 
BRANCH  19  22
ATOM     20  C   UNL     1       0.058  -4.251  -0.021  0.00  0.00    +0.228 A 
ATOM     21  N   UNL     1       0.068  -5.023   1.040  0.00  0.00    -0.213 NA
ATOM     22  C   UNL     1       0.085  -6.303   0.639  0.00  0.00    +0.093 A 
ATOM     23  C   UNL     1       0.085  -6.314  -0.707  0.00  0.00    +0.127 A 
ATOM     24  O   UNL     1       0.062  -5.030  -1.117  0.00  0.00    -0.440 OA
ATOM     25  C   UNL     1       0.101  -7.534  -1.591  0.00  0.00    +0.088 C 
BRANCH  20  30
ATOM     26  C   UNL     1      -0.018   1.503   0.010  0.00  0.00    +0.044 C 
ATOM     27  C   UNL     1       0.002  -0.004   0.002  0.00  0.00    -0.050 A 
ATOM     28  C   UNL     1       0.006  -0.686  -1.202  0.00  0.00    +0.004 A 
ATOM     29  C   UNL     1       0.024  -2.066  -1.216  0.00  0.00    +0.013 A 
ATOM     30  C   UNL     1       0.039  -2.773  -0.013  0.00  0.00    +0.037 A 
ATOM     31  C   UNL     1       0.036  -2.079   1.198  0.00  0.00    +0.013 A 
ATOM     32  C   UNL     1       0.023  -0.699   1.198  0.00  0.00    +0.004 A 
ENDBRANCH  20  30
ENDBRANCH  19  22
ENDBRANCH  18  19
ENDBRANCH   1  18
TORSDOF 5
