REMARK  Name = ZINC20304193
REMARK  7 active torsions:
REMARK  status: ('A' for Active; 'I' for Inactive)
REMARK    1  A    between atoms: C_1  and  C_2
REMARK    2  A    between atoms: C_2  and  C_4
REMARK    3  A    between atoms: C_2  and  N_11
REMARK    4  A    between atoms: N_9  and  C_10
REMARK    5  A    between atoms: N_11  and  C_12
REMARK    6  A    between atoms: C_15  and  S_18
REMARK    7  A    between atoms: S_18  and  C_21
REMARK                            x       y       z     vdW  Elec       q    Type
REMARK                         _______ _______ _______ _____ _____    ______ ____
ROOT
ATOM      1  N   UNL     1      -3.608   1.789   0.029  0.00  0.00    -0.333 N 
ATOM      2  H   UNL     1      -3.477   2.803   0.436  0.00  0.00    +0.147 HD
ENDROOT
BRANCH   1   3
ATOM      3  C   UNL     1      -4.849   1.396  -0.479  0.00  0.00    +0.028 A 
ATOM      4  C   UNL     1      -5.014   0.119  -0.999  0.00  0.00    +0.025 A 
ATOM      5  C   UNL     1      -6.244  -0.269  -1.495  0.00  0.00    +0.029 A 
ATOM      6  C   UNL     1      -7.306   0.617  -1.485  0.00  0.00    +0.088 A 
ATOM      7  C   UNL     1      -7.143   1.891  -0.972  0.00  0.00    +0.029 A 
ATOM      8  C   UNL     1      -5.918   2.283  -0.469  0.00  0.00    +0.025 A 
BRANCH   6   9
ATOM      9  S   UNL     1      -8.870   0.120  -2.125  0.00  0.00    -0.006 S 
ATOM     10  O   UNL     1      -8.889  -1.293  -1.980  0.00  0.00    -0.170 OA
ATOM     11  O   UNL     1      -9.816   0.931  -1.441  0.00  0.00    -0.170 OA
ATOM     12  C   UNL     1      -8.818   0.568  -3.882  0.00  0.00    +0.200 C 
ENDBRANCH   6   9
ENDBRANCH   1   3
BRANCH   1  14
ATOM     13  C   UNL     1      -2.545  -0.035   1.263  0.00  0.00    +0.038 C 
ATOM     14  C   UNL     1      -2.482   0.853   0.018  0.00  0.00    +0.154 C 
BRANCH  14  15
ATOM     15  C   UNL     1      -1.187   1.624   0.017  0.00  0.00    +0.240 C 
ATOM     16  O   UNL     1      -1.204   2.836   0.023  0.00  0.00    -0.273 OA
ATOM     17  N   UNL     1      -0.011   0.966   0.007  0.00  0.00    -0.239 N 
ATOM     18  C   UNL     1       1.147   1.655   0.000  0.00  0.00    +0.306 C 
ATOM     19  O   UNL     1       1.130   2.871   0.007  0.00  0.00    -0.252 OA
ATOM     20  N   UNL     1       2.323   0.998  -0.015  0.00  0.00    -0.302 N 
ATOM     21  C   UNL     1       3.582   1.747  -0.023  0.00  0.00    +0.129 C 
ATOM     22  H   UNL     1       0.004  -0.134   0.006  0.00  0.00    +0.159 HD
ATOM     23  H   UNL     1       2.338  -0.102  -0.021  0.00  0.00    +0.150 HD
ENDBRANCH  14  15
ENDBRANCH   1  14
TORSDOF 4
