REMARK  Name = ZINC63822287
REMARK  9 active torsions:
REMARK  status: ('A' for Active; 'I' for Inactive)
REMARK    1  A    between atoms: C_1  and  C_2
REMARK    2  A    between atoms: C_4  and  C_21
REMARK    3  A    between atoms: N_12  and  C_14
REMARK    4  A    between atoms: C_24  and  O_29
REMARK    5  A    between atoms: C_25  and  O_27
REMARK    6  A    between atoms: O_27  and  C_28
REMARK    7  A    between atoms: O_29  and  C_30
REMARK    8  A    between atoms: C_30  and  C_31
REMARK    9  A    between atoms: C_30  and  C_32
REMARK                            x       y       z     vdW  Elec       q    Type
REMARK                         _______ _______ _______ _____ _____    ______ ____
ROOT
ATOM      1  C   UNL     1       0.555   1.615   0.971  0.00  0.00    +0.062 C 
ATOM      2  C   UNL     1       0.618   0.110   0.991  0.00  0.00    +0.022 C 
ATOM      3  C   UNL     1      -0.411  -0.670   0.816  0.00  0.00    -0.004 C 
ATOM      4  C   UNL     1      -1.830  -0.349   0.411  0.00  0.00    +0.059 C 
ATOM      5  C   UNL     1      -2.073  -1.077  -0.919  0.00  0.00    +0.108 C 
ATOM      6  C   UNL     1      -1.420  -2.421  -0.944  0.00  0.00    +0.216 C 
ATOM      7  O   UNL     1      -1.849  -3.211  -1.758  0.00  0.00    -0.276 OA
ATOM      8  N   UNL     1      -0.419  -2.850  -0.176  0.00  0.00    -0.292 N 
ATOM      9  C   UNL     1       0.059  -2.106   0.982  0.00  0.00    +0.210 C 
ATOM     10  N   UNL     1       1.518  -1.994   1.037  0.00  0.00    -0.210 N 
ATOM     11  N   UNL     1       1.779  -0.621   1.191  0.00  0.00    -0.265 N 
ATOM     12  H   UNL     1       0.008  -3.693  -0.396  0.00  0.00    +0.151 HD
ATOM     13  H   UNL     1       2.645  -0.241   1.408  0.00  0.00    +0.170 HD
ENDROOT
BRANCH  10  14
ATOM     14  C   UNL     1       2.449  -3.027   0.949  0.00  0.00    +0.162 A 
ATOM     15  C   UNL     1       3.814  -2.747   1.020  0.00  0.00    +0.052 A 
ATOM     16  C   UNL     1       4.700  -3.807   0.927  0.00  0.00    +0.077 A 
ATOM     17  C   UNL     1       4.173  -5.087   0.770  0.00  0.00    +0.289 A 
ATOM     18  O   UNL     1       5.004  -6.157   0.676  0.00  0.00    -0.264 OA
ATOM     19  N   UNL     1       2.864  -5.259   0.714  0.00  0.00    -0.105 NA
ATOM     20  N   UNL     1       2.041  -4.278   0.804  0.00  0.00    -0.129 NA
ENDBRANCH  10  14
BRANCH   4  21
ATOM     21  C   UNL     1      -2.792  -0.846   1.459  0.00  0.00    -0.036 A 
ATOM     22  C   UNL     1      -2.834  -2.192   1.774  0.00  0.00    +0.008 A 
ATOM     23  C   UNL     1      -3.715  -2.652   2.735  0.00  0.00    +0.050 A 
ATOM     24  C   UNL     1      -4.558  -1.765   3.385  0.00  0.00    +0.162 A 
ATOM     25  C   UNL     1      -4.514  -0.411   3.069  0.00  0.00    +0.162 A 
ATOM     26  C   UNL     1      -3.626   0.045   2.108  0.00  0.00    +0.053 A 
BRANCH  25  27
ATOM     27  O   UNL     1      -5.339   0.464   3.704  0.00  0.00    -0.491 OA
ATOM     28  C   UNL     1      -5.240   1.839   3.328  0.00  0.00    +0.277 C 
ENDBRANCH  25  27
BRANCH  24  29
ATOM     29  O   UNL     1      -5.425  -2.217   4.330  0.00  0.00    -0.486 OA
BRANCH  29  30
ATOM     30  C   UNL     1      -5.500  -3.631   4.519  0.00  0.00    +0.167 C 
ATOM     31  C   UNL     1      -4.399  -4.076   5.484  0.00  0.00    +0.051 C 
ATOM     32  C   UNL     1      -6.867  -3.997   5.100  0.00  0.00    +0.051 C 
ENDBRANCH  29  30
ENDBRANCH  24  29
ENDBRANCH   4  21
TORSDOF 5
