REMARK  Name = ZINC25073827
REMARK  11 active torsions:
REMARK  status: ('A' for Active; 'I' for Inactive)
REMARK    1  A    between atoms: C_1  and  C_2
REMARK    2  A    between atoms: C_2  and  C_3
REMARK    3  A    between atoms: C_2  and  N_4
REMARK    4  A    between atoms: N_4  and  C_5
REMARK    5  A    between atoms: N_4  and  S_6
REMARK    6  A    between atoms: S_6  and  C_9
REMARK    7  A    between atoms: C_12  and  N_15
REMARK    8  A    between atoms: N_15  and  C_16
REMARK    9  A    between atoms: C_16  and  C_17
REMARK   10  A    between atoms: N_19  and  C_20
REMARK   11  A    between atoms: C_25  and  N_26
REMARK                            x       y       z     vdW  Elec       q    Type
REMARK                         _______ _______ _______ _____ _____    ______ ____
ROOT
ATOM      1  C   UNL     1       0.012   1.105   0.003  0.00  0.00    +0.198 C 
ENDROOT
BRANCH   1   2
ATOM      2  C   UNL     1      -0.728   1.592  -1.216  0.00  0.00    +0.234 C 
ATOM      3  O   UNL     1      -1.727   2.268  -1.089  0.00  0.00    -0.274 OA
ATOM      4  N   UNL     1      -0.280   1.278  -2.447  0.00  0.00    -0.282 N 
ATOM      5  H   UNL     1       0.666   0.729  -2.564  0.00  0.00    +0.155 HD
BRANCH   4   6
ATOM      6  C   UNL     1      -1.017   1.649  -3.577  0.00  0.00    +0.061 A 
ATOM      7  C   UNL     1      -1.718   2.847  -3.588  0.00  0.00    +0.045 A 
ATOM      8  C   UNL     1      -2.442   3.214  -4.707  0.00  0.00    +0.043 A 
ATOM      9  C   UNL     1      -2.479   2.384  -5.814  0.00  0.00    +0.022 A 
ATOM     10  C   UNL     1      -1.788   1.188  -5.810  0.00  0.00    +0.031 A 
ATOM     11  C   UNL     1      -1.055   0.814  -4.693  0.00  0.00    +0.088 A 
ATOM     12 CL   UNL     1      -3.313   4.715  -4.720  0.00  0.00    -0.083 Cl
BRANCH  11  13
ATOM     13  N   UNL     1      -0.354  -0.401  -4.686  0.00  0.00    -0.218 N 
ATOM     14  C   UNL     1      -0.219  -1.261  -5.714  0.00  0.00    +0.225 A 
ATOM     15  N   UNL     1       0.508  -2.269  -5.305  0.00  0.00    -0.222 NA
ATOM     16  C   UNL     1       0.848  -2.095  -4.029  0.00  0.00    +0.245 A 
ATOM     17  N   UNL     1       0.343  -0.965  -3.605  0.00  0.00    -0.153 NA
ENDBRANCH  11  13
ENDBRANCH   4   6
ENDBRANCH   1   2
BRANCH   1  18
ATOM     18  N   UNL     1      -0.671   1.577   1.210  0.00  0.00    -0.335 N 
ATOM     19  H   UNL     1      -1.580   2.190   1.123  0.00  0.00    +0.147 HD
BRANCH  18  23
ATOM     20  C   UNL     1       0.830   0.599   4.969  0.00  0.00    +0.106 A 
ATOM     21  C   UNL     1      -0.313   1.370   4.862  0.00  0.00    +0.030 A 
ATOM     22  C   UNL     1      -0.814   1.696   3.616  0.00  0.00    +0.025 A 
ATOM     23  C   UNL     1      -0.167   1.249   2.471  0.00  0.00    +0.028 A 
ATOM     24  C   UNL     1       0.977   0.470   2.582  0.00  0.00    +0.025 A 
ATOM     25  C   UNL     1       1.475   0.152   3.830  0.00  0.00    +0.030 A 
BRANCH  20  26
ATOM     26  S   UNL     1       1.465   0.185   6.559  0.00  0.00    +0.061 S 
ATOM     27  O   UNL     1       2.849  -0.087   6.386  0.00  0.00    -0.153 OA
ATOM     28  O   UNL     1       0.991   1.179   7.457  0.00  0.00    -0.153 OA
BRANCH  26  29
ATOM     29  N   UNL     1       0.756  -1.241   7.014  0.00  0.00    -0.177 NA
ATOM     30  C   UNL     1       1.389  -2.516   6.670  0.00  0.00    +0.132 C 
BRANCH  29  32
ATOM     31  C   UNL     1      -1.579  -1.968   6.963  0.00  0.00    +0.025 C 
ATOM     32  C   UNL     1      -0.504  -1.226   7.761  0.00  0.00    +0.073 C 
ATOM     33  C   UNL     1      -0.304  -1.917   9.112  0.00  0.00    +0.025 C 
ENDBRANCH  29  32
ENDBRANCH  26  29
ENDBRANCH  20  26
ENDBRANCH  18  23
ENDBRANCH   1  18
TORSDOF 8
