REMARK  Name = ZINC14953634
REMARK  9 active torsions:
REMARK  status: ('A' for Active; 'I' for Inactive)
REMARK    1  A    between atoms: C_1  and  C_2
REMARK    2  A    between atoms: C_2  and  N_3
REMARK    3  A    between atoms: C_5  and  C_8
REMARK    4  A    between atoms: C_8  and  N_61
REMARK    5  A    between atoms: C_9  and  N_61
REMARK    6  A    between atoms: C_19  and  C_30
REMARK    7  A    between atoms: C_22  and  O_27
REMARK    8  A    between atoms: O_27  and  C_28
REMARK    9  A    between atoms: C_28  and  C_29
REMARK                            x       y       z     vdW  Elec       q    Type
REMARK                         _______ _______ _______ _____ _____    ______ ____
ROOT
ATOM      1  C   UNL     1      -0.018   1.465   0.010  0.00  0.00    -0.070 C 
ATOM      2  C   UNL     1       1.431   2.002  -0.001  0.00  0.00    -0.014 C 
ATOM      3  C   UNL     1       1.481   3.407  -0.391  0.00  0.00    +0.017 C 
ATOM      4  C   UNL     1       0.711   4.321   0.580  0.00  0.00    +0.108 C 
ATOM      5  N   UNL     1      -0.690   4.263   0.242  0.00  0.00    -0.300 N 
ATOM      6  C   UNL     1      -1.454   3.283   1.046  0.00  0.00    +0.106 C 
ATOM      7  C   UNL     1      -0.709   1.953   1.255  0.00  0.00    +0.003 C 
ATOM      8  C   UNL     1      -1.269   5.518   0.309  0.00  0.00    +0.219 A 
ATOM      9  N   UNL     1      -1.181   6.203   1.448  0.00  0.00    -0.219 NA
ATOM     10  C   UNL     1      -1.710   7.401   1.574  0.00  0.00    +0.051 A 
ATOM     11  C   UNL     1      -2.383   7.958   0.470  0.00  0.00    +0.025 A 
ATOM     12  C   UNL     1      -2.973   9.228   0.523  0.00  0.00    +0.057 A 
ATOM     13  C   UNL     1      -3.613   9.719  -0.580  0.00  0.00    +0.121 A 
ATOM     14  C   UNL     1      -3.685   8.971  -1.758  0.00  0.00    +0.048 A 
ATOM     15  C   UNL     1      -3.122   7.734  -1.840  0.00  0.00    +0.032 A 
ATOM     16  C   UNL     1      -2.457   7.199  -0.726  0.00  0.00    +0.077 A 
ATOM     17  N   UNL     1      -1.881   5.990  -0.759  0.00  0.00    -0.214 NA
ATOM     18  C   UNL     1      -1.599   8.160   2.872  0.00  0.00    +0.066 C 
ENDROOT
BRANCH   1  19
ATOM     19  N   UNL     1       0.010  -0.010   0.006  0.00  0.00    +0.384 N 
ATOM     20  H   UNL     1       0.806  -0.332  -0.557  0.00  0.00    -0.085 HD
ATOM     21  H   UNL     1       0.113  -0.350   0.969  0.00  0.00    -0.085 HD
BRANCH  19  22
ATOM     22  C   UNL     1      -1.239  -0.544  -0.569  0.00  0.00    -0.043 C 
BRANCH  22  25
ATOM     23  N   UNL     1      -1.381  -4.133   0.062  0.00  0.00    -0.272 N 
ATOM     24  C   UNL     1      -1.605  -2.857   0.440  0.00  0.00    +0.110 A 
ATOM     25  C   UNL     1      -1.182  -2.050  -0.560  0.00  0.00    -0.027 A 
ATOM     26  C   UNL     1      -0.688  -2.861  -1.588  0.00  0.00    +0.136 A 
ATOM     27  N   UNL     1      -0.801  -4.109  -1.214  0.00  0.00    -0.179 NA
BRANCH  23  29
ATOM     28  C   UNL     1      -2.575  -6.267   0.021  0.00  0.00    +0.029 C 
ATOM     29  C   UNL     1      -1.689  -5.332   0.846  0.00  0.00    +0.140 C 
ENDBRANCH  23  29
ENDBRANCH  22  25
ENDBRANCH  19  22
ENDBRANCH   1  19
BRANCH  13  30
ATOM     30  O   UNL     1      -4.187  10.950  -0.531  0.00  0.00    -0.492 OA
BRANCH  30  31
ATOM     31  C   UNL     1      -4.841  11.409  -1.716  0.00  0.00    +0.225 C 
ATOM     32  C   UNL     1      -5.422  12.803  -1.471  0.00  0.00    +0.048 C 
ENDBRANCH  30  31
ENDBRANCH  13  30
TORSDOF 6
