REMARK  Name = ZINC08820397
REMARK  7 active torsions:
REMARK  status: ('A' for Active; 'I' for Inactive)
REMARK    1  A    between atoms: C_4  and  C_7
REMARK    2  A    between atoms: C_8  and  C_9
REMARK    3  A    between atoms: N_13  and  C_17
REMARK    4  A    between atoms: C_17  and  C_18
REMARK    5  A    between atoms: N_20  and  N_21
REMARK    6  A    between atoms: C_22  and  C_24
REMARK    7  A    between atoms: C_28  and  N_30
REMARK                            x       y       z     vdW  Elec       q    Type
REMARK                         _______ _______ _______ _____ _____    ______ ____
ROOT
ATOM      1  C   UNL     1       2.206   9.610   0.035  0.00  0.00    +0.212 C 
ENDROOT
BRANCH   1   6
ATOM      2  C   UNL     1       6.410  11.180  -2.091  0.00  0.00    +0.020 C 
ATOM      3  C   UNL     1       5.560  10.857  -1.075  0.00  0.00    +0.077 C 
ATOM      4  C   UNL     1       4.177  10.348  -1.132  0.00  0.00    +0.259 C 
ATOM      5  O   UNL     1       3.612  10.149  -2.192  0.00  0.00    -0.269 OA
ATOM      6  N   UNL     1       3.581  10.117   0.026  0.00  0.00    -0.246 N 
ATOM      7  C   UNL     1       4.208  10.344   1.198  0.00  0.00    +0.121 C 
ATOM      8  S   UNL     1       3.609  10.117   2.786  0.00  0.00    -0.027 S 
ATOM      9  S   UNL     1       5.815  10.935   0.693  0.00  0.00    -0.061 S 
BRANCH   2  11
ATOM     10  C   UNL     1       8.549  11.975  -2.812  0.00  0.00    +0.008 C 
ATOM     11  C   UNL     1       7.705  11.655  -1.803  0.00  0.00    +0.002 C 
BRANCH  10  15
ATOM     12  C   UNL     1      12.445  13.405  -1.943  0.00  0.00    +0.000 A 
ATOM     13  C   UNL     1      12.041  13.267  -3.260  0.00  0.00    +0.001 A 
ATOM     14  C   UNL     1      10.776  12.802  -3.551  0.00  0.00    +0.008 A 
ATOM     15  C   UNL     1       9.900  12.470  -2.511  0.00  0.00    -0.025 A 
ATOM     16  C   UNL     1      10.315  12.618  -1.183  0.00  0.00    +0.008 A 
ATOM     17  C   UNL     1      11.585  13.079  -0.909  0.00  0.00    +0.001 A 
ENDBRANCH  10  15
ENDBRANCH   2  11
ENDBRANCH   1   6
BRANCH   1  18
ATOM     18  C   UNL     1       2.227   8.103   0.027  0.00  0.00    +0.247 C 
ATOM     19  O   UNL     1       3.285   7.511   0.014  0.00  0.00    -0.273 OA
ATOM     20  N   UNL     1       1.069   7.414   0.033  0.00  0.00    -0.233 N 
ATOM     21  H   UNL     1       0.222   7.887   0.043  0.00  0.00    +0.173 HD
BRANCH  20  22
ATOM     22  N   UNL     1       1.088   6.013   0.025  0.00  0.00    -0.230 N 
ATOM     23  C   UNL     1      -0.070   5.323   0.031  0.00  0.00    +0.260 C 
ATOM     24  O   UNL     1      -1.131   5.916   0.044  0.00  0.00    -0.269 OA
ATOM     25  H   UNL     1       1.934   5.539   0.015  0.00  0.00    +0.173 HD
BRANCH  23  26
ATOM     26  C   UNL     1      -0.050   3.845   0.023  0.00  0.00    +0.040 A 
ATOM     27  C   UNL     1       1.166   3.160   0.008  0.00  0.00    +0.013 A 
ATOM     28  C   UNL     1       1.178   1.781   0.000  0.00  0.00    +0.003 A 
ATOM     29  C   UNL     1      -0.013   1.076   0.008  0.00  0.00    +0.033 A 
ATOM     30  C   UNL     1      -1.222   1.748   0.017  0.00  0.00    +0.127 A 
ATOM     31  C   UNL     1      -1.247   3.128   0.030  0.00  0.00    +0.045 A 
BRANCH  30  32
ATOM     32  N   UNL     1      -2.490   0.986   0.019  0.00  0.00    +0.056 N 
ATOM     33  O   UNL     1      -2.469  -0.232   0.013  0.00  0.00    -0.126 OA
ATOM     34  O   UNL     1      -3.556   1.576   0.028  0.00  0.00    -0.126 OA
ENDBRANCH  30  32
ENDBRANCH  23  26
ENDBRANCH  20  22
ENDBRANCH   1  18
TORSDOF 7
