REMARK  Name = ZINC18285475
REMARK  7 active torsions:
REMARK  status: ('A' for Active; 'I' for Inactive)
REMARK    1  A    between atoms: C_1  and  C_2
REMARK    2  A    between atoms: C_2  and  N_3
REMARK    3  A    between atoms: C_12  and  C_14
REMARK    4  A    between atoms: N_16  and  N_17
REMARK    5  A    between atoms: C_18  and  C_20
REMARK    6  A    between atoms: C_20  and  C_21
REMARK    7  A    between atoms: C_30  and  O_33
REMARK                            x       y       z     vdW  Elec       q    Type
REMARK                         _______ _______ _______ _____ _____    ______ ____
ROOT
ATOM      1  C   UNL     1       4.177  -1.274   1.907  0.00  0.00    +0.281 C 
ATOM      2  O   UNL     1       4.865  -1.672   2.827  0.00  0.00    -0.267 OA
ATOM      3  N   UNL     1       4.742  -0.994   0.716  0.00  0.00    -0.229 N 
ATOM      4  H   UNL     1       4.193  -0.676  -0.018  0.00  0.00    +0.173 HD
ENDROOT
BRANCH   1  14
ATOM      5  N   UNL     1       0.711  -0.489   1.189  0.00  0.00    -0.229 N 
ATOM      6  C   UNL     1      -0.005  -0.723   2.308  0.00  0.00    +0.275 A 
ATOM      7  O   UNL     1      -1.208  -0.536   2.329  0.00  0.00    -0.266 OA
ATOM      8  C   UNL     1       0.701  -1.210   3.502  0.00  0.00    +0.050 A 
ATOM      9  C   UNL     1       0.056  -1.481   4.704  0.00  0.00    +0.014 A 
ATOM     10  C   UNL     1       0.791  -1.935   5.778  0.00  0.00    +0.001 A 
ATOM     11  C   UNL     1       2.163  -2.123   5.671  0.00  0.00    +0.001 A 
ATOM     12  C   UNL     1       2.821  -1.860   4.488  0.00  0.00    +0.011 A 
ATOM     13  C   UNL     1       2.098  -1.402   3.392  0.00  0.00    +0.020 A 
ATOM     14  C   UNL     1       2.724  -1.098   2.095  0.00  0.00    +0.155 A 
ATOM     15  N   UNL     1       1.974  -0.674   1.107  0.00  0.00    -0.163 NA
BRANCH   5  17
ATOM     16  C   UNL     1      -0.019   1.526   0.010  0.00  0.00    +0.029 C 
ATOM     17  C   UNL     1       0.002  -0.004   0.002  0.00  0.00    +0.144 C 
ENDBRANCH   5  17
ENDBRANCH   1  14
BRANCH   3  18
ATOM     18  N   UNL     1       6.122  -1.161   0.538  0.00  0.00    -0.234 N 
ATOM     19  C   UNL     1       6.686  -0.880  -0.654  0.00  0.00    +0.230 C 
ATOM     20  O   UNL     1       6.000  -0.483  -1.571  0.00  0.00    -0.274 OA
ATOM     21  H   UNL     1       6.670  -1.478   1.272  0.00  0.00    +0.173 HD
BRANCH  19  22
ATOM     22  C   UNL     1       8.170  -1.060  -0.845  0.00  0.00    +0.104 C 
BRANCH  22  23
ATOM     23  C   UNL     1       8.550  -0.674  -2.276  0.00  0.00    -0.018 C 
ATOM     24  C   UNL     1       7.796  -1.569  -3.262  0.00  0.00    +0.011 C 
ATOM     25  C   UNL     1       8.176  -1.184  -4.694  0.00  0.00    -0.007 C 
ATOM     26  C   UNL     1       7.803   0.279  -4.944  0.00  0.00    +0.007 C 
ATOM     27  C   UNL     1       8.557   1.173  -3.958  0.00  0.00    -0.007 C 
ATOM     28  C   UNL     1       8.177   0.788  -2.527  0.00  0.00    +0.011 C 
ATOM     29  C   UNL     1      10.063   0.991  -4.152  0.00  0.00    +0.038 C 
ATOM     30  C   UNL     1      10.436  -0.472  -3.902  0.00  0.00    +0.067 C 
ATOM     31  C   UNL     1       9.683  -1.366  -4.888  0.00  0.00    +0.038 C 
ATOM     32  C   UNL     1      10.056  -0.857  -2.471  0.00  0.00    +0.042 C 
BRANCH  30  33
ATOM     33  O   UNL     1      11.843  -0.642  -4.084  0.00  0.00    -0.389 OA
ATOM     34  H   UNL     1      12.156  -0.416  -4.970  0.00  0.00    +0.210 HD
ENDBRANCH  30  33
ENDBRANCH  22  23
ENDBRANCH  19  22
ENDBRANCH   3  18
TORSDOF 6
