REMARK  Name = ZINC08974474
REMARK  5 active torsions:
REMARK  status: ('A' for Active; 'I' for Inactive)
REMARK    1  A    between atoms: C_4  and  O_7
REMARK    2  A    between atoms: O_7  and  C_8
REMARK    3  A    between atoms: C_8  and  C_9
REMARK    4  A    between atoms: C_21  and  O_33
REMARK    5  A    between atoms: C_25  and  C_27
REMARK                            x       y       z     vdW  Elec       q    Type
REMARK                         _______ _______ _______ _____ _____    ______ ____
ROOT
ATOM      1  C   UNL     1       0.002  -0.004   0.002  0.00  0.00    +0.189 A 
ATOM      2  N   UNL     1       1.261  -0.437  -0.012  0.00  0.00    -0.207 NA
ATOM      3  C   UNL     1       2.078   0.589  -0.013  0.00  0.00    +0.167 A 
ATOM      4  C   UNL     1       3.478   0.699  -0.023  0.00  0.00    +0.070 A 
ATOM      5  C   UNL     1       3.997   1.966  -0.020  0.00  0.00    +0.230 A 
ATOM      6  N   UNL     1       3.189   3.039  -0.011  0.00  0.00    -0.201 NA
ATOM      7  C   UNL     1       1.881   2.964  -0.002  0.00  0.00    +0.229 A 
ATOM      8  N   UNL     1       1.305   1.736  -0.001  0.00  0.00    -0.201 N 
ATOM      9  N   UNL     1      -0.016   1.312   0.009  0.00  0.00    -0.145 NA
ATOM     10  O   UNL     1       5.336   2.158  -0.024  0.00  0.00    -0.437 OA
ATOM     11  C   UNL     1       6.172   1.169  -0.421  0.00  0.00    +0.138 A 
ATOM     12  C   UNL     1       7.469   1.489  -0.804  0.00  0.00    +0.092 A 
ATOM     13  C   UNL     1       8.338   0.492  -1.213  0.00  0.00    +0.120 A 
ATOM     14  C   UNL     1       7.913  -0.829  -1.239  0.00  0.00    +0.046 A 
ATOM     15  C   UNL     1       6.625  -1.146  -0.857  0.00  0.00    +0.012 A 
ATOM     16  C   UNL     1       5.754  -0.152  -0.449  0.00  0.00    +0.007 A 
ATOM     17  C   UNL     1       4.353  -0.516  -0.034  0.00  0.00    +0.093 C 
ENDROOT
BRANCH  17  18
ATOM     18  C   UNL     1       4.383  -1.122   1.345  0.00  0.00    -0.017 A 
ATOM     19  C   UNL     1       3.945  -2.421   1.552  0.00  0.00    +0.007 A 
ATOM     20  C   UNL     1       3.991  -2.937   2.838  0.00  0.00    +0.020 A 
ATOM     21  C   UNL     1       4.469  -2.144   3.864  0.00  0.00    +0.111 A 
ATOM     22  N   UNL     1       4.878  -0.913   3.631  0.00  0.00    -0.263 NA
ATOM     23  C   UNL     1       4.854  -0.392   2.420  0.00  0.00    +0.115 A 
ENDBRANCH  17  18
BRANCH  13  24
ATOM     24  O   UNL     1       9.606   0.806  -1.588  0.00  0.00    -0.507 OA
ATOM     25  H   UNL     1      10.246   0.793  -0.863  0.00  0.00    +0.292 HD
ENDBRANCH  13  24
BRANCH   1  26
ATOM     26  C   UNL     1      -1.219  -0.888   0.008  0.00  0.00    +0.306 C 
BRANCH  26  27
ATOM     27  O   UNL     1      -1.617  -1.159  -1.337  0.00  0.00    -0.484 OA
BRANCH  27  31
ATOM     28  C   UNL     1      -4.935  -3.554  -1.862  0.00  0.00    +0.000 A 
ATOM     29  C   UNL     1      -4.263  -3.054  -2.962  0.00  0.00    +0.004 A 
ATOM     30  C   UNL     1      -3.152  -2.252  -2.789  0.00  0.00    +0.045 A 
ATOM     31  C   UNL     1      -2.710  -1.948  -1.510  0.00  0.00    +0.121 A 
ATOM     32  C   UNL     1      -3.382  -2.455  -0.408  0.00  0.00    +0.045 A 
ATOM     33  C   UNL     1      -4.496  -3.252  -0.586  0.00  0.00    +0.004 A 
ENDBRANCH  27  31
ENDBRANCH  26  27
ENDBRANCH   1  26
TORSDOF 5
