REMARK  Name = ZINC39962452
REMARK  5 active torsions:
REMARK  status: ('A' for Active; 'I' for Inactive)
REMARK    1  A    between atoms: C_7  and  C_10
REMARK    2  A    between atoms: C_10  and  C_11
REMARK    3  A    between atoms: C_15  and  S_18
REMARK    4  A    between atoms: S_18  and  C_19
REMARK    5  A    between atoms: C_19  and  C_20
REMARK                            x       y       z     vdW  Elec       q    Type
REMARK                         _______ _______ _______ _____ _____    ______ ____
ROOT
ATOM      1  C   UNL     1      -4.437   3.680  -1.374  0.00  0.00    +0.207 C 
ATOM      2  N   UNL     1      -5.040   5.032  -1.393  0.00  0.00    -0.226 NA
ATOM      3  N   UNL     1      -4.311   5.780  -2.420  0.00  0.00    -0.218 NA
ATOM      4  C   UNL     1      -3.306   4.840  -2.967  0.00  0.00    +0.263 C 
ATOM      5  O   UNL     1      -3.110   3.864  -1.917  0.00  0.00    -0.332 OA
ATOM      6  H   UNL     1      -6.025   4.986  -1.610  0.00  0.00    +0.143 HD
ATOM      7  H   UNL     1      -4.936   6.103  -3.144  0.00  0.00    +0.144 HD
ENDROOT
BRANCH   1   8
ATOM      8  C   UNL     1      -4.358   3.151   0.060  0.00  0.00    +0.086 C 
BRANCH   8  15
ATOM      9  C   UNL     1      -0.017   1.384   0.010  0.00  0.00    +0.001 A 
ATOM     10  C   UNL     1       0.002  -0.004   0.002  0.00  0.00    +0.002 A 
ATOM     11  C   UNL     1      -1.173  -0.723   0.009  0.00  0.00    +0.026 A 
ATOM     12  C   UNL     1      -2.392  -0.053   0.024  0.00  0.00    +0.047 A 
ATOM     13  N   UNL     1      -3.704  -0.472   0.034  0.00  0.00    -0.360 N 
ATOM     14  C   UNL     1      -4.539   0.612   0.047  0.00  0.00    +0.087 A 
ATOM     15  C   UNL     1      -3.818   1.744   0.047  0.00  0.00    -0.019 A 
ATOM     16  C   UNL     1      -2.406   1.353   0.032  0.00  0.00    +0.003 A 
ATOM     17  C   UNL     1      -1.203   2.062   0.030  0.00  0.00    +0.010 A 
ATOM     18  H   UNL     1      -3.993  -1.398   0.030  0.00  0.00    +0.165 HD
ENDBRANCH   8  15
ENDBRANCH   1   8
BRANCH   4  19
ATOM     19  S   UNL     1      -1.755   5.710  -3.326  0.00  0.00    -0.108 S 
BRANCH  19  20
ATOM     20  C   UNL     1      -1.245   6.378  -1.719  0.00  0.00    +0.108 C 
BRANCH  20  21
ATOM     21  C   UNL     1       0.048   7.135  -1.877  0.00  0.00    -0.037 A 
ATOM     22  C   UNL     1       1.256   6.477  -1.733  0.00  0.00    +0.005 A 
ATOM     23  C   UNL     1       2.442   7.171  -1.879  0.00  0.00    +0.015 A 
ATOM     24  C   UNL     1       2.422   8.523  -2.169  0.00  0.00    +0.018 A 
ATOM     25  C   UNL     1       1.214   9.181  -2.313  0.00  0.00    +0.015 A 
ATOM     26  C   UNL     1       0.027   8.485  -2.172  0.00  0.00    +0.005 A 
ATOM     27 BR   UNL     1       4.045   9.473  -2.368  0.00  0.00    -0.050 Br
ENDBRANCH  20  21
ENDBRANCH  19  20
ENDBRANCH   4  19
TORSDOF 5
