REMARK  Name = ZINC01432533
REMARK  4 active torsions:
REMARK  status: ('A' for Active; 'I' for Inactive)
REMARK    1  A    between atoms: C_5  and  N_8
REMARK    2  A    between atoms: C_9  and  C_11
REMARK    3  A    between atoms: C_11  and  O_12
REMARK    4  A    between atoms: O_12  and  N_13
REMARK                            x       y       z     vdW  Elec       q    Type
REMARK                         _______ _______ _______ _____ _____    ______ ____
ROOT
ATOM      1  C   UNL     1       5.728   3.171   0.551  0.00  0.00    +0.358 C 
ENDROOT
BRANCH   1   3
ATOM      2  N   UNL     1       3.532   2.226   1.186  0.00  0.00    -0.310 N 
ATOM      3  C   UNL     1       4.536   2.287   0.289  0.00  0.00    +0.254 C 
ATOM      4  O   UNL     1       4.481   1.630  -0.729  0.00  0.00    -0.272 OA
ATOM      5  H   UNL     1       3.577   2.752   2.000  0.00  0.00    +0.149 HD
BRANCH   2  10
ATOM      6  C   UNL     1      -0.083  -0.503   1.459  0.00  0.00    +0.000 C 
ATOM      7  C   UNL     1       0.002  -0.004   0.002  0.00  0.00    +0.000 C 
ATOM      8  C   UNL     1      -0.018   1.500   0.010  0.00  0.00    +0.002 C 
ATOM      9  C   UNL     1       1.397   2.109   0.000  0.00  0.00    +0.022 C 
ATOM     10  C   UNL     1       2.374   1.367   0.932  0.00  0.00    +0.073 C 
ATOM     11  C   UNL     1       1.745   0.995   2.247  0.00  0.00    +0.022 C 
ATOM     12  C   UNL     1       1.201  -0.444   2.142  0.00  0.00    +0.002 C 
ENDBRANCH   2  10
ENDBRANCH   1   3
BRANCH   1  13
ATOM     13  O   UNL     1       6.649   3.064  -0.537  0.00  0.00    -0.384 OA
BRANCH  13  14
ATOM     14  N   UNL     1       7.810   3.860  -0.389  0.00  0.00    -0.087 NA
ATOM     15  C   UNL     1       8.721   3.852  -1.306  0.00  0.00    +0.110 C 
ATOM     16  C   UNL     1       8.609   3.009  -2.571  0.00  0.00    +0.061 C 
ATOM     17  C   UNL     1       9.955   2.336  -2.845  0.00  0.00    +0.013 C 
ATOM     18  C   UNL     1      11.030   3.365  -3.216  0.00  0.00    +0.061 C 
ATOM     19  C   UNL     1      11.079   4.421  -2.154  0.00  0.00    +0.113 A 
ATOM     20  C   UNL     1       9.952   4.662  -1.217  0.00  0.00    +0.154 A 
ATOM     21  N   UNL     1      10.384   5.618  -0.471  0.00  0.00    -0.047 NA
ATOM     22  O   UNL     1      11.504   5.927  -0.845  0.00  0.00    -0.242 OA
ATOM     23  N   UNL     1      11.947   5.291  -1.785  0.00  0.00    -0.053 NA
ENDBRANCH  13  14
ENDBRANCH   1  13
TORSDOF 4
