REMARK  Name = ZINC21582945
REMARK  8 active torsions:
REMARK  status: ('A' for Active; 'I' for Inactive)
REMARK    1  A    between atoms: C_1  and  C_2
REMARK    2  A    between atoms: C_2  and  O_3
REMARK    3  A    between atoms: O_3  and  C_4
REMARK    4  A    between atoms: C_4  and  C_6
REMARK    5  A    between atoms: C_7  and  C_19
REMARK    6  A    between atoms: C_12  and  C_14
REMARK    7  A    between atoms: C_19  and  N_20
REMARK    8  A    between atoms: C_24  and  C_26
REMARK                            x       y       z     vdW  Elec       q    Type
REMARK                         _______ _______ _______ _____ _____    ______ ____
ROOT
ATOM      1  C   UNL     1       0.088  -0.038   0.981  0.00  0.00    +0.079 C 
ATOM      2  C   UNL     1      -0.840   0.896   0.684  0.00  0.00    +0.008 C 
ATOM      3  N   UNL     1      -0.476   2.153   0.294  0.00  0.00    -0.274 N 
ATOM      4  C   UNL     1       0.796   2.557   0.186  0.00  0.00    +0.304 C 
ATOM      5  O   UNL     1       1.022   3.699  -0.165  0.00  0.00    -0.252 OA
ATOM      6  N   UNL     1       1.834   1.740   0.453  0.00  0.00    -0.285 N 
ATOM      7  C   UNL     1       1.547   0.359   0.877  0.00  0.00    +0.179 C 
ATOM      8  H   UNL     1      -1.247   2.898   0.048  0.00  0.00    +0.156 HD
ATOM      9  H   UNL     1       2.875   2.082   0.361  0.00  0.00    +0.151 HD
ENDROOT
BRANCH   7  10
ATOM     10  C   UNL     1       2.215  -0.575  -0.099  0.00  0.00    +0.130 A 
ATOM     11  C   UNL     1       2.851  -1.718   0.215  0.00  0.00    +0.047 A 
ATOM     12  C   UNL     1       3.322  -2.271  -0.997  0.00  0.00    +0.041 A 
ATOM     13  C   UNL     1       2.945  -1.433  -1.980  0.00  0.00    +0.195 A 
ATOM     14  O   UNL     1       2.270  -0.411  -1.431  0.00  0.00    -0.466 OA
ENDBRANCH   7  10
BRANCH   1  15
ATOM     15  C   UNL     1      -0.288  -1.342   1.381  0.00  0.00    +0.339 C 
ATOM     16  O   UNL     1      -1.458  -1.675   1.348  0.00  0.00    -0.245 OA
BRANCH  15  17
ATOM     17  O   UNL     1       0.651  -2.217   1.798  0.00  0.00    -0.462 OA
BRANCH  17  19
ATOM     18  C   UNL     1       1.397  -4.361   2.626  0.00  0.00    +0.048 C 
ATOM     19  C   UNL     1       0.200  -3.516   2.187  0.00  0.00    +0.229 C 
ENDBRANCH  17  19
ENDBRANCH  15  17
ENDBRANCH   1  15
BRANCH   2  20
ATOM     20  C   UNL     1      -2.303   0.544   0.779  0.00  0.00    -0.026 C 
BRANCH  20  21
ATOM     21  N   UNL     1      -2.706  -0.199  -0.422  0.00  0.00    +0.388 N 
ATOM     22  C   UNL     1      -2.822   0.701  -1.589  0.00  0.00    -0.078 C 
ATOM     23  C   UNL     1      -3.980   0.111  -2.431  0.00  0.00    -0.020 C 
ATOM     24  C   UNL     1      -4.954  -0.376  -1.327  0.00  0.00    -0.013 C 
ATOM     25  C   UNL     1      -4.003  -0.871  -0.217  0.00  0.00    -0.037 C 
ATOM     26  H   UNL     1      -1.926  -0.952  -0.607  0.00  0.00    -0.080 HD
BRANCH  25  27
ATOM     27  C   UNL     1      -4.558  -0.510   1.137  0.00  0.00    -0.057 A 
ATOM     28  C   UNL     1      -4.919   0.796   1.408  0.00  0.00    +0.006 A 
ATOM     29  C   UNL     1      -5.429   1.135   2.649  0.00  0.00    +0.049 A 
ATOM     30  C   UNL     1      -5.577   0.158   3.620  0.00  0.00    +0.162 A 
ATOM     31  C   UNL     1      -5.215  -1.153   3.347  0.00  0.00    +0.162 A 
ATOM     32  C   UNL     1      -4.710  -1.490   2.102  0.00  0.00    +0.051 A 
ATOM     33  O   UNL     1      -5.364  -2.108   4.311  0.00  0.00    -0.488 OA
ATOM     34  C   UNL     1      -6.710  -2.441   4.657  0.00  0.00    +0.232 C 
ATOM     35  C   UNL     1      -7.256  -1.470   5.692  0.00  0.00    +0.082 C 
ATOM     36  C   UNL     1      -7.369  -0.052   5.154  0.00  0.00    +0.232 C 
ATOM     37  O   UNL     1      -6.077   0.478   4.848  0.00  0.00    -0.488 OA
ENDBRANCH  25  27
ENDBRANCH  20  21
ENDBRANCH   2  20
TORSDOF 7
