REMARK  Name = ZINC24767428
REMARK  9 active torsions:
REMARK  status: ('A' for Active; 'I' for Inactive)
REMARK    1  A    between atoms: C_1  and  C_2
REMARK    2  A    between atoms: C_2  and  C_3
REMARK    3  A    between atoms: C_3  and  O_4
REMARK    4  A    between atoms: O_4  and  C_5
REMARK    5  A    between atoms: C_10  and  N_11
REMARK    6  A    between atoms: C_12  and  C_14
REMARK    7  A    between atoms: C_14  and  N_15
REMARK    8  A    between atoms: C_18  and  C_22
REMARK    9  A    between atoms: C_18  and  C_23
REMARK                            x       y       z     vdW  Elec       q    Type
REMARK                         _______ _______ _______ _____ _____    ______ ____
ROOT
ATOM      1  N   UNL     1       1.972  -3.417  -1.804  0.00  0.00    -0.215 N 
ATOM      2  C   UNL     1       2.431  -2.700  -0.759  0.00  0.00    +0.251 C 
ATOM      3  O   UNL     1       3.588  -2.502  -0.459  0.00  0.00    -0.272 OA
ATOM      4  C   UNL     1       1.198  -2.194  -0.037  0.00  0.00    +0.135 C 
ATOM      5  N   UNL     1       0.083  -2.735  -0.834  0.00  0.00    -0.281 N 
ATOM      6  C   UNL     1       0.635  -3.433  -1.843  0.00  0.00    +0.310 C 
ATOM      7  O   UNL     1      -0.009  -4.015  -2.693  0.00  0.00    -0.252 OA
ATOM      8  C   UNL     1       1.152  -2.733   1.394  0.00  0.00    +0.047 C 
ATOM      9  H   UNL     1      -0.956  -2.524  -0.540  0.00  0.00    +0.152 HD
ENDROOT
BRANCH   4  10
ATOM     10  C   UNL     1       1.166  -0.687  -0.035  0.00  0.00    -0.014 A 
ATOM     11  C   UNL     1       2.349   0.029  -0.045  0.00  0.00    +0.006 A 
ATOM     12  C   UNL     1       2.320   1.411  -0.043  0.00  0.00    +0.001 A 
ATOM     13  C   UNL     1       1.109   2.078  -0.031  0.00  0.00    +0.015 A 
ATOM     14  C   UNL     1      -0.074   1.362  -0.021  0.00  0.00    +0.018 A 
ATOM     15  C   UNL     1      -0.045  -0.021  -0.023  0.00  0.00    +0.021 A 
ATOM     16 BR   UNL     1      -1.731   2.273  -0.011  0.00  0.00    -0.050 Br
ENDBRANCH   4  10
BRANCH   1  17
ATOM     17  C   UNL     1       2.832  -4.093  -2.779  0.00  0.00    +0.214 C 
BRANCH  17  19
ATOM     18  N   UNL     1       3.895  -6.311  -3.048  0.00  0.00    -0.281 N 
ATOM     19  C   UNL     1       3.119  -5.496  -2.307  0.00  0.00    +0.235 C 
ATOM     20  O   UNL     1       2.651  -5.891  -1.260  0.00  0.00    -0.274 OA
ATOM     21  H   UNL     1       4.259  -5.979  -4.032  0.00  0.00    +0.155 HD
BRANCH  18  27
ATOM     22  C   UNL     1       5.486  -8.126  -2.862  0.00  0.00    +0.142 A 
ATOM     23  C   UNL     1       5.822  -9.380  -2.379  0.00  0.00    +0.047 A 
ATOM     24  C   UNL     1       4.917 -10.092  -1.614  0.00  0.00    +0.004 A 
ATOM     25  C   UNL     1       3.677  -9.553  -1.324  0.00  0.00    +0.002 A 
ATOM     26  C   UNL     1       3.336  -8.301  -1.798  0.00  0.00    +0.027 A 
ATOM     27  C   UNL     1       4.239  -7.581  -2.566  0.00  0.00    +0.076 A 
BRANCH  22  28
ATOM     28  O   UNL     1       6.373  -7.427  -3.620  0.00  0.00    -0.490 OA
BRANCH  28  29
ATOM     29  C   UNL     1       7.632  -8.049  -3.883  0.00  0.00    +0.229 C 
BRANCH  29  31
ATOM     30  C   UNL     1       9.838  -7.785  -5.026  0.00  0.00    +0.007 C 
ATOM     31  C   UNL     1       8.490  -7.119  -4.744  0.00  0.00    +0.038 C 
ENDBRANCH  29  31
ENDBRANCH  28  29
ENDBRANCH  22  28
ENDBRANCH  18  27
ENDBRANCH  17  19
ENDBRANCH   1  17
TORSDOF 7
