REMARK  Name = ZINC44645669
REMARK  14 active torsions:
REMARK  status: ('A' for Active; 'I' for Inactive)
REMARK    1  A    between atoms: C_1  and  C_2
REMARK    2  A    between atoms: C_2  and  C_3
REMARK    3  A    between atoms: C_3  and  N_4
REMARK    4  A    between atoms: C_13  and  C_16
REMARK    5  A    between atoms: C_16  and  O_18
REMARK    6  A    between atoms: O_18  and  C_19
REMARK    7  A    between atoms: C_19  and  C_21
REMARK    8  A    between atoms: C_19  and  C_22
REMARK    9  A    between atoms: C_22  and  C_24
REMARK   10  A    between atoms: C_25  and  C_35
REMARK   11  A    between atoms: C_26  and  C_31
REMARK   12  A    between atoms: C_27  and  C_30
REMARK   13  A    between atoms: C_31  and  O_33
REMARK   14  A    between atoms: O_33  and  C_34
REMARK                            x       y       z     vdW  Elec       q    Type
REMARK                         _______ _______ _______ _____ _____    ______ ____
ROOT
ATOM      1  C   UNL     1      -2.262  -4.615   2.415  0.00  0.00    +0.331 C 
ATOM      2  O   UNL     1      -1.274  -4.489   3.099  0.00  0.00    -0.249 OA
ENDROOT
BRANCH   1  12
ATOM      3  N   UNL     1      -1.413  -1.998   0.005  0.00  0.00    -0.232 N 
ATOM      4  C   UNL     1      -1.308  -2.649  -1.173  0.00  0.00    +0.260 C 
ATOM      5  O   UNL     1      -1.045  -2.048  -2.196  0.00  0.00    -0.269 OA
ATOM      6  C   UNL     1      -1.520  -4.113  -1.185  0.00  0.00    +0.043 A 
ATOM      7  C   UNL     1      -1.213  -4.891  -2.296  0.00  0.00    +0.013 A 
ATOM      8  C   UNL     1      -1.419  -6.256  -2.246  0.00  0.00    +0.001 A 
ATOM      9  C   UNL     1      -1.925  -6.843  -1.099  0.00  0.00    +0.000 A 
ATOM     10  C   UNL     1      -2.237  -6.070   0.007  0.00  0.00    +0.006 A 
ATOM     11  C   UNL     1      -2.042  -4.709  -0.032  0.00  0.00    -0.006 A 
ATOM     12  C   UNL     1      -2.398  -3.828   1.136  0.00  0.00    +0.212 C 
ATOM     13  N   UNL     1      -1.497  -2.670   1.184  0.00  0.00    -0.220 NA
ATOM     14  H   UNL     1      -0.581  -2.933   1.516  0.00  0.00    +0.146 HD
BRANCH   3  15
ATOM     15  C   UNL     1      -1.433  -0.534   0.013  0.00  0.00    +0.127 C 
BRANCH  15  17
ATOM     16  C   UNL     1      -0.019   1.526   0.010  0.00  0.00    +0.005 C 
ATOM     17  C   UNL     1       0.002  -0.004   0.002  0.00  0.00    +0.017 C 
ENDBRANCH  15  17
ENDBRANCH   3  15
ENDBRANCH   1  12
BRANCH   1  18
ATOM     18  O   UNL     1      -3.238  -5.455   2.792  0.00  0.00    -0.452 OA
BRANCH  18  19
ATOM     19  C   UNL     1      -3.042  -6.169   4.015  0.00  0.00    +0.245 C 
ATOM     20  C   UNL     1      -2.333  -7.493   3.725  0.00  0.00    +0.061 C 
BRANCH  19  21
ATOM     21  C   UNL     1      -4.379  -6.444   4.655  0.00  0.00    +0.219 C 
ATOM     22  O   UNL     1      -5.391  -6.408   3.986  0.00  0.00    -0.287 OA
BRANCH  21  23
ATOM     23  C   UNL     1      -4.454  -6.746   6.036  0.00  0.00    +0.090 A 
ATOM     24  C   UNL     1      -5.604  -7.023   6.743  0.00  0.00    -0.008 A 
ATOM     25  C   UNL     1      -5.214  -7.264   8.078  0.00  0.00    +0.083 A 
ATOM     26  C   UNL     1      -3.838  -7.125   8.134  0.00  0.00    +0.028 A 
ATOM     27  N   UNL     1      -3.387  -6.821   6.908  0.00  0.00    -0.355 N 
ATOM     28  H   UNL     1      -2.458  -6.674   6.673  0.00  0.00    +0.166 HD
ATOM     29  C   UNL     1      -2.988  -7.294   9.367  0.00  0.00    +0.064 C 
ATOM     30  C   UNL     1      -7.007  -7.060   6.196  0.00  0.00    +0.047 C 
BRANCH  25  31
ATOM     31  C   UNL     1      -6.105  -7.600   9.201  0.00  0.00    +0.341 C 
ATOM     32  O   UNL     1      -6.361  -8.763   9.447  0.00  0.00    -0.245 OA
BRANCH  31  33
ATOM     33  O   UNL     1      -6.638  -6.619   9.956  0.00  0.00    -0.464 OA
ATOM     34  C   UNL     1      -7.493  -7.018  11.029  0.00  0.00    +0.280 C 
ENDBRANCH  31  33
ENDBRANCH  25  31
ENDBRANCH  21  23
ENDBRANCH  19  21
ENDBRANCH  18  19
ENDBRANCH   1  18
TORSDOF 9
