REMARK  Name = ZINC08433056
REMARK  14 active torsions:
REMARK  status: ('A' for Active; 'I' for Inactive)
REMARK    1  A    between atoms: C_1  and  C_2
REMARK    2  A    between atoms: C_2  and  O_3
REMARK    3  A    between atoms: O_3  and  C_4
REMARK    4  A    between atoms: C_4  and  C_6
REMARK    5  A    between atoms: C_8  and  C_21
REMARK    6  A    between atoms: N_13  and  C_20
REMARK    7  A    between atoms: C_14  and  C_15
REMARK    8  A    between atoms: C_14  and  O_19
REMARK    9  A    between atoms: C_23  and  O_31
REMARK   10  A    between atoms: C_24  and  O_29
REMARK   11  A    between atoms: C_25  and  O_27
REMARK   12  A    between atoms: O_27  and  C_28
REMARK   13  A    between atoms: O_29  and  C_30
REMARK   14  A    between atoms: O_31  and  C_32
REMARK                            x       y       z     vdW  Elec       q    Type
REMARK                         _______ _______ _______ _____ _____    ______ ____
ROOT
ATOM      1  C   UNL     1       0.813  -2.279   1.167  0.00  0.00    +0.182 C 
ATOM      2  C   UNL     1      -0.028  -2.870   0.030  0.00  0.00    +0.123 C 
ATOM      3  N   UNL     1       0.087  -2.012  -1.149  0.00  0.00    -0.291 N 
ATOM      4  C   UNL     1       0.306  -0.693  -1.034  0.00  0.00    +0.305 C 
ATOM      5  O   UNL     1       0.377  -0.022  -2.046  0.00  0.00    -0.253 OA
ATOM      6  N   UNL     1       0.453  -0.086   0.153  0.00  0.00    -0.252 N 
ATOM      7  C   UNL     1       0.359  -0.835   1.408  0.00  0.00    +0.248 C 
ATOM      8  C   UNL     1       0.708   1.356   0.195  0.00  0.00    +0.137 C 
ATOM      9  H   UNL     1      -0.001  -2.403  -2.032  0.00  0.00    +0.151 HD
ENDROOT
BRANCH   2  10
ATOM     10  C   UNL     1       0.475  -4.252  -0.301  0.00  0.00    -0.019 A 
ATOM     11  C   UNL     1       1.551  -4.407  -1.155  0.00  0.00    +0.055 A 
ATOM     12  C   UNL     1       2.020  -5.676  -1.459  0.00  0.00    +0.165 A 
ATOM     13  C   UNL     1       1.400  -6.793  -0.912  0.00  0.00    +0.204 A 
ATOM     14  C   UNL     1       0.316  -6.633  -0.058  0.00  0.00    +0.165 A 
ATOM     15  C   UNL     1      -0.144  -5.360   0.245  0.00  0.00    +0.055 A 
BRANCH  14  16
ATOM     16  O   UNL     1      -0.294  -7.723   0.480  0.00  0.00    -0.491 OA
ATOM     17  C   UNL     1      -1.403  -7.484   1.350  0.00  0.00    +0.277 C 
ENDBRANCH  14  16
BRANCH  13  18
ATOM     18  O   UNL     1       1.854  -8.041  -1.212  0.00  0.00    -0.488 OA
ATOM     19  C   UNL     1       1.279  -8.683  -2.351  0.00  0.00    +0.277 C 
ENDBRANCH  13  18
BRANCH  12  20
ATOM     20  O   UNL     1       3.082  -5.827  -2.295  0.00  0.00    -0.491 OA
ATOM     21  C   UNL     1       3.709  -4.634  -2.770  0.00  0.00    +0.277 C 
ENDBRANCH  12  20
ENDBRANCH   2  10
BRANCH   7  22
ATOM     22  C   UNL     1       1.261  -0.184   2.459  0.00  0.00    +0.437 C 
ATOM     23  F   UNL     1       0.766   1.085   2.777  0.00  0.00    -0.166 F 
ATOM     24  F   UNL     1       1.282  -0.979   3.611  0.00  0.00    -0.166 F 
ATOM     25  F   UNL     1       2.559  -0.065   1.952  0.00  0.00    -0.166 F 
ENDBRANCH   7  22
BRANCH   1  26
ATOM     26  C   UNL     1       2.269  -2.294   0.780  0.00  0.00    +0.317 C 
ATOM     27  O   UNL     1       2.647  -1.663  -0.178  0.00  0.00    -0.250 OA
BRANCH  26  28
ATOM     28  O   UNL     1       3.147  -3.010   1.501  0.00  0.00    -0.465 OA
BRANCH  28  30
ATOM     29  C   UNL     1       5.345  -3.976   1.905  0.00  0.00    +0.048 C 
ATOM     30  C   UNL     1       4.527  -3.007   1.050  0.00  0.00    +0.229 C 
ENDBRANCH  28  30
ENDBRANCH  26  28
ENDBRANCH   1  26
BRANCH   7  31
ATOM     31  O   UNL     1      -0.994  -0.829   1.867  0.00  0.00    -0.364 OA
ATOM     32  H   UNL     1      -1.348   0.055   2.035  0.00  0.00    +0.212 HD
ENDBRANCH   7  31
TORSDOF 9
