REMARK  Name = ZINC21582098
REMARK  7 active torsions:
REMARK  status: ('A' for Active; 'I' for Inactive)
REMARK    1  A    between atoms: C_1  and  C_2
REMARK    2  A    between atoms: C_3  and  C_28
REMARK    3  A    between atoms: C_5  and  S_7
REMARK    4  A    between atoms: S_7  and  C_8
REMARK    5  A    between atoms: C_8  and  C_9
REMARK    6  A    between atoms: C_22  and  C_24
REMARK    7  A    between atoms: C_28  and  C_29
REMARK                            x       y       z     vdW  Elec       q    Type
REMARK                         _______ _______ _______ _____ _____    ______ ____
ROOT
ATOM      1  C   UNL     1       1.822  -1.517   0.609  0.00  0.00    +0.231 C 
ATOM      2  O   UNL     1       1.717  -2.045  -0.478  0.00  0.00    -0.274 OA
ATOM      3  N   UNL     1       1.013  -0.492   0.942  0.00  0.00    -0.257 N 
ATOM      4  C   UNL     1       1.122   0.128   2.193  0.00  0.00    +0.058 A 
ATOM      5  C   UNL     1       0.690  -0.517   3.341  0.00  0.00    +0.025 A 
ATOM      6  C   UNL     1       0.780   0.120   4.564  0.00  0.00    +0.002 A 
ATOM      7  C   UNL     1       1.300   1.399   4.648  0.00  0.00    +0.002 A 
ATOM      8  C   UNL     1       1.742   2.047   3.509  0.00  0.00    +0.025 A 
ATOM      9  C   UNL     1       1.666   1.410   2.281  0.00  0.00    +0.055 A 
ATOM     10  N   UNL     1       2.144   2.027   1.119  0.00  0.00    -0.284 N 
ATOM     11  C   UNL     1       1.388   2.063  -0.000  0.00  0.00    +0.219 C 
ATOM     12  O   UNL     1       1.845   2.532  -1.021  0.00  0.00    -0.275 OA
ATOM     13  C   UNL     1      -0.019   1.526   0.010  0.00  0.00    +0.128 C 
ATOM     14  C   UNL     1       0.002  -0.004   0.002  0.00  0.00    +0.194 C 
ATOM     15  H   UNL     1       3.143   2.488   1.113  0.00  0.00    +0.155 HD
ENDROOT
BRANCH  14  16
ATOM     16  C   UNL     1      -1.373  -0.533   0.414  0.00  0.00    +0.409 C 
ATOM     17  F   UNL     1      -2.339  -0.075  -0.488  0.00  0.00    -0.169 F 
ATOM     18  F   UNL     1      -1.355  -1.932   0.407  0.00  0.00    -0.169 F 
ATOM     19  F   UNL     1      -1.682  -0.078   1.700  0.00  0.00    -0.169 F 
ENDBRANCH  14  16
BRANCH   1  20
ATOM     20  C   UNL     1       2.857  -2.008   1.588  0.00  0.00    +0.172 C 
BRANCH  20  21
ATOM     21  S   UNL     1       3.779  -3.382   0.854  0.00  0.00    -0.089 S 
BRANCH  21  26
ATOM     22  C   UNL     1       5.997  -2.898   5.583  0.00  0.00    +0.066 C 
ATOM     23  C   UNL     1       5.885  -3.568   4.238  0.00  0.00    +0.050 A 
ATOM     24  C   UNL     1       6.700  -4.598   3.908  0.00  0.00    +0.022 A 
ATOM     25  S   UNL     1       6.116  -4.971   2.260  0.00  0.00    -0.065 S 
ATOM     26  C   UNL     1       4.886  -3.748   2.175  0.00  0.00    +0.135 A 
ATOM     27  N   UNL     1       4.991  -3.166   3.355  0.00  0.00    -0.238 NA
BRANCH  24  28
ATOM     28  C   UNL     1       7.795  -5.254   4.710  0.00  0.00    +0.139 C 
BRANCH  28  29
ATOM     29  C   UNL     1       7.216  -6.391   5.513  0.00  0.00    +0.215 C 
ATOM     30  O   UNL     1       6.032  -6.643   5.441  0.00  0.00    -0.276 OA
ATOM     31  N   UNL     1       8.015  -7.126   6.312  0.00  0.00    -0.329 N 
ATOM     32  H   UNL     1       7.593  -7.955   6.898  0.00  0.00    +0.145 HD
ATOM     33  H   UNL     1       9.089  -6.897   6.378  0.00  0.00    +0.145 HD
ENDBRANCH  28  29
ENDBRANCH  24  28
ENDBRANCH  21  26
ENDBRANCH  20  21
ENDBRANCH   1  20
TORSDOF 6
