REMARK  Name = ZINC14953517
REMARK  16 active torsions:
REMARK  status: ('A' for Active; 'I' for Inactive)
REMARK    1  A    between atoms: C_1  and  C_2
REMARK    2  A    between atoms: C_5  and  C_7
REMARK    3  A    between atoms: C_7  and  N_61
REMARK    4  A    between atoms: C_8  and  C_9
REMARK    5  A    between atoms: C_8  and  N_61
REMARK    6  A    between atoms: C_12  and  O_29
REMARK    7  A    between atoms: C_13  and  O_15
REMARK    8  A    between atoms: O_15  and  C_16
REMARK    9  A    between atoms: C_16  and  C_17
REMARK   10  A    between atoms: C_17  and  C_19
REMARK   11  A    between atoms: C_17  and  O_28
REMARK   12  A    between atoms: C_19  and  N_64
REMARK   13  A    between atoms: C_20  and  N_64
REMARK   14  A    between atoms: C_21  and  C_22
REMARK   15  A    between atoms: C_21  and  N_64
REMARK   16  A    between atoms: O_29  and  C_30
REMARK                            x       y       z     vdW  Elec       q    Type
REMARK                         _______ _______ _______ _____ _____    ______ ____
ROOT
ATOM      1  C   UNL     1       1.227  -2.064  -0.021  0.00  0.00    -0.061 A 
ATOM      2  C   UNL     1       0.041  -2.773  -0.013  0.00  0.00    +0.005 A 
ATOM      3  C   UNL     1      -1.168  -2.103   0.002  0.00  0.00    +0.049 A 
ATOM      4  C   UNL     1      -1.192  -0.718   0.010  0.00  0.00    +0.162 A 
ATOM      5  C   UNL     1       0.002  -0.004   0.002  0.00  0.00    +0.162 A 
ATOM      6  C   UNL     1       1.210  -0.682  -0.019  0.00  0.00    +0.051 A 
ENDROOT
BRANCH   4   7
ATOM      7  O   UNL     1      -2.381  -0.057   0.024  0.00  0.00    -0.491 OA
ATOM      8  C   UNL     1      -3.567  -0.854   0.031  0.00  0.00    +0.277 C 
ENDBRANCH   4   7
BRANCH   1   9
ATOM      9  C   UNL     1       2.542  -2.800  -0.038  0.00  0.00    -0.046 C 
BRANCH   9  10
ATOM     10  N   UNL     1       2.950  -3.029  -1.437  0.00  0.00    +0.385 N 
ATOM     11  H   UNL     1       2.232  -3.587  -1.912  0.00  0.00    -0.085 HD
ATOM     12  H   UNL     1       3.051  -2.124  -1.913  0.00  0.00    -0.085 HD
BRANCH  10  13
ATOM     13  C   UNL     1       4.237  -3.748  -1.484  0.00  0.00    -0.039 C 
BRANCH  13  18
ATOM     14  C   UNL     1       5.205  -5.420  -6.809  0.00  0.00    +0.051 C 
ATOM     15  C   UNL     1       5.089  -4.763  -5.458  0.00  0.00    -0.013 A 
ATOM     16  C   UNL     1       5.600  -3.580  -5.038  0.00  0.00    +0.011 A 
ATOM     17  C   UNL     1       5.364  -3.172  -3.738  0.00  0.00    +0.009 A 
ATOM     18  C   UNL     1       4.628  -3.967  -2.923  0.00  0.00    -0.027 A 
ATOM     19  S   UNL     1       4.249  -5.345  -3.994  0.00  0.00    -0.100 S 
ENDBRANCH  13  18
ENDBRANCH  10  13
ENDBRANCH   9  10
ENDBRANCH   1   9
BRANCH   5  20
ATOM     20  O   UNL     1      -0.016   1.356   0.009  0.00  0.00    -0.486 OA
BRANCH  20  21
ATOM     21  C   UNL     1       1.248   2.022   0.001  0.00  0.00    +0.258 C 
BRANCH  21  22
ATOM     22  C   UNL     1       1.027   3.536   0.011  0.00  0.00    +0.135 C 
BRANCH  22  23
ATOM     23  O   UNL     1       0.406   3.918   1.240  0.00  0.00    -0.390 OA
ATOM     24  H   UNL     1       0.925   3.700   2.027  0.00  0.00    +0.210 HD
ENDBRANCH  22  23
BRANCH  22  25
ATOM     25  C   UNL     1       2.374   4.249  -0.123  0.00  0.00    -0.044 C 
BRANCH  25  27
ATOM     26  C   UNL     1       1.417   6.134  -1.304  0.00  0.00    -0.096 C 
ATOM     27  N   UNL     1       2.146   5.709  -0.091  0.00  0.00    +0.382 N 
ATOM     28  H   UNL     1       1.581   5.939   0.735  0.00  0.00    -0.082 HD
BRANCH  27  29
ATOM     29  C   UNL     1       3.439   6.420  -0.003  0.00  0.00    -0.043 C 
BRANCH  29  30
ATOM     30  C   UNL     1       3.173   7.881   0.251  0.00  0.00    -0.064 A 
ATOM     31  C   UNL     1       3.046   8.755  -0.813  0.00  0.00    +0.002 A 
ATOM     32  C   UNL     1       2.797  10.095  -0.580  0.00  0.00    +0.000 A 
ATOM     33  C   UNL     1       2.686  10.563   0.716  0.00  0.00    +0.000 A 
ATOM     34  C   UNL     1       2.819   9.690   1.779  0.00  0.00    +0.000 A 
ATOM     35  C   UNL     1       3.062   8.349   1.547  0.00  0.00    +0.002 A 
ENDBRANCH  29  30
ENDBRANCH  27  29
ENDBRANCH  25  27
ENDBRANCH  22  25
ENDBRANCH  21  22
ENDBRANCH  20  21
ENDBRANCH   5  20
TORSDOF 13
