REMARK  Name = ZINC61543538
REMARK  3 active torsions:
REMARK  status: ('A' for Active; 'I' for Inactive)
REMARK    1  A    between atoms: C_4  and  C_7
REMARK    2  A    between atoms: C_7  and  S_8
REMARK    3  A    between atoms: S_8  and  C_9
REMARK                            x       y       z     vdW  Elec       q    Type
REMARK                         _______ _______ _______ _____ _____    ______ ____
ROOT
ATOM      1  C   UNL     1       5.786  -1.866   1.477  0.00  0.00    +0.194 A 
ATOM      2  N   UNL     1       6.469  -2.254   2.551  0.00  0.00    -0.185 NA
ATOM      3  C   UNL     1       7.619  -2.898   2.405  0.00  0.00    +0.256 A 
ATOM      4  N   UNL     1       8.086  -3.155   1.188  0.00  0.00    -0.180 NA
ATOM      5  C   UNL     1       7.406  -2.768   0.120  0.00  0.00    +0.228 A 
ATOM      6  N   UNL     1       6.256  -2.131   0.261  0.00  0.00    -0.192 NA
ATOM      7 CL   UNL     1       8.021  -3.106  -1.468  0.00  0.00    -0.041 Cl
ATOM      8  N   UNL     1       8.337  -3.304   3.527  0.00  0.00    -0.205 N 
ATOM      9  C   UNL     1       9.525  -3.964   3.522  0.00  0.00    +0.118 A 
ATOM     10  C   UNL     1       9.883  -4.172   4.809  0.00  0.00    +0.041 A 
ATOM     11  C   UNL     1       8.887  -3.625   5.628  0.00  0.00    +0.135 A 
ATOM     12  N   UNL     1       7.966  -3.101   4.862  0.00  0.00    -0.172 NA
ENDROOT
BRANCH   1  13
ATOM     13  S   UNL     1       4.257  -1.011   1.666  0.00  0.00    -0.081 S 
BRANCH  13  14
ATOM     14  C   UNL     1       3.711  -0.707  -0.038  0.00  0.00    +0.112 C 
BRANCH  14  18
ATOM     15  C   UNL     1      -0.017   1.378   0.010  0.00  0.00    +0.000 A 
ATOM     16  C   UNL     1       1.171   2.086   0.002  0.00  0.00    +0.000 A 
ATOM     17  C   UNL     1       2.377   1.411  -0.013  0.00  0.00    +0.004 A 
ATOM     18  C   UNL     1       2.396   0.029  -0.020  0.00  0.00    -0.037 A 
ATOM     19  C   UNL     1       1.208  -0.679  -0.012  0.00  0.00    +0.004 A 
ATOM     20  C   UNL     1       0.002  -0.004   0.002  0.00  0.00    +0.000 A 
ENDBRANCH  14  18
ENDBRANCH  13  14
ENDBRANCH   1  13
TORSDOF 3
