REMARK  Name = ZINC09419237
REMARK  4 active torsions:
REMARK  status: ('A' for Active; 'I' for Inactive)
REMARK    1  A    between atoms: C_1  and  O_2
REMARK    2  A    between atoms: O_2  and  C_3
REMARK    3  A    between atoms: C_12  and  C_13
REMARK    4  A    between atoms: N_17  and  C_21
REMARK                            x       y       z     vdW  Elec       q    Type
REMARK                         _______ _______ _______ _____ _____    ______ ____
ROOT
ATOM      1  C   UNL     1      -6.072   1.347   0.224  0.00  0.00    +0.030 C 
ATOM      2  C   UNL     1      -4.778   0.925   0.187  0.00  0.00    +0.078 C 
ATOM      3  C   UNL     1      -3.573   1.680   0.307  0.00  0.00    +0.263 C 
ATOM      4  O   UNL     1      -3.602   2.887   0.468  0.00  0.00    -0.269 OA
ATOM      5  N   UNL     1      -2.424   1.031   0.233  0.00  0.00    -0.223 N 
ATOM      6  C   UNL     1      -2.392  -0.309   0.060  0.00  0.00    +0.125 C 
ATOM      7  S   UNL     1      -1.032  -1.344  -0.055  0.00  0.00    -0.027 S 
ATOM      8  S   UNL     1      -4.127  -0.727  -0.018  0.00  0.00    -0.061 S 
ENDROOT
BRANCH   1  18
ATOM      9  C   UNL     1      -9.214   5.242   2.142  0.00  0.00    +0.122 A 
ATOM     10  C   UNL     1      -9.312   3.885   2.433  0.00  0.00    +0.046 A 
ATOM     11  C   UNL     1      -8.440   2.993   1.871  0.00  0.00    +0.014 A 
ATOM     12  C   UNL     1      -7.453   3.444   0.999  0.00  0.00    +0.007 A 
ATOM     13  C   UNL     1      -7.342   4.812   0.705  0.00  0.00    +0.051 A 
ATOM     14  C   UNL     1      -8.236   5.708   1.284  0.00  0.00    +0.071 A 
ATOM     15  N   UNL     1      -6.286   4.966  -0.169  0.00  0.00    -0.360 N 
ATOM     16  H   UNL     1      -5.991   5.814  -0.538  0.00  0.00    +0.165 HD
ATOM     17  C   UNL     1      -5.716   3.763  -0.439  0.00  0.00    +0.091 A 
ATOM     18  C   UNL     1      -6.374   2.779   0.243  0.00  0.00    +0.001 A 
BRANCH   9  20
ATOM     19  C   UNL     1     -11.075   5.572   3.586  0.00  0.00    +0.277 C 
ATOM     20  O   UNL     1     -10.088   6.117   2.708  0.00  0.00    -0.495 OA
ENDBRANCH   9  20
ENDBRANCH   1  18
BRANCH   5  21
ATOM     21  C   UNL     1      -1.220   1.743   0.342  0.00  0.00    +0.046 A 
ATOM     22  C   UNL     1      -0.407   1.566   1.454  0.00  0.00    +0.028 A 
ATOM     23  C   UNL     1       0.776   2.271   1.566  0.00  0.00    +0.051 A 
ATOM     24  C   UNL     1       1.158   3.151   0.566  0.00  0.00    +0.166 A 
ATOM     25  C   UNL     1       0.348   3.325  -0.554  0.00  0.00    +0.168 A 
ATOM     26  C   UNL     1      -0.838   2.619  -0.664  0.00  0.00    +0.073 A 
ATOM     27  O   UNL     1       0.939   4.235  -1.383  0.00  0.00    -0.453 OA
ATOM     28  C   UNL     1       1.912   4.919  -0.571  0.00  0.00    +0.466 C 
ATOM     29  O   UNL     1       2.257   3.952   0.438  0.00  0.00    -0.453 OA
ENDBRANCH   5  21
TORSDOF 3
