REMARK  Name = ZINC39666646
REMARK  9 active torsions:
REMARK  status: ('A' for Active; 'I' for Inactive)
REMARK    1  A    between atoms: C_1  and  C_2
REMARK    2  A    between atoms: C_7  and  C_8
REMARK    3  A    between atoms: C_8  and  C_9
REMARK    4  A    between atoms: C_13  and  C_22
REMARK    5  A    between atoms: N_24  and  C_25
REMARK    6  A    between atoms: C_25  and  C_26
REMARK    7  A    between atoms: C_26  and  C_28
REMARK    8  A    between atoms: C_26  and  O_29
REMARK    9  A    between atoms: O_29  and  C_30
REMARK                            x       y       z     vdW  Elec       q    Type
REMARK                         _______ _______ _______ _____ _____    ______ ____
ROOT
ATOM      1  C   UNL     1      -1.417   0.384   2.878  0.00  0.00    +0.220 C 
ATOM      2  O   UNL     1      -2.333   0.055   2.154  0.00  0.00    -0.275 OA
ATOM      3  N   UNL     1      -1.668   1.056   4.019  0.00  0.00    -0.300 N 
ATOM      4  C   UNL     1      -0.690   1.544   5.019  0.00  0.00    +0.121 C 
ATOM      5  C   UNL     1      -1.227   2.928   5.448  0.00  0.00    +0.100 C 
ATOM      6  C   UNL     1      -2.733   2.876   5.143  0.00  0.00    -0.004 C 
ATOM      7  C   UNL     1      -2.984   1.480   4.553  0.00  0.00    +0.115 C 
ATOM      8  C   UNL     1      -3.103   3.948   4.123  0.00  0.00    -0.010 C 
ATOM      9  C   UNL     1      -4.615   3.913   3.879  0.00  0.00    -0.082 C 
ATOM     10  N   UNL     1      -5.322   4.148   5.144  0.00  0.00    +0.379 N 
ATOM     11  C   UNL     1      -5.033   3.062   6.088  0.00  0.00    -0.082 C 
ATOM     12  C   UNL     1      -3.539   3.060   6.425  0.00  0.00    -0.010 C 
ATOM     13  H   UNL     1      -5.019   5.026   5.539  0.00  0.00    -0.086 HD
ATOM     14  H   UNL     1      -6.315   4.186   4.970  0.00  0.00    -0.086 HD
ENDROOT
BRANCH   5  15
ATOM     15  C   UNL     1      -0.564   4.019   4.647  0.00  0.00    +0.218 C 
ATOM     16  O   UNL     1      -0.115   3.776   3.547  0.00  0.00    -0.275 OA
ATOM     17  N   UNL     1      -0.472   5.265   5.152  0.00  0.00    -0.312 N 
ATOM     18  H   UNL     1      -0.832   5.459   6.032  0.00  0.00    +0.149 HD
BRANCH  17  19
ATOM     19  C   UNL     1       0.172   6.326   4.374  0.00  0.00    +0.148 C 
BRANCH  19  20
ATOM     20  C   UNL     1       0.144   7.631   5.170  0.00  0.00    +0.187 C 
ATOM     21  C   UNL     1       0.817   8.739   4.357  0.00  0.00    +0.053 C 
BRANCH  20  22
ATOM     22  O   UNL     1      -1.210   7.995   5.442  0.00  0.00    -0.486 OA
BRANCH  22  23
ATOM     23  C   UNL     1      -1.433   8.782   6.527  0.00  0.00    +0.139 A 
ATOM     24  C   UNL     1      -0.361   9.290   7.248  0.00  0.00    +0.047 A 
ATOM     25  C   UNL     1      -0.590  10.090   8.351  0.00  0.00    +0.004 A 
ATOM     26  C   UNL     1      -1.884  10.385   8.738  0.00  0.00    +0.002 A 
ATOM     27  C   UNL     1      -2.954   9.881   8.022  0.00  0.00    +0.023 A 
ATOM     28  C   UNL     1      -2.731   9.085   6.913  0.00  0.00    +0.083 A 
ATOM     29 CL   UNL     1      -4.074   8.457   6.010  0.00  0.00    -0.080 Cl
ENDBRANCH  22  23
ENDBRANCH  20  22
ENDBRANCH  19  20
ENDBRANCH  17  19
ENDBRANCH   5  15
BRANCH   1  30
ATOM     30  C   UNL     1       0.002   0.040   2.502  0.00  0.00    +0.131 C 
BRANCH  30  37
ATOM     31  C   UNL     1      -0.013   1.499   0.008  0.00  0.00    +0.044 C 
ATOM     32  C   UNL     1       0.001  -0.008  -0.000  0.00  0.00    -0.047 A 
ATOM     33  C   UNL     1       0.012  -0.693  -1.202  0.00  0.00    +0.003 A 
ATOM     34  C   UNL     1       0.025  -2.075  -1.209  0.00  0.00    +0.000 A 
ATOM     35  C   UNL     1       0.026  -2.773  -0.016  0.00  0.00    +0.000 A 
ATOM     36  C   UNL     1       0.016  -2.089   1.185  0.00  0.00    +0.004 A 
ATOM     37  C   UNL     1       0.008  -0.706   1.193  0.00  0.00    -0.036 A 
ENDBRANCH  30  37
ENDBRANCH   1  30
TORSDOF 7
