REMARK  Name = ZINC39696195
REMARK  9 active torsions:
REMARK  status: ('A' for Active; 'I' for Inactive)
REMARK    1  A    between atoms: C_1  and  C_2
REMARK    2  A    between atoms: C_2  and  C_3
REMARK    3  A    between atoms: C_6  and  C_9
REMARK    4  A    between atoms: C_9  and  C_11
REMARK    5  A    between atoms: C_9  and  N_12
REMARK    6  A    between atoms: C_13  and  C_15
REMARK    7  A    between atoms: C_26  and  C_28
REMARK    8  A    between atoms: C_32  and  O_33
REMARK    9  A    between atoms: O_33  and  C_34
REMARK                            x       y       z     vdW  Elec       q    Type
REMARK                         _______ _______ _______ _____ _____    ______ ____
ROOT
ATOM      1  C   UNL     1       5.870  -0.329  -6.233  0.00  0.00    +0.100 C 
ATOM      2  C   UNL     1       5.717   1.176  -5.921  0.00  0.00    +0.121 C 
ATOM      3  N   UNL     1       6.626   1.851  -6.878  0.00  0.00    -0.296 N 
ATOM      4  C   UNL     1       6.467   1.088  -8.139  0.00  0.00    +0.115 C 
ATOM      5  C   UNL     1       6.361  -0.383  -7.690  0.00  0.00    -0.004 C 
ATOM      6  C   UNL     1       5.354  -1.129  -8.560  0.00  0.00    -0.010 C 
ATOM      7  C   UNL     1       5.892  -1.220  -9.991  0.00  0.00    -0.082 C 
ATOM      8  N   UNL     1       7.181  -1.923  -9.987  0.00  0.00    +0.379 N 
ATOM      9  C   UNL     1       8.169  -1.151  -9.225  0.00  0.00    -0.082 C 
ATOM     10  C   UNL     1       7.728  -1.057  -7.761  0.00  0.00    -0.010 C 
ATOM     11  C   UNL     1       7.419   2.917  -6.652  0.00  0.00    +0.251 C 
ATOM     12  O   UNL     1       7.515   3.376  -5.529  0.00  0.00    -0.270 OA
ATOM     13  H   UNL     1       7.066  -2.831  -9.564  0.00  0.00    -0.086 HD
ATOM     14  H   UNL     1       7.504  -2.035 -10.937  0.00  0.00    -0.086 HD
ENDROOT
BRANCH  11  15
ATOM     15  C   UNL     1       8.168   3.525  -7.762  0.00  0.00    +0.087 A 
ATOM     16  C   UNL     1       7.649   3.581  -9.037  0.00  0.00    +0.063 A 
ATOM     17  S   UNL     1       8.841   4.346  -9.936  0.00  0.00    -0.081 S 
ATOM     18  C   UNL     1      10.061   4.619  -8.669  0.00  0.00    +0.120 A 
ATOM     19  C   UNL     1       9.480   4.097  -7.565  0.00  0.00    +0.158 A 
ATOM     20 CL   UNL     1      11.617   5.376  -8.815  0.00  0.00    -0.072 Cl
BRANCH  19  21
ATOM     21  O   UNL     1      10.093   4.106  -6.349  0.00  0.00    -0.492 OA
ATOM     22  C   UNL     1      10.916   2.983  -6.029  0.00  0.00    +0.277 C 
ENDBRANCH  19  21
ENDBRANCH  11  15
BRANCH   1  24
ATOM     23  N   UNL     1       4.499  -2.364  -5.915  0.00  0.00    -0.308 N 
ATOM     24  C   UNL     1       4.542  -1.030  -6.101  0.00  0.00    +0.219 C 
ATOM     25  O   UNL     1       3.511  -0.393  -6.163  0.00  0.00    -0.275 OA
ATOM     26  H   UNL     1       5.324  -2.873  -5.866  0.00  0.00    +0.149 HD
BRANCH  23  27
ATOM     27  C   UNL     1       3.209  -3.045  -5.787  0.00  0.00    +0.100 C 
ATOM     28  C   UNL     1       2.663  -3.370  -7.179  0.00  0.00    +0.033 C 
BRANCH  27  32
ATOM     29  C   UNL     1       3.721  -6.667  -3.580  0.00  0.00    -0.048 A 
ATOM     30  C   UNL     1       2.607  -5.877  -3.364  0.00  0.00    +0.004 A 
ATOM     31  C   UNL     1       2.441  -4.705  -4.078  0.00  0.00    +0.006 A 
ATOM     32  C   UNL     1       3.390  -4.322  -5.008  0.00  0.00    -0.027 A 
ATOM     33  C   UNL     1       4.504  -5.111  -5.223  0.00  0.00    +0.006 A 
ATOM     34  C   UNL     1       4.672  -6.281  -4.506  0.00  0.00    +0.004 A 
BRANCH  29  36
ATOM     35  C   UNL     1       4.669  -7.651  -1.511  0.00  0.00    +0.009 C 
ATOM     36  C   UNL     1       3.902  -7.944  -2.802  0.00  0.00    +0.032 C 
ENDBRANCH  29  36
ENDBRANCH  27  32
ENDBRANCH  23  27
ENDBRANCH   1  24
TORSDOF 6
