REMARK  Name = ZINC61976211
REMARK  10 active torsions:
REMARK  status: ('A' for Active; 'I' for Inactive)
REMARK    1  A    between atoms: C_1  and  C_2
REMARK    2  A    between atoms: C_2  and  C_3
REMARK    3  A    between atoms: C_2  and  C_11
REMARK    4  A    between atoms: C_2  and  O_29
REMARK    5  A    between atoms: C_3  and  C_4
REMARK    6  A    between atoms: C_4  and  C_5
REMARK    7  A    between atoms: C_11  and  N_12
REMARK    8  A    between atoms: N_15  and  C_16
REMARK    9  A    between atoms: C_16  and  C_17
REMARK   10  A    between atoms: C_16  and  C_23
REMARK                            x       y       z     vdW  Elec       q    Type
REMARK                         _______ _______ _______ _____ _____    ______ ____
ROOT
ATOM      1  N   UNL     1      -2.142  -0.048  -1.174  0.00  0.00    -0.297 N 
ATOM      2  C   UNL     1      -3.430  -0.390  -1.377  0.00  0.00    +0.300 C 
ATOM      3  O   UNL     1      -4.003  -1.102  -0.575  0.00  0.00    -0.253 OA
ATOM      4  N   UNL     1      -4.082   0.056  -2.469  0.00  0.00    -0.289 N 
ATOM      5  H   UNL     1      -1.684   0.519  -1.814  0.00  0.00    +0.150 HD
ATOM      6  H   UNL     1      -3.624   0.624  -3.109  0.00  0.00    +0.151 HD
ENDROOT
BRANCH   1   7
ATOM      7  C   UNL     1      -1.433  -0.534   0.013  0.00  0.00    +0.140 C 
BRANCH   7   9
ATOM      8  C   UNL     1      -0.019   1.526   0.010  0.00  0.00    +0.043 C 
ATOM      9  C   UNL     1       0.002  -0.004   0.002  0.00  0.00    +0.079 C 
BRANCH   9  10
ATOM     10  O   UNL     1       0.671  -0.465  -1.174  0.00  0.00    -0.387 OA
ATOM     11  H   UNL     1       0.722  -1.428  -1.246  0.00  0.00    +0.210 HD
ENDBRANCH   9  10
BRANCH   9  12
ATOM     12  C   UNL     1       0.742  -0.511   1.242  0.00  0.00    +0.040 C 
BRANCH  12  13
ATOM     13  C   UNL     1       2.136   0.118   1.296  0.00  0.00    +0.038 C 
BRANCH  13  14
ATOM     14  C   UNL     1       2.865  -0.381   2.517  0.00  0.00    -0.047 A 
ATOM     15  C   UNL     1       2.757   0.302   3.714  0.00  0.00    +0.003 A 
ATOM     16  C   UNL     1       3.425  -0.156   4.834  0.00  0.00    +0.000 A 
ATOM     17  C   UNL     1       4.202  -1.298   4.757  0.00  0.00    +0.000 A 
ATOM     18  C   UNL     1       4.309  -1.981   3.560  0.00  0.00    +0.000 A 
ATOM     19  C   UNL     1       3.637  -1.526   2.441  0.00  0.00    +0.003 A 
ENDBRANCH  13  14
ENDBRANCH  12  13
ENDBRANCH   9  12
ENDBRANCH   7   9
ENDBRANCH   1   7
BRANCH   4  20
ATOM     20  C   UNL     1      -5.481  -0.316  -2.689  0.00  0.00    +0.135 C 
BRANCH  20  21
ATOM     21  C   UNL     1      -6.147   0.724  -3.553  0.00  0.00    -0.023 A 
ATOM     22  C   UNL     1      -5.465   1.275  -4.622  0.00  0.00    +0.006 A 
ATOM     23  C   UNL     1      -6.076   2.229  -5.414  0.00  0.00    +0.000 A 
ATOM     24  C   UNL     1      -7.369   2.632  -5.138  0.00  0.00    +0.000 A 
ATOM     25  C   UNL     1      -8.051   2.081  -4.070  0.00  0.00    +0.000 A 
ATOM     26  C   UNL     1      -7.442   1.123  -3.280  0.00  0.00    +0.006 A 
ENDBRANCH  20  21
BRANCH  20  27
ATOM     27  C   UNL     1      -5.543  -1.655  -3.378  0.00  0.00    -0.023 A 
ATOM     28  C   UNL     1      -4.637  -1.961  -4.376  0.00  0.00    +0.006 A 
ATOM     29  C   UNL     1      -4.694  -3.190  -5.007  0.00  0.00    +0.000 A 
ATOM     30  C   UNL     1      -5.656  -4.112  -4.640  0.00  0.00    +0.000 A 
ATOM     31  C   UNL     1      -6.561  -3.806  -3.642  0.00  0.00    +0.000 A 
ATOM     32  C   UNL     1      -6.502  -2.579  -3.007  0.00  0.00    +0.006 A 
ENDBRANCH  20  27
ENDBRANCH   4  20
TORSDOF 9
