REMARK  Name = ZINC09056658
REMARK  6 active torsions:
REMARK  status: ('A' for Active; 'I' for Inactive)
REMARK    1  A    between atoms: C_1  and  C_2
REMARK    2  A    between atoms: C_2  and  C_25
REMARK    3  A    between atoms: N_5  and  C_9
REMARK    4  A    between atoms: C_9  and  C_10
REMARK    5  A    between atoms: N_12  and  C_13
REMARK    6  A    between atoms: C_13  and  C_14
REMARK                            x       y       z     vdW  Elec       q    Type
REMARK                         _______ _______ _______ _____ _____    ______ ____
ROOT
ATOM      1  C   UNL     1       0.996   4.176  -1.240  0.00  0.00    +0.047 C 
ATOM      2  C   UNL     1       0.640   3.376   0.014  0.00  0.00    +0.136 C 
ATOM      3  C   UNL     1      -0.784   2.864  -0.066  0.00  0.00    +0.251 C 
ATOM      4  O   UNL     1      -1.797   3.526  -0.143  0.00  0.00    -0.272 OA
ATOM      5  N   UNL     1      -0.691   1.520  -0.039  0.00  0.00    -0.215 N 
ATOM      6  C   UNL     1       0.581   1.115   0.055  0.00  0.00    +0.310 C 
ATOM      7  O   UNL     1       0.917  -0.051   0.100  0.00  0.00    -0.252 OA
ATOM      8  N   UNL     1       1.446   2.145   0.089  0.00  0.00    -0.281 N 
ATOM      9  H   UNL     1       2.413   2.088   0.151  0.00  0.00    +0.152 HD
ENDROOT
BRANCH   2  10
ATOM     10  C   UNL     1       0.837   4.215   1.250  0.00  0.00    -0.008 A 
ATOM     11  C   UNL     1       1.708   3.815   2.217  0.00  0.00    +0.007 A 
ATOM     12  C   UNL     1       1.909   4.582   3.363  0.00  0.00    +0.001 A 
ATOM     13  C   UNL     1       1.229   5.746   3.556  0.00  0.00    +0.008 A 
ATOM     14  C   UNL     1       0.317   6.187   2.583  0.00  0.00    -0.018 A 
ATOM     15  C   UNL     1       0.118   5.411   1.413  0.00  0.00    -0.012 A 
ATOM     16  C   UNL     1      -0.795   5.853   0.441  0.00  0.00    +0.009 A 
ATOM     17  C   UNL     1      -1.474   7.016   0.633  0.00  0.00    +0.001 A 
ATOM     18  C   UNL     1      -1.278   7.779   1.783  0.00  0.00    +0.001 A 
ATOM     19  C   UNL     1      -0.403   7.383   2.747  0.00  0.00    +0.008 A 
ENDBRANCH   2  10
BRANCH   5  20
ATOM     20  C   UNL     1      -1.840   0.614  -0.101  0.00  0.00    +0.213 C 
BRANCH  20  21
ATOM     21  C   UNL     1      -2.332   0.329   1.294  0.00  0.00    +0.231 C 
ATOM     22  O   UNL     1      -1.776   0.833   2.248  0.00  0.00    -0.274 OA
ATOM     23  N   UNL     1      -3.388  -0.487   1.484  0.00  0.00    -0.310 N 
ATOM     24  H   UNL     1      -3.832  -0.890   0.721  0.00  0.00    +0.149 HD
BRANCH  23  25
ATOM     25  C   UNL     1      -3.866  -0.764   2.841  0.00  0.00    +0.152 C 
BRANCH  25  26
ATOM     26  C   UNL     1      -5.066  -1.710   2.776  0.00  0.00    +0.228 C 
ATOM     27  C   UNL     1      -5.630  -1.929   4.186  0.00  0.00    +0.275 C 
ATOM     28  O   UNL     1      -6.740  -2.828   4.090  0.00  0.00    -0.485 OA
ATOM     29  C   UNL     1      -6.562  -3.942   3.328  0.00  0.00    +0.162 A 
ATOM     30  C   UNL     1      -7.433  -5.011   3.471  0.00  0.00    +0.049 A 
ATOM     31  C   UNL     1      -7.268  -6.146   2.700  0.00  0.00    +0.004 A 
ATOM     32  C   UNL     1      -6.235  -6.219   1.784  0.00  0.00    +0.004 A 
ATOM     33  C   UNL     1      -5.363  -5.157   1.637  0.00  0.00    +0.049 A 
ATOM     34  C   UNL     1      -5.522  -4.016   2.409  0.00  0.00    +0.163 A 
ATOM     35  O   UNL     1      -4.653  -2.979   2.256  0.00  0.00    -0.480 OA
ENDBRANCH  25  26
ENDBRANCH  23  25
ENDBRANCH  20  21
ENDBRANCH   5  20
TORSDOF 5
