REMARK  Name = ZINC13688358
REMARK  8 active torsions:
REMARK  status: ('A' for Active; 'I' for Inactive)
REMARK    1  A    between atoms: C_1  and  O_2
REMARK    2  A    between atoms: O_2  and  C_3
REMARK    3  A    between atoms: C_3  and  C_5
REMARK    4  A    between atoms: C_5  and  C_6
REMARK    5  A    between atoms: N_9  and  N_10
REMARK    6  A    between atoms: C_15  and  C_18
REMARK    7  A    between atoms: C_18  and  C_19
REMARK    8  A    between atoms: N_21  and  C_22
REMARK                            x       y       z     vdW  Elec       q    Type
REMARK                         _______ _______ _______ _____ _____    ______ ____
ROOT
ATOM      1  N   UNL     1      -0.882  -4.192  -2.615  0.00  0.00    -0.125 NA
ATOM      2  C   UNL     1      -1.962  -4.929  -2.723  0.00  0.00    +0.183 C 
ATOM      3  N   UNL     1      -2.050  -6.302  -2.850  0.00  0.00    -0.263 N 
ATOM      4  C   UNL     1      -3.208  -6.931  -2.952  0.00  0.00    +0.233 C 
ATOM      5  O   UNL     1      -3.279  -8.137  -3.063  0.00  0.00    -0.274 OA
ATOM      6  C   UNL     1      -4.446  -6.050  -2.920  0.00  0.00    +0.149 C 
ATOM      7  S   UNL     1      -3.666  -4.393  -2.733  0.00  0.00    -0.075 S 
ATOM      8  H   UNL     1      -1.232  -6.823  -2.866  0.00  0.00    +0.157 HD
ENDROOT
BRANCH   1  11
ATOM      9  C   UNL     1       1.400  -2.553  -2.379  0.00  0.00    +0.132 C 
ATOM     10  C   UNL     1       1.452  -4.067  -2.521  0.00  0.00    +0.139 C 
ATOM     11  N   UNL     1       0.382  -4.796  -2.628  0.00  0.00    -0.135 NA
ATOM     12  N   UNL     1       2.705  -4.599  -2.527  0.00  0.00    -0.262 N 
ATOM     13  C   UNL     1       3.812  -3.845  -2.417  0.00  0.00    +0.278 C 
ATOM     14  O   UNL     1       4.971  -4.216  -2.413  0.00  0.00    -0.263 OA
ATOM     15  S   UNL     1       3.198  -2.173  -2.281  0.00  0.00    -0.056 S 
ATOM     16  H   UNL     1       2.802  -5.560  -2.615  0.00  0.00    +0.157 HD
BRANCH   9  17
ATOM     17  C   UNL     1       0.674  -2.140  -1.097  0.00  0.00    +0.142 C 
BRANCH  17  18
ATOM     18  C   UNL     1       0.622  -0.636  -1.011  0.00  0.00    +0.308 C 
ATOM     19  O   UNL     1       1.115   0.036  -1.886  0.00  0.00    -0.251 OA
BRANCH  18  21
ATOM     20  C   UNL     1       0.016   1.385   0.053  0.00  0.00    +0.280 C 
ATOM     21  O   UNL     1       0.028  -0.044   0.037  0.00  0.00    -0.468 OA
ENDBRANCH  18  21
ENDBRANCH  17  18
ENDBRANCH   9  17
ENDBRANCH   1  11
BRANCH   6  22
ATOM     22  C   UNL     1      -5.331  -6.380  -1.716  0.00  0.00    +0.120 C 
BRANCH  22  23
ATOM     23  C   UNL     1      -6.601  -5.573  -1.790  0.00  0.00    +0.219 C 
ATOM     24  O   UNL     1      -6.781  -4.808  -2.714  0.00  0.00    -0.275 OA
ATOM     25  N   UNL     1      -7.537  -5.701  -0.829  0.00  0.00    -0.285 N 
ATOM     26  H   UNL     1      -7.425  -6.360  -0.126  0.00  0.00    +0.155 HD
BRANCH  25  27
ATOM     27  C   UNL     1      -8.672  -4.882  -0.844  0.00  0.00    +0.033 A 
ATOM     28  C   UNL     1      -9.229  -4.442   0.350  0.00  0.00    +0.024 A 
ATOM     29  C   UNL     1     -10.349  -3.634   0.332  0.00  0.00    +0.017 A 
ATOM     30  C   UNL     1     -10.916  -3.262  -0.875  0.00  0.00    +0.018 A 
ATOM     31  C   UNL     1     -10.363  -3.698  -2.065  0.00  0.00    +0.017 A 
ATOM     32  C   UNL     1      -9.240  -4.502  -2.053  0.00  0.00    +0.024 A 
ATOM     33 BR   UNL     1     -12.449  -2.155  -0.895  0.00  0.00    -0.050 Br
ENDBRANCH  25  27
ENDBRANCH  22  23
ENDBRANCH   6  22
TORSDOF 7
