REMARK  Name = ZINC39663844
REMARK  13 active torsions:
REMARK  status: ('A' for Active; 'I' for Inactive)
REMARK    1  A    between atoms: C_1  and  N_2
REMARK    2  A    between atoms: N_2  and  C_3
REMARK    3  A    between atoms: N_2  and  C_4
REMARK    4  A    between atoms: C_4  and  C_6
REMARK    5  A    between atoms: C_4  and  C_27
REMARK    6  A    between atoms: C_6  and  N_7
REMARK    7  A    between atoms: C_8  and  C_10
REMARK    8  A    between atoms: C_21  and  C_23
REMARK    9  A    between atoms: C_23  and  C_24
REMARK   10  A    between atoms: C_24  and  S_25
REMARK   11  A    between atoms: S_25  and  C_26
REMARK   12  A    between atoms: C_30  and  O_33
REMARK   13  A    between atoms: O_33  and  C_34
REMARK                            x       y       z     vdW  Elec       q    Type
REMARK                         _______ _______ _______ _____ _____    ______ ____
ROOT
ATOM      1  N   UNL     1      -0.734  -2.734  -2.551  0.00  0.00    -0.316 N 
ATOM      2  C   UNL     1      -1.420  -2.630  -1.396  0.00  0.00    +0.218 C 
ATOM      3  O   UNL     1      -0.850  -2.284  -0.382  0.00  0.00    -0.275 OA
ATOM      4  H   UNL     1      -1.190  -3.010  -3.362  0.00  0.00    +0.149 HD
ENDROOT
BRANCH   2   5
ATOM      5  C   UNL     1      -2.893  -2.942  -1.363  0.00  0.00    +0.100 C 
ATOM      6  C   UNL     1      -3.592  -2.126  -0.252  0.00  0.00    +0.121 C 
ATOM      7  N   UNL     1      -4.609  -3.047   0.306  0.00  0.00    -0.300 N 
ATOM      8  C   UNL     1      -3.935  -4.367   0.334  0.00  0.00    +0.115 C 
ATOM      9  C   UNL     1      -3.120  -4.413  -0.974  0.00  0.00    -0.004 C 
ATOM     10  C   UNL     1      -1.784  -5.109  -0.738  0.00  0.00    -0.010 C 
ATOM     11  C   UNL     1      -2.032  -6.584  -0.410  0.00  0.00    -0.082 C 
ATOM     12  N   UNL     1      -2.749  -7.221  -1.521  0.00  0.00    +0.379 N 
ATOM     13  C   UNL     1      -4.072  -6.606  -1.681  0.00  0.00    -0.082 C 
ATOM     14  C   UNL     1      -3.910  -5.132  -2.063  0.00  0.00    -0.010 C 
ATOM     15  C   UNL     1      -5.864  -2.752   0.700  0.00  0.00    +0.216 C 
ATOM     16  O   UNL     1      -6.582  -3.624   1.140  0.00  0.00    -0.276 OA
ATOM     17  H   UNL     1      -2.220  -7.103  -2.372  0.00  0.00    -0.086 HD
ATOM     18  H   UNL     1      -2.858  -8.205  -1.330  0.00  0.00    -0.086 HD
BRANCH  15  19
ATOM     19  C   UNL     1      -6.374  -1.338   0.592  0.00  0.00    +0.106 C 
BRANCH  19  20
ATOM     20  C   UNL     1      -7.816  -1.276   1.101  0.00  0.00    +0.078 C 
BRANCH  20  21
ATOM     21  S   UNL     1      -8.430   0.426   0.971  0.00  0.00    -0.164 S 
ATOM     22  C   UNL     1     -10.127   0.330   1.606  0.00  0.00    +0.084 C 
ENDBRANCH  20  21
ENDBRANCH  19  20
ENDBRANCH  15  19
ENDBRANCH   2   5
BRANCH   1  23
ATOM     23  C   UNL     1       0.699  -2.430  -2.584  0.00  0.00    +0.093 C 
BRANCH  23  24
ATOM     24  C   UNL     1       1.256  -2.748  -3.972  0.00  0.00    -0.021 C 
BRANCH  24  25
ATOM     25  C   UNL     1       1.161  -4.231  -4.225  0.00  0.00    -0.059 A 
ATOM     26  C   UNL     1       2.102  -5.085  -3.682  0.00  0.00    +0.005 A 
ATOM     27  C   UNL     1       2.017  -6.445  -3.912  0.00  0.00    +0.046 A 
ATOM     28  C   UNL     1       0.985  -6.952  -4.688  0.00  0.00    +0.120 A 
ATOM     29  C   UNL     1       0.041  -6.093  -5.231  0.00  0.00    +0.046 A 
ATOM     30  C   UNL     1       0.128  -4.735  -4.994  0.00  0.00    +0.005 A 
BRANCH  28  31
ATOM     31  O   UNL     1       0.899  -8.289  -4.916  0.00  0.00    -0.495 OA
ATOM     32  C   UNL     1      -0.189  -8.741  -5.724  0.00  0.00    +0.277 C 
ENDBRANCH  28  31
ENDBRANCH  24  25
BRANCH  24  34
ATOM     33  C   UNL     1       3.212  -2.679  -5.359  0.00  0.00    -0.096 C 
ATOM     34  N   UNL     1       2.663  -2.329  -4.043  0.00  0.00    +0.382 N 
ATOM     35  C   UNL     1       2.751  -0.876  -3.846  0.00  0.00    -0.096 C 
ATOM     36  H   UNL     1       3.190  -2.799  -3.322  0.00  0.00    -0.082 HD
ENDBRANCH  24  34
ENDBRANCH  23  24
ENDBRANCH   1  23
TORSDOF 9
