REMARK  Name = ZINC02124555
REMARK  5 active torsions:
REMARK  status: ('A' for Active; 'I' for Inactive)
REMARK    1  A    between atoms: C_4  and  C_7
REMARK    2  A    between atoms: C_7  and  O_8
REMARK    3  A    between atoms: O_8  and  C_9
REMARK    4  A    between atoms: C_9  and  C_11
REMARK    5  A    between atoms: C_12  and  N_31
REMARK                            x       y       z     vdW  Elec       q    Type
REMARK                         _______ _______ _______ _____ _____    ______ ____
ROOT
ATOM      1  C   UNL     1       1.191   1.934   0.024  0.00  0.00    +0.117 C 
ATOM      2  C   UNL     1       2.376   1.270   0.089  0.00  0.00    +0.195 C 
ATOM      3  O   UNL     1       3.547   1.923   0.057  0.00  0.00    -0.445 OA
ATOM      4  C   UNL     1       3.595   3.231   0.366  0.00  0.00    +0.122 C 
ATOM      5  C   UNL     1       2.501   4.009   0.314  0.00  0.00    +0.099 C 
ATOM      6  C   UNL     1       1.170   3.431  -0.087  0.00  0.00    +0.145 C 
ATOM      7  C   UNL     1       0.790   3.861  -1.470  0.00  0.00    -0.002 A 
ATOM      8  C   UNL     1       1.395   3.649  -2.690  0.00  0.00    +0.007 A 
ATOM      9  C   UNL     1       0.771   4.194  -3.807  0.00  0.00    +0.000 A 
ATOM     10  C   UNL     1      -0.401   4.915  -3.694  0.00  0.00    +0.002 A 
ATOM     11  C   UNL     1      -1.015   5.133  -2.471  0.00  0.00    +0.023 A 
ATOM     12  C   UNL     1      -0.398   4.590  -1.342  0.00  0.00    +0.038 A 
ATOM     13  N   UNL     1      -0.784   4.653  -0.015  0.00  0.00    -0.284 N 
ATOM     14  C   UNL     1       0.077   4.001   0.794  0.00  0.00    +0.237 C 
ATOM     15  O   UNL     1      -0.008   3.892   1.999  0.00  0.00    -0.274 OA
ATOM     16  C   UNL     1       2.588   5.388   0.636  0.00  0.00    +0.340 C 
ATOM     17  O   UNL     1       1.587   6.079   0.611  0.00  0.00    -0.245 OA
ATOM     18  O   UNL     1       3.774   5.938   0.970  0.00  0.00    -0.461 OA
ATOM     19  C   UNL     1       4.938   5.315   0.413  0.00  0.00    +0.240 C 
ATOM     20  C   UNL     1       4.918   3.830   0.789  0.00  0.00    +0.116 C 
ATOM     21  H   UNL     1      -1.580   5.111   0.297  0.00  0.00    +0.155 HD
ENDROOT
BRANCH   2  22
ATOM     22  N   UNL     1       2.373  -0.096   0.190  0.00  0.00    -0.329 N 
ATOM     23  H   UNL     1       1.539  -0.586   0.126  0.00  0.00    +0.145 HD
ATOM     24  H   UNL     1       3.207  -0.573   0.326  0.00  0.00    +0.145 HD
ENDBRANCH   2  22
BRANCH   1  25
ATOM     25  C   UNL     1      -0.016   1.217   0.055  0.00  0.00    +0.342 C 
ATOM     26  O   UNL     1      -0.629   1.013  -0.977  0.00  0.00    -0.245 OA
BRANCH  25  27
ATOM     27  O   UNL     1      -0.499   0.760   1.230  0.00  0.00    -0.456 OA
BRANCH  27  28
ATOM     28  C   UNL     1      -1.735   0.043   1.188  0.00  0.00    +0.268 C 
BRANCH  28  32
ATOM     29  C   UNL     1      -2.811  -1.174   5.139  0.00  0.00    +0.000 A 
ATOM     30  C   UNL     1      -3.236   0.049   4.652  0.00  0.00    +0.000 A 
ATOM     31  C   UNL     1      -2.888   0.442   3.374  0.00  0.00    +0.007 A 
ATOM     32  C   UNL     1      -2.115  -0.386   2.582  0.00  0.00    -0.010 A 
ATOM     33  C   UNL     1      -1.694  -1.610   3.066  0.00  0.00    +0.007 A 
ATOM     34  C   UNL     1      -2.039  -2.002   4.346  0.00  0.00    +0.000 A 
ENDBRANCH  28  32
ENDBRANCH  27  28
ENDBRANCH  25  27
ENDBRANCH   1  25
TORSDOF 5
