REMARK  Name = ZINC24991228
REMARK  8 active torsions:
REMARK  status: ('A' for Active; 'I' for Inactive)
REMARK    1  A    between atoms: C_4  and  O_8
REMARK    2  A    between atoms: O_8  and  C_9
REMARK    3  A    between atoms: C_9  and  C_10
REMARK    4  A    between atoms: C_10  and  C_12
REMARK    5  A    between atoms: C_10  and  O_30
REMARK    6  A    between atoms: C_12  and  N_13
REMARK    7  A    between atoms: C_16  and  C_21
REMARK    8  A    between atoms: C_21  and  C_22
REMARK                            x       y       z     vdW  Elec       q    Type
REMARK                         _______ _______ _______ _____ _____    ______ ____
ROOT
ATOM      1  N   UNL     1      -0.016   1.334   0.009  0.00  0.00    -0.222 N 
ATOM      2  C   UNL     1       1.230   1.848   0.000  0.00  0.00    +0.244 C 
ATOM      3  O   UNL     1       1.538   3.020   0.003  0.00  0.00    -0.273 OA
ATOM      4  C   UNL     1       2.165   0.655  -0.015  0.00  0.00    +0.170 C 
ATOM      5  N   UNL     1       1.252  -0.501  -0.013  0.00  0.00    -0.287 N 
ATOM      6  C   UNL     1       0.002  -0.004   0.002  0.00  0.00    +0.309 C 
ATOM      7  O   UNL     1      -0.999  -0.693   0.008  0.00  0.00    -0.252 OA
ATOM      8  H   UNL     1       1.659  -1.523  -0.022  0.00  0.00    +0.151 HD
ENDROOT
BRANCH   1   9
ATOM      9  C   UNL     1      -1.239   2.140   0.020  0.00  0.00    +0.152 C 
BRANCH   9  10
ATOM     10  C   UNL     1      -1.657   2.413   1.466  0.00  0.00    +0.170 C 
BRANCH  10  11
ATOM     11  O   UNL     1      -0.666   3.222   2.104  0.00  0.00    -0.387 OA
ATOM     12  H   UNL     1       0.368   2.857   2.191  0.00  0.00    +0.210 HD
ENDBRANCH  10  11
BRANCH  10  13
ATOM     13  C   UNL     1      -3.000   3.148   1.478  0.00  0.00    +0.262 C 
BRANCH  13  14
ATOM     14  O   UNL     1      -3.447   3.300   2.827  0.00  0.00    -0.488 OA
BRANCH  14  18
ATOM     15  C   UNL     1      -7.048   5.233   3.401  0.00  0.00    +0.021 A 
ATOM     16  C   UNL     1      -6.334   4.767   4.489  0.00  0.00    +0.025 A 
ATOM     17  C   UNL     1      -5.130   4.114   4.300  0.00  0.00    +0.083 A 
ATOM     18  C   UNL     1      -4.633   3.937   3.015  0.00  0.00    +0.140 A 
ATOM     19  C   UNL     1      -5.351   4.405   1.926  0.00  0.00    +0.067 A 
ATOM     20  C   UNL     1      -6.557   5.053   2.120  0.00  0.00    +0.045 A 
ATOM     21 CL   UNL     1      -7.457   5.639   0.756  0.00  0.00    -0.083 Cl
ATOM     22 CL   UNL     1      -4.238   3.523   5.666  0.00  0.00    -0.080 Cl
ENDBRANCH  14  18
ENDBRANCH  13  14
ENDBRANCH  10  13
ENDBRANCH   9  10
ENDBRANCH   1   9
BRANCH   4  23
ATOM     23  C   UNL     1       3.050   0.645   1.233  0.00  0.00    +0.127 C 
BRANCH  23  24
ATOM     24  C   UNL     1       3.979  -0.541   1.180  0.00  0.00    +0.218 C 
ATOM     25  O   UNL     1       3.937  -1.302   0.237  0.00  0.00    -0.276 OA
ATOM     26  N   UNL     1       4.856  -0.754   2.181  0.00  0.00    -0.297 N 
ATOM     27  C   UNL     1       4.929   0.159   3.332  0.00  0.00    +0.136 C 
ATOM     28  C   UNL     1       4.860  -0.682   4.617  0.00  0.00    +0.179 C 
ATOM     29  O   UNL     1       5.852  -1.710   4.559  0.00  0.00    -0.377 OA
ATOM     30  C   UNL     1       5.666  -2.643   3.491  0.00  0.00    +0.179 C 
ATOM     31  C   UNL     1       5.773  -1.905   2.152  0.00  0.00    +0.136 C 
ENDBRANCH  23  24
ENDBRANCH   4  23
TORSDOF 8
