REMARK  Name = ZINC03292738
REMARK  4 active torsions:
REMARK  status: ('A' for Active; 'I' for Inactive)
REMARK    1  A    between atoms: C_6  and  S_11
REMARK    2  A    between atoms: S_11  and  N_14
REMARK    3  A    between atoms: C_19  and  C_20
REMARK    4  A    between atoms: C_19  and  N_50
REMARK                            x       y       z     vdW  Elec       q    Type
REMARK                         _______ _______ _______ _____ _____    ______ ____
ROOT
ATOM      1  N   UNL     1       0.888   8.126   1.610  0.00  0.00    -0.180 NA
ATOM      2  C   UNL     1      -0.247   8.586   2.426  0.00  0.00    +0.091 C 
ATOM      3  C   UNL     1      -0.228   7.815   3.755  0.00  0.00    -0.061 C 
ATOM      4  C   UNL     1       2.148   7.373   3.556  0.00  0.00    -0.061 C 
ATOM      5  C   UNL     1       2.226   8.120   2.220  0.00  0.00    +0.091 C 
ATOM      6  N   UNL     1       1.097   7.997   4.388  0.00  0.00    +0.386 N 
ATOM      7  H   UNL     1       1.291   9.001   4.472  0.00  0.00    -0.081 HD
ENDROOT
BRANCH   1   8
ATOM      8  S   UNL     1       0.665   7.636   0.044  0.00  0.00    +0.061 S 
ATOM      9  O   UNL     1       1.912   7.805  -0.616  0.00  0.00    -0.153 OA
ATOM     10  O   UNL     1      -0.528   8.259  -0.411  0.00  0.00    -0.153 OA
BRANCH   8  16
ATOM     11  C   UNL     1      -1.653   1.344   0.278  0.00  0.00    +0.001 A 
ATOM     12  C   UNL     1      -2.718   2.240   0.357  0.00  0.00    +0.001 A 
ATOM     13  C   UNL     1      -2.505   3.584   0.337  0.00  0.00    +0.008 A 
ATOM     14  C   UNL     1      -1.195   4.079   0.223  0.00  0.00    -0.016 A 
ATOM     15  C   UNL     1      -0.936   5.460   0.193  0.00  0.00    +0.037 A 
ATOM     16  C   UNL     1       0.346   5.903   0.081  0.00  0.00    +0.106 A 
ATOM     17  C   UNL     1       1.410   5.007  -0.003  0.00  0.00    +0.029 A 
ATOM     18  C   UNL     1       1.198   3.663   0.022  0.00  0.00    +0.010 A 
ATOM     19  C   UNL     1      -0.113   3.168   0.136  0.00  0.00    -0.018 A 
ATOM     20  C   UNL     1      -0.371   1.787   0.166  0.00  0.00    +0.008 A 
ENDBRANCH   8  16
ENDBRANCH   1   8
BRANCH   6  21
ATOM     21  C   UNL     1       1.098   7.394   5.737  0.00  0.00    -0.003 C 
BRANCH  21  22
ATOM     22  C   UNL     1       2.363   7.799   6.448  0.00  0.00    +0.094 A 
ATOM     23  N   UNL     1       2.618   7.262   7.670  0.00  0.00    -0.311 N 
ATOM     24  H   UNL     1       1.976   6.614   8.081  0.00  0.00    +0.170 HD
ATOM     25  C   UNL     1       3.751   7.612   8.326  0.00  0.00    +0.266 A 
ATOM     26  O   UNL     1       4.008   7.148   9.424  0.00  0.00    -0.267 OA
ATOM     27  C   UNL     1       4.613   8.520   7.711  0.00  0.00    +0.102 A 
ATOM     28  C   UNL     1       4.326   9.061   6.445  0.00  0.00    +0.085 A 
ATOM     29  N   UNL     1       3.156   8.638   5.862  0.00  0.00    -0.235 NA
ATOM     30  C   UNL     1       5.277   9.959   5.943  0.00  0.00    +0.036 A 
ATOM     31  C   UNL     1       6.380  10.254   6.664  0.00  0.00    +0.048 A 
ATOM     32  S   UNL     1       6.162   9.269   8.137  0.00  0.00    -0.090 S 
ENDBRANCH  21  22
ENDBRANCH   6  21
TORSDOF 4
