REMARK  Name = ZINC47313387
REMARK  8 active torsions:
REMARK  status: ('A' for Active; 'I' for Inactive)
REMARK    1  A    between atoms: C_1  and  C_2
REMARK    2  A    between atoms: C_2  and  C_21
REMARK    3  A    between atoms: N_5  and  C_9
REMARK    4  A    between atoms: C_9  and  C_10
REMARK    5  A    between atoms: C_13  and  S_15
REMARK    6  A    between atoms: S_15  and  N_18
REMARK    7  A    between atoms: N_18  and  C_19
REMARK    8  A    between atoms: N_18  and  C_20
REMARK                            x       y       z     vdW  Elec       q    Type
REMARK                         _______ _______ _______ _____ _____    ______ ____
ROOT
ATOM      1  C   UNL     1      -0.019   1.526   0.010  0.00  0.00    +0.047 C 
ATOM      2  C   UNL     1       0.002  -0.004   0.002  0.00  0.00    +0.135 C 
ATOM      3  C   UNL     1      -1.403  -0.557   0.139  0.00  0.00    +0.251 C 
ATOM      4  O   UNL     1      -2.332  -0.392  -0.621  0.00  0.00    -0.272 OA
ATOM      5  N   UNL     1      -1.403  -1.272   1.282  0.00  0.00    -0.217 N 
ATOM      6  C   UNL     1      -0.206  -1.247   1.879  0.00  0.00    +0.310 C 
ATOM      7  O   UNL     1       0.040  -1.819   2.924  0.00  0.00    -0.252 OA
ATOM      8  N   UNL     1       0.695  -0.520   1.195  0.00  0.00    -0.281 N 
ATOM      9  H   UNL     1       1.621  -0.365   1.440  0.00  0.00    +0.152 HD
ENDROOT
BRANCH   2  10
ATOM     10  C   UNL     1       0.657  -0.517  -1.255  0.00  0.00    -0.015 A 
ATOM     11  C   UNL     1      -0.108  -0.772  -2.378  0.00  0.00    +0.007 A 
ATOM     12  C   UNL     1       0.492  -1.242  -3.530  0.00  0.00    +0.020 A 
ATOM     13  C   UNL     1       1.859  -1.458  -3.560  0.00  0.00    +0.041 A 
ATOM     14  C   UNL     1       2.623  -1.203  -2.436  0.00  0.00    +0.020 A 
ATOM     15  C   UNL     1       2.023  -0.727  -1.286  0.00  0.00    +0.007 A 
ATOM     16 CL   UNL     1       2.613  -2.049  -5.008  0.00  0.00    -0.084 Cl
ENDBRANCH   2  10
BRANCH   5  17
ATOM     17  C   UNL     1      -2.569  -1.986   1.805  0.00  0.00    +0.192 C 
BRANCH  17  18
ATOM     18  C   UNL     1      -2.585  -3.391   1.260  0.00  0.00    +0.125 A 
ATOM     19  C   UNL     1      -2.007  -4.463   1.831  0.00  0.00    +0.048 A 
ATOM     20  C   UNL     1      -2.267  -5.567   0.987  0.00  0.00    +0.071 A 
ATOM     21  C   UNL     1      -2.987  -5.104  -0.050  0.00  0.00    +0.258 A 
ATOM     22  O   UNL     1      -3.182  -3.786   0.124  0.00  0.00    -0.440 OA
BRANCH  21  23
ATOM     23  S   UNL     1      -3.581  -6.063  -1.403  0.00  0.00    +0.093 S 
ATOM     24  O   UNL     1      -3.773  -5.163  -2.486  0.00  0.00    -0.150 OA
ATOM     25  O   UNL     1      -2.734  -7.200  -1.498  0.00  0.00    -0.150 OA
BRANCH  23  26
ATOM     26  N   UNL     1      -5.081  -6.626  -0.984  0.00  0.00    -0.180 NA
ATOM     27  C   UNL     1      -6.275  -5.837  -1.301  0.00  0.00    +0.131 C 
ATOM     28  C   UNL     1      -5.215  -7.912  -0.295  0.00  0.00    +0.131 C 
ENDBRANCH  23  26
ENDBRANCH  21  23
ENDBRANCH  17  18
ENDBRANCH   5  17
TORSDOF 5
