REMARK  Name = ZINC05743189
REMARK  7 active torsions:
REMARK  status: ('A' for Active; 'I' for Inactive)
REMARK    1  A    between atoms: C_1  and  O_2
REMARK    2  A    between atoms: O_2  and  C_3
REMARK    3  A    between atoms: C_7  and  C_14
REMARK    4  A    between atoms: C_14  and  O_15
REMARK    5  A    between atoms: O_15  and  C_16
REMARK    6  A    between atoms: C_16  and  C_18
REMARK    7  A    between atoms: C_23  and  O_24
REMARK                            x       y       z     vdW  Elec       q    Type
REMARK                         _______ _______ _______ _____ _____    ______ ____
ROOT
ATOM      1  C   UNL     1      -1.973   1.163   1.348  0.00  0.00    +0.124 A 
ATOM      2  C   UNL     1      -2.584   0.361   0.386  0.00  0.00    +0.046 A 
ATOM      3  C   UNL     1      -3.880  -0.037   0.539  0.00  0.00    +0.015 A 
ATOM      4  C   UNL     1      -4.605   0.373   1.664  0.00  0.00    +0.024 A 
ATOM      5  C   UNL     1      -5.999  -0.035   1.853  0.00  0.00    +0.007 A 
ATOM      6  C   UNL     1      -6.649   0.395   2.966  0.00  0.00    +0.099 A 
ATOM      7  C   UNL     1      -5.976   1.210   3.899  0.00  0.00    +0.338 A 
ATOM      8  O   UNL     1      -6.570   1.589   4.893  0.00  0.00    -0.245 OA
ATOM      9  O   UNL     1      -4.698   1.580   3.721  0.00  0.00    -0.422 OA
ATOM     10  C   UNL     1      -3.996   1.188   2.637  0.00  0.00    +0.143 A 
ATOM     11  C   UNL     1      -2.676   1.578   2.468  0.00  0.00    +0.092 A 
ENDROOT
BRANCH   1  13
ATOM     12  C   UNL     1      -0.013   1.086   0.008  0.00  0.00    +0.277 C 
ATOM     13  O   UNL     1      -0.682   1.547   1.184  0.00  0.00    -0.495 OA
ENDBRANCH   1  13
BRANCH   5  14
ATOM     14  C   UNL     1      -6.694  -0.907   0.839  0.00  0.00    +0.269 C 
BRANCH  14  15
ATOM     15  O   UNL     1      -8.058  -1.157   1.270  0.00  0.00    -0.456 OA
BRANCH  15  16
ATOM     16  C   UNL     1      -8.821  -1.927   0.469  0.00  0.00    +0.343 C 
ATOM     17  O   UNL     1      -8.359  -2.377  -0.561  0.00  0.00    -0.245 OA
BRANCH  16  18
ATOM     18  C   UNL     1     -10.215  -2.224   0.843  0.00  0.00    +0.101 A 
ATOM     19  C   UNL     1     -10.749  -1.713   2.030  0.00  0.00    +0.034 A 
ATOM     20  C   UNL     1     -12.056  -1.989   2.370  0.00  0.00    +0.019 A 
ATOM     21  C   UNL     1     -12.840  -2.781   1.546  0.00  0.00    +0.019 A 
ATOM     22  C   UNL     1     -12.324  -3.296   0.374  0.00  0.00    +0.047 A 
ATOM     23  C   UNL     1     -11.013  -3.024   0.013  0.00  0.00    +0.131 A 
ATOM     24 BR   UNL     1     -12.779  -1.291   3.972  0.00  0.00    -0.050 Br
BRANCH  23  25
ATOM     25  O   UNL     1     -10.505  -3.529  -1.139  0.00  0.00    -0.506 OA
ATOM     26  H   UNL     1     -10.087  -4.396  -1.038  0.00  0.00    +0.292 HD
ENDBRANCH  23  25
ENDBRANCH  16  18
ENDBRANCH  15  16
ENDBRANCH  14  15
ENDBRANCH   5  14
TORSDOF 6
