REMARK  Name = ZINC02662336
REMARK  11 active torsions:
REMARK  status: ('A' for Active; 'I' for Inactive)
REMARK    1  A    between atoms: C_1  and  C_2
REMARK    2  A    between atoms: C_3  and  N_15
REMARK    3  A    between atoms: N_6  and  C_9
REMARK    4  A    between atoms: N_7  and  C_8
REMARK    5  A    between atoms: C_16  and  C_34
REMARK    6  A    between atoms: C_19  and  S_20
REMARK    7  A    between atoms: S_20  and  C_21
REMARK    8  A    between atoms: C_21  and  C_22
REMARK    9  A    between atoms: N_24  and  C_25
REMARK   10  A    between atoms: C_25  and  C_26
REMARK   11  A    between atoms: C_26  and  C_27
REMARK                            x       y       z     vdW  Elec       q    Type
REMARK                         _______ _______ _______ _____ _____    ______ ____
ROOT
ATOM      1  N   UNL     1      -2.336  -0.322   0.569  0.00  0.00    -0.263 N 
ATOM      2  C   UNL     1      -2.756   0.208   1.767  0.00  0.00    +0.171 A 
ATOM      3  N   UNL     1      -4.029   0.503   1.634  0.00  0.00    -0.128 NA
ATOM      4  N   UNL     1      -4.428   0.197   0.451  0.00  0.00    -0.122 NA
ATOM      5  C   UNL     1      -3.433  -0.306  -0.246  0.00  0.00    +0.197 A 
ENDROOT
BRANCH   1   8
ATOM      6  C   UNL     1      -0.122   1.428  -0.623  0.00  0.00    +0.067 C 
ATOM      7  C   UNL     1      -0.044  -0.037  -0.279  0.00  0.00    +0.062 A 
ATOM      8  C   UNL     1      -1.043  -0.781   0.247  0.00  0.00    +0.137 A 
ATOM      9  C   UNL     1      -0.560  -2.104   0.418  0.00  0.00    +0.296 A 
ATOM     10  O   UNL     1      -1.188  -3.046   0.868  0.00  0.00    -0.264 OA
ATOM     11  N   UNL     1       0.719  -2.131  -0.007  0.00  0.00    -0.215 N 
ATOM     12  N   UNL     1       1.050  -0.844  -0.451  0.00  0.00    -0.282 N 
ATOM     13  C   UNL     1       2.343  -0.431  -1.001  0.00  0.00    +0.171 C 
BRANCH  11  14
ATOM     14  C   UNL     1       1.563  -3.246  -0.011  0.00  0.00    +0.067 A 
ATOM     15  C   UNL     1       2.851  -3.146   0.499  0.00  0.00    +0.028 A 
ATOM     16  C   UNL     1       3.682  -4.249   0.495  0.00  0.00    +0.002 A 
ATOM     17  C   UNL     1       3.232  -5.453  -0.016  0.00  0.00    +0.000 A 
ATOM     18  C   UNL     1       1.951  -5.556  -0.525  0.00  0.00    +0.002 A 
ATOM     19  C   UNL     1       1.113  -4.458  -0.518  0.00  0.00    +0.028 A 
ENDBRANCH  11  14
ENDBRANCH   1   8
BRANCH   2  20
ATOM     20  C   UNL     1      -1.930   0.409   2.977  0.00  0.00    +0.038 A 
ATOM     21  C   UNL     1      -0.580   0.052   2.971  0.00  0.00    +0.013 A 
ATOM     22  C   UNL     1       0.185   0.242   4.103  0.00  0.00    +0.001 A 
ATOM     23  C   UNL     1      -0.382   0.785   5.243  0.00  0.00    +0.001 A 
ATOM     24  C   UNL     1      -1.718   1.141   5.256  0.00  0.00    +0.021 A 
ATOM     25  C   UNL     1      -2.494   0.962   4.128  0.00  0.00    +0.052 A 
ATOM     26 CL   UNL     1      -4.170   1.417   4.144  0.00  0.00    -0.083 Cl
ENDBRANCH   2  20
BRANCH   5  27
ATOM     27  S   UNL     1      -3.502  -0.860  -1.917  0.00  0.00    -0.076 S 
BRANCH  27  28
ATOM     28  C   UNL     1      -5.223  -0.565  -2.406  0.00  0.00    +0.173 C 
BRANCH  28  29
ATOM     29  C   UNL     1      -5.421  -1.001  -3.835  0.00  0.00    +0.223 C 
ATOM     30  O   UNL     1      -4.493  -1.466  -4.462  0.00  0.00    -0.275 OA
ATOM     31  N   UNL     1      -6.631  -0.875  -4.417  0.00  0.00    -0.314 N 
ATOM     32  H   UNL     1      -7.373  -0.503  -3.916  0.00  0.00    +0.149 HD
BRANCH  31  33
ATOM     33  C   UNL     1      -6.823  -1.299  -5.806  0.00  0.00    +0.109 C 
BRANCH  33  34
ATOM     34  C   UNL     1      -8.275  -1.050  -6.219  0.00  0.00    +0.054 C 
BRANCH  34  35
ATOM     35  C   UNL     1      -8.473  -1.486  -7.647  0.00  0.00    -0.046 A 
ATOM     36  C   UNL     1      -8.263  -0.590  -8.679  0.00  0.00    +0.006 A 
ATOM     37  C   UNL     1      -8.444  -0.989  -9.989  0.00  0.00    +0.038 A 
ATOM     38  C   UNL     1      -8.836  -2.287 -10.269  0.00  0.00    +0.123 A 
ATOM     39  C   UNL     1      -9.046  -3.184  -9.236  0.00  0.00    +0.038 A 
ATOM     40  C   UNL     1      -8.859  -2.784  -7.926  0.00  0.00    +0.006 A 
ATOM     41  F   UNL     1      -9.013  -2.678 -11.550  0.00  0.00    -0.205 F 
ENDBRANCH  34  35
ENDBRANCH  33  34
ENDBRANCH  31  33
ENDBRANCH  28  29
ENDBRANCH  27  28
ENDBRANCH   5  27
TORSDOF 9
