REMARK  Name = ZINC36156849
REMARK  10 active torsions:
REMARK  status: ('A' for Active; 'I' for Inactive)
REMARK    1  A    between atoms: C_4  and  O_7
REMARK    2  A    between atoms: O_7  and  C_8
REMARK    3  A    between atoms: C_8  and  C_9
REMARK    4  A    between atoms: C_9  and  C_11
REMARK    5  A    between atoms: C_9  and  O_35
REMARK    6  A    between atoms: C_11  and  N_12
REMARK    7  A    between atoms: N_12  and  C_13
REMARK    8  A    between atoms: N_12  and  C_19
REMARK    9  A    between atoms: C_13  and  C_14
REMARK   10  A    between atoms: C_19  and  C_20
REMARK                            x       y       z     vdW  Elec       q    Type
REMARK                         _______ _______ _______ _____ _____    ______ ____
ROOT
ATOM      1  N   UNL     1       6.092  -4.328   0.029  0.00  0.00    +0.391 N 
ATOM      2  H   UNL     1       6.633  -3.825  -0.660  0.00  0.00    -0.080 HD
ENDROOT
BRANCH   1   3
ATOM      3  C   UNL     1       4.667  -4.016  -0.145  0.00  0.00    -0.043 C 
BRANCH   3   4
ATOM      4  C   UNL     1       4.466  -2.500  -0.091  0.00  0.00    +0.135 C 
BRANCH   4   5
ATOM      5  O   UNL     1       5.125  -1.892  -1.204  0.00  0.00    -0.390 OA
ATOM      6  H   UNL     1       4.801  -2.192  -2.064  0.00  0.00    +0.210 HD
ENDBRANCH   4   5
BRANCH   4   7
ATOM      7  C   UNL     1       2.971  -2.181  -0.147  0.00  0.00    +0.258 C 
BRANCH   7   8
ATOM      8  O   UNL     1       2.777  -0.776   0.021  0.00  0.00    -0.489 OA
BRANCH   8  12
ATOM      9  C   UNL     1      -1.111   0.601  -0.055  0.00  0.00    +0.000 A 
ATOM     10  C   UNL     1      -0.068   1.490   0.127  0.00  0.00    +0.004 A 
ATOM     11  C   UNL     1       1.235   1.031   0.153  0.00  0.00    +0.045 A 
ATOM     12  C   UNL     1       1.496  -0.322  -0.004  0.00  0.00    +0.121 A 
ATOM     13  C   UNL     1       0.447  -1.212  -0.186  0.00  0.00    +0.045 A 
ATOM     14  C   UNL     1      -0.854  -0.749  -0.212  0.00  0.00    +0.004 A 
ENDBRANCH   8  12
ENDBRANCH   7   8
ENDBRANCH   4   7
ENDBRANCH   3   4
ENDBRANCH   1   3
BRANCH   1  15
ATOM     15  C   UNL     1       6.520  -3.927   1.375  0.00  0.00    -0.002 C 
BRANCH  15  16
ATOM     16  C   UNL     1       8.008  -4.127   1.510  0.00  0.00    +0.089 A 
ATOM     17  C   UNL     1       8.957  -3.253   1.126  0.00  0.00    +0.042 A 
ATOM     18  C   UNL     1      10.204  -3.842   1.436  0.00  0.00    +0.041 A 
ATOM     19  C   UNL     1       9.943  -5.039   1.991  0.00  0.00    +0.195 A 
ATOM     20  O   UNL     1       8.611  -5.204   2.038  0.00  0.00    -0.470 OA
ENDBRANCH  15  16
ENDBRANCH   1  15
BRANCH   1  21
ATOM     21  C   UNL     1       6.302  -5.771  -0.143  0.00  0.00    -0.003 C 
BRANCH  21  22
ATOM     22  C   UNL     1       6.026  -6.153  -1.574  0.00  0.00    +0.094 A 
ATOM     23  N   UNL     1       6.037  -7.463  -1.929  0.00  0.00    -0.312 N 
ATOM     24  H   UNL     1       6.222  -8.136  -1.256  0.00  0.00    +0.170 HD
ATOM     25  C   UNL     1       5.795  -7.848  -3.197  0.00  0.00    +0.260 A 
ATOM     26  O   UNL     1       5.808  -9.029  -3.499  0.00  0.00    -0.267 OA
ATOM     27  C   UNL     1       5.522  -6.846  -4.184  0.00  0.00    +0.075 A 
ATOM     28  C   UNL     1       5.235  -7.026  -5.607  0.00  0.00    -0.023 A 
ATOM     29  C   UNL     1       5.009  -5.911  -6.332  0.00  0.00    -0.004 A 
ATOM     30  S   UNL     1       5.162  -4.574  -5.178  0.00  0.00    -0.073 S 
ATOM     31  C   UNL     1       5.532  -5.520  -3.723  0.00  0.00    +0.116 A 
ATOM     32  N   UNL     1       5.774  -5.217  -2.451  0.00  0.00    -0.229 NA
ATOM     33  C   UNL     1       4.698  -5.827  -7.795  0.00  0.00    +0.043 C 
ATOM     34  C   UNL     1       5.037  -7.178  -8.441  0.00  0.00    +0.005 C 
ATOM     35  C   UNL     1       4.433  -8.296  -7.586  0.00  0.00    +0.005 C 
ATOM     36  C   UNL     1       5.189  -8.404  -6.262  0.00  0.00    +0.037 C 
ENDBRANCH  21  22
ENDBRANCH   1  21
TORSDOF 10
