REMARK  Name = ZINC02682863
REMARK  11 active torsions:
REMARK  status: ('A' for Active; 'I' for Inactive)
REMARK    1  A    between atoms: C_1  and  C_2
REMARK    2  A    between atoms: C_2  and  C_3
REMARK    3  A    between atoms: C_3  and  C_4
REMARK    4  A    between atoms: N_6  and  C_7
REMARK    5  A    between atoms: C_7  and  C_9
REMARK    6  A    between atoms: C_7  and  N_13
REMARK    7  A    between atoms: N_13  and  C_14
REMARK    8  A    between atoms: C_14  and  N_16
REMARK    9  A    between atoms: N_16  and  C_17
REMARK   10  A    between atoms: C_20  and  C_24
REMARK   11  A    between atoms: C_22  and  C_23
REMARK                            x       y       z     vdW  Elec       q    Type
REMARK                         _______ _______ _______ _____ _____    ______ ____
ROOT
ATOM      1  N   UNL     1       3.377   1.117   1.191  0.00  0.00    -0.305 N 
ATOM      2  H   UNL     1       3.515   2.009   1.547  0.00  0.00    +0.150 HD
ENDROOT
BRANCH   1   3
ATOM      3  C   UNL     1       3.387   0.053   2.018  0.00  0.00    +0.136 C 
ATOM      4  S   UNL     1       3.144  -1.521   1.390  0.00  0.00    -0.019 S 
BRANCH   3   5
ATOM      5  N   UNL     1       3.588   0.228   3.339  0.00  0.00    -0.297 N 
ATOM      6  H   UNL     1       3.804   1.108   3.684  0.00  0.00    +0.154 HD
BRANCH   5   7
ATOM      7  C   UNL     1       3.485  -0.860   4.212  0.00  0.00    +0.036 A 
ATOM      8  C   UNL     1       2.430  -1.755   4.087  0.00  0.00    +0.024 A 
ATOM      9  C   UNL     1       2.331  -2.828   4.951  0.00  0.00    +0.005 A 
ATOM     10  C   UNL     1       3.281  -3.013   5.939  0.00  0.00    -0.050 A 
ATOM     11  C   UNL     1       4.332  -2.123   6.066  0.00  0.00    +0.008 A 
ATOM     12  C   UNL     1       4.440  -1.051   5.202  0.00  0.00    -0.029 A 
ATOM     13  C   UNL     1       5.589  -0.086   5.337  0.00  0.00    +0.045 C 
ATOM     14  C   UNL     1       3.171  -4.185   6.879  0.00  0.00    +0.044 C 
ENDBRANCH   5   7
ENDBRANCH   3   5
ENDBRANCH   1   3
BRANCH   1  15
ATOM     15  C   UNL     1       3.158   0.927  -0.245  0.00  0.00    +0.211 C 
BRANCH  15  18
ATOM     16  C   UNL     1       0.851   0.422  -0.845  0.00  0.00    +0.214 C 
ATOM     17  O   UNL     1       1.125  -0.758  -0.785  0.00  0.00    -0.276 OA
ATOM     18  N   UNL     1       1.798   1.347  -0.592  0.00  0.00    -0.294 N 
ATOM     19  H   UNL     1       1.579   2.291  -0.639  0.00  0.00    +0.151 HD
BRANCH  16  20
ATOM     20  C   UNL     1      -0.546   0.853  -1.207  0.00  0.00    +0.095 C 
BRANCH  20  22
ATOM     21  C   UNL     1      -2.834   0.056  -1.817  0.00  0.00    +0.004 C 
ATOM     22  C   UNL     1      -1.415  -0.383  -1.449  0.00  0.00    +0.006 C 
ENDBRANCH  20  22
ENDBRANCH  16  20
ENDBRANCH  15  18
BRANCH  15  23
ATOM     23  C   UNL     1       4.167   1.768  -1.030  0.00  0.00    +0.225 C 
ATOM     24 CL   UNL     1       3.951   3.509  -0.615  0.00  0.00    -0.080 Cl
ATOM     25 CL   UNL     1       5.841   1.252  -0.604  0.00  0.00    -0.080 Cl
ATOM     26 CL   UNL     1       3.898   1.534  -2.798  0.00  0.00    -0.080 Cl
ENDBRANCH  15  23
ENDBRANCH   1  15
TORSDOF 8
