REMARK  Name = ZINC02392220
REMARK  7 active torsions:
REMARK  status: ('A' for Active; 'I' for Inactive)
REMARK    1  A    between atoms: C_1  and  C_2
REMARK    2  A    between atoms: C_2  and  C_3
REMARK    3  A    between atoms: C_3  and  N_4
REMARK    4  A    between atoms: C_5  and  C_7
REMARK    5  A    between atoms: N_18  and  C_21
REMARK    6  A    between atoms: C_19  and  N_20
REMARK    7  A    between atoms: C_25  and  C_27
REMARK                            x       y       z     vdW  Elec       q    Type
REMARK                         _______ _______ _______ _____ _____    ______ ____
ROOT
ATOM      1  C   UNL     1      -2.443   0.876   0.018  0.00  0.00    +0.104 A 
ATOM      2  C   UNL     1      -3.191   0.414   1.199  0.00  0.00    +0.123 A 
ATOM      3  C   UNL     1      -4.369  -0.276   0.667  0.00  0.00    +0.166 A 
ATOM      4  N   UNL     1      -5.242  -0.802   1.500  0.00  0.00    -0.225 NA
ATOM      5  C   UNL     1      -5.049  -0.698   2.821  0.00  0.00    +0.092 A 
ATOM      6  C   UNL     1      -5.977  -1.258   3.719  0.00  0.00    +0.030 A 
ATOM      7  C   UNL     1      -5.774  -1.146   5.060  0.00  0.00    +0.002 A 
ATOM      8  C   UNL     1      -4.656  -0.484   5.563  0.00  0.00    +0.002 A 
ATOM      9  C   UNL     1      -3.737   0.070   4.727  0.00  0.00    +0.030 A 
ATOM     10  C   UNL     1      -3.913  -0.024   3.333  0.00  0.00    +0.090 A 
ATOM     11  N   UNL     1      -3.015   0.517   2.501  0.00  0.00    -0.241 NA
ATOM     12  N   UNL     1      -4.285  -0.215  -0.710  0.00  0.00    -0.280 N 
ATOM     13  C   UNL     1      -3.162   0.456  -1.095  0.00  0.00    +0.117 A 
ENDROOT
BRANCH  12  14
ATOM     14  C   UNL     1      -5.224  -0.768  -1.592  0.00  0.00    +0.050 A 
ATOM     15  C   UNL     1      -5.405  -2.144  -1.642  0.00  0.00    +0.027 A 
ATOM     16  C   UNL     1      -6.331  -2.686  -2.511  0.00  0.00    +0.017 A 
ATOM     17  C   UNL     1      -7.078  -1.859  -3.332  0.00  0.00    +0.021 A 
ATOM     18  C   UNL     1      -6.899  -0.488  -3.284  0.00  0.00    -0.035 A 
ATOM     19  C   UNL     1      -5.978   0.060  -2.412  0.00  0.00    +0.030 A 
ATOM     20  C   UNL     1      -7.714   0.409  -4.180  0.00  0.00    +0.045 C 
ATOM     21 BR   UNL     1      -8.344  -2.604  -4.522  0.00  0.00    -0.050 Br
ENDBRANCH  12  14
BRANCH   1  23
ATOM     22  N   UNL     1      -0.011   0.966   0.007  0.00  0.00    -0.311 N 
ATOM     23  C   UNL     1      -1.187   1.624   0.017  0.00  0.00    +0.250 C 
ATOM     24  O   UNL     1      -1.204   2.841   0.023  0.00  0.00    -0.270 OA
ATOM     25  H   UNL     1       0.002  -0.004   0.002  0.00  0.00    +0.149 HD
BRANCH  22  26
ATOM     26  C   UNL     1       1.248   1.716  -0.001  0.00  0.00    +0.104 C 
BRANCH  26  28
ATOM     27  C   UNL     1       3.738   1.520  -0.025  0.00  0.00    +0.005 C 
ATOM     28  C   UNL     1       2.424   0.737  -0.017  0.00  0.00    +0.015 C 
ENDBRANCH  26  28
ENDBRANCH  22  26
ENDBRANCH   1  23
BRANCH  13  29
ATOM     29  N   UNL     1      -2.795   0.685  -2.395  0.00  0.00    -0.343 N 
ATOM     30  H   UNL     1      -1.980   1.173  -2.590  0.00  0.00    +0.144 HD
ATOM     31  H   UNL     1      -3.351   0.360  -3.121  0.00  0.00    +0.144 HD
ENDBRANCH  13  29
TORSDOF 5
