REMARK  Name = ZINC04745799
REMARK  3 active torsions:
REMARK  status: ('A' for Active; 'I' for Inactive)
REMARK    1  A    between atoms: C_1  and  N_2
REMARK    2  A    between atoms: C_6  and  C_7
REMARK    3  A    between atoms: N_13  and  C_14
REMARK                            x       y       z     vdW  Elec       q    Type
REMARK                         _______ _______ _______ _____ _____    ______ ____
ROOT
ATOM      1  C   UNL     1       0.572  -0.473   2.477  0.00  0.00    +0.046 C 
ATOM      2  C   UNL     1       0.404   0.828   2.846  0.00  0.00    +0.079 C 
ATOM      3  C   UNL     1       0.198   2.018   2.005  0.00  0.00    +0.256 C 
ATOM      4  O   UNL     1       0.154   1.938   0.791  0.00  0.00    -0.269 OA
ATOM      5  N   UNL     1       0.061   3.177   2.626  0.00  0.00    -0.260 N 
ATOM      6  C   UNL     1       0.114   3.247   4.001  0.00  0.00    +0.166 C 
ATOM      7  N   UNL     1      -0.002   4.307   4.771  0.00  0.00    -0.224 NA
ATOM      8  S   UNL     1       0.368   1.547   4.482  0.00  0.00    -0.049 S 
ATOM      9  H   UNL     1      -0.077   3.986   2.108  0.00  0.00    +0.157 HD
ENDROOT
BRANCH   7  10
ATOM     10  C   UNL     1      -0.168   5.544   4.212  0.00  0.00    +0.086 A 
ATOM     11  C   UNL     1      -1.162   5.753   3.253  0.00  0.00    +0.029 A 
ATOM     12  C   UNL     1      -1.325   7.003   2.693  0.00  0.00    +0.004 A 
ATOM     13  C   UNL     1      -0.507   8.050   3.078  0.00  0.00    +0.021 A 
ATOM     14  C   UNL     1       0.482   7.852   4.027  0.00  0.00    +0.061 A 
ATOM     15  C   UNL     1       0.652   6.607   4.601  0.00  0.00    +0.085 A 
ATOM     16 CL   UNL     1       1.887   6.361   5.796  0.00  0.00    -0.080 Cl
ATOM     17 CL   UNL     1       1.504   9.172   4.502  0.00  0.00    -0.082 Cl
ENDBRANCH   7  10
BRANCH   1  23
ATOM     18  C   UNL     1       2.608   0.728   0.519  0.00  0.00    +0.149 C 
ATOM     19  N   UNL     1       1.594  -0.284   0.213  0.00  0.00    -0.350 N 
ATOM     20  C   UNL     1       1.393  -0.865  -1.000  0.00  0.00    +0.086 A 
ATOM     21  C   UNL     1       0.373  -1.750  -0.899  0.00  0.00    +0.020 A 
ATOM     22  C   UNL     1      -0.087  -1.728   0.421  0.00  0.00    +0.027 A 
ATOM     23  C   UNL     1       0.689  -0.810   1.107  0.00  0.00    +0.043 A 
ENDBRANCH   1  23
TORSDOF 2
