REMARK  Name = ZINC13640303
REMARK  8 active torsions:
REMARK  status: ('A' for Active; 'I' for Inactive)
REMARK    1  A    between atoms: C_1  and  C_2
REMARK    2  A    between atoms: C_2  and  O_4
REMARK    3  A    between atoms: O_4  and  C_5
REMARK    4  A    between atoms: C_5  and  C_6
REMARK    5  A    between atoms: CA_7  and  C_27
REMARK    6  A    between atoms: CA_11  and  N_15
REMARK    7  A    between atoms: C_16  and  C_18
REMARK    8  A    between atoms: N_22  and  C_23
REMARK                            x       y       z     vdW  Elec       q    Type
REMARK                         _______ _______ _______ _____ _____    ______ ____
ROOT
ATOM      1  C   UNL     1      -0.036   1.402   0.055  0.00  0.00    +0.006 C 
ATOM      2  CA  UNL     1      -0.032   0.077   0.030  0.00  0.00    +0.130 C 
ATOM      3  N   UNL     1       1.177  -0.629   0.040  0.00  0.00    -0.249 N 
ATOM      4  C   UNL     1       2.534  -0.102  -0.279  0.00  0.00    +0.169 C 
ATOM      5  CA  UNL     1       3.137  -1.288   0.451  0.00  0.00    +0.191 C 
ATOM      6  C   UNL     1       1.716  -1.796   0.371  0.00  0.00    +0.244 C 
ATOM      7  O   UNL     1       1.234  -2.895   0.549  0.00  0.00    -0.273 OA
ATOM      8  S   UNL     1       2.654   1.510   0.569  0.00  0.00    -0.131 S 
ATOM      9  C   UNL     1       1.136   2.329   0.045  0.00  0.00    +0.107 C 
ENDROOT
BRANCH   5  10
ATOM     10  N   UNL     1       4.101  -2.059  -0.338  0.00  0.00    -0.296 N 
ATOM     11  C   UNL     1       5.055  -2.780   0.283  0.00  0.00    +0.264 C 
ATOM     12  O   UNL     1       5.174  -2.720   1.492  0.00  0.00    -0.268 OA
ATOM     13  H   UNL     1       4.053  -2.049  -1.306  0.00  0.00    +0.150 HD
BRANCH  11  14
ATOM     14  C   UNL     1       5.954  -3.641  -0.502  0.00  0.00    +0.137 A 
ATOM     15  C   UNL     1       7.247  -3.348  -0.901  0.00  0.00    +0.068 A 
ATOM     16  C   UNL     1       7.677  -4.471  -1.614  0.00  0.00    +0.150 A 
ATOM     17  N   UNL     1       6.697  -5.338  -1.627  0.00  0.00    -0.178 NA
ATOM     18  N   UNL     1       5.677  -4.888  -0.989  0.00  0.00    -0.261 N 
ATOM     19  C   UNL     1       4.410  -5.602  -0.812  0.00  0.00    +0.173 C 
ATOM     20 BR   UNL     1       8.224  -1.767  -0.553  0.00  0.00    -0.046 Br
ENDBRANCH  11  14
ENDBRANCH   5  10
BRANCH   2  21
ATOM     21  C   UNL     1      -1.309  -0.659  -0.009  0.00  0.00    +0.401 C 
ATOM     22  O   UNL     1      -1.314  -1.871   0.076  0.00  0.00    -0.239 OA
ATOM     23  OXT UNL     1      -2.470   0.013  -0.139  0.00  0.00    -0.239 OA
ENDBRANCH   2  21
BRANCH   1  24
ATOM     24  C   UNL     1      -1.394   2.056   0.092  0.00  0.00    +0.266 C 
BRANCH  24  25
ATOM     25  O   UNL     1      -1.235   3.492   0.233  0.00  0.00    -0.460 OA
BRANCH  25  27
ATOM     26  C   UNL     1      -2.279   5.721   0.423  0.00  0.00    +0.136 C 
ATOM     27  C   UNL     1      -2.355   4.217   0.385  0.00  0.00    +0.304 C 
ATOM     28  O   UNL     1      -3.423   3.663   0.491  0.00  0.00    -0.251 OA
ENDBRANCH  25  27
ENDBRANCH  24  25
ENDBRANCH   1  24
TORSDOF 6
