REMARK  Name = ZINC39665999
REMARK  8 active torsions:
REMARK  status: ('A' for Active; 'I' for Inactive)
REMARK    1  A    between atoms: C_1  and  C_2
REMARK    2  A    between atoms: C_5  and  O_8
REMARK    3  A    between atoms: O_8  and  C_9
REMARK    4  A    between atoms: C_9  and  C_11
REMARK    5  A    between atoms: C_9  and  C_12
REMARK    6  A    between atoms: C_12  and  N_13
REMARK    7  A    between atoms: C_14  and  C_16
REMARK    8  A    between atoms: C_27  and  C_29
REMARK                            x       y       z     vdW  Elec       q    Type
REMARK                         _______ _______ _______ _____ _____    ______ ____
ROOT
ATOM      1  C   UNL     1      -3.947  -6.883  -0.116  0.00  0.00    +0.100 C 
ATOM      2  C   UNL     1      -3.894  -6.391  -1.580  0.00  0.00    +0.121 C 
ATOM      3  N   UNL     1      -3.929  -7.629  -2.393  0.00  0.00    -0.296 N 
ATOM      4  C   UNL     1      -4.892  -8.508  -1.686  0.00  0.00    +0.115 C 
ATOM      5  C   UNL     1      -4.605  -8.271  -0.190  0.00  0.00    -0.004 C 
ATOM      6  C   UNL     1      -3.651  -9.337   0.339  0.00  0.00    -0.010 C 
ATOM      7  C   UNL     1      -4.348 -10.700   0.308  0.00  0.00    -0.082 C 
ATOM      8  N   UNL     1      -5.562 -10.649   1.133  0.00  0.00    +0.379 N 
ATOM      9  C   UNL     1      -6.514  -9.687   0.564  0.00  0.00    -0.082 C 
ATOM     10  C   UNL     1      -5.907  -8.281   0.605  0.00  0.00    -0.010 C 
ATOM     11  C   UNL     1      -3.240  -7.897  -3.520  0.00  0.00    +0.247 C 
ATOM     12  O   UNL     1      -2.528  -7.045  -4.014  0.00  0.00    -0.270 OA
ATOM     13  H   UNL     1      -5.987 -11.564   1.161  0.00  0.00    -0.086 HD
ATOM     14  H   UNL     1      -5.318 -10.366   2.070  0.00  0.00    -0.086 HD
ENDROOT
BRANCH  11  15
ATOM     15  C   UNL     1      -3.352  -9.227  -4.156  0.00  0.00    +0.042 A 
ATOM     16  C   UNL     1      -4.559  -9.926  -4.112  0.00  0.00    +0.051 A 
ATOM     17  C   UNL     1      -4.657 -11.169  -4.708  0.00  0.00    +0.127 A 
ATOM     18  C   UNL     1      -3.560 -11.722  -5.348  0.00  0.00    +0.076 A 
ATOM     19  C   UNL     1      -2.360 -11.032  -5.396  0.00  0.00    +0.127 A 
ATOM     20  C   UNL     1      -2.252  -9.786  -4.808  0.00  0.00    +0.051 A 
ATOM     21  F   UNL     1      -1.294 -11.577  -6.023  0.00  0.00    -0.205 F 
ATOM     22  F   UNL     1      -5.825 -11.847  -4.665  0.00  0.00    -0.205 F 
ENDBRANCH  11  15
BRANCH   1  24
ATOM     23  N   UNL     1      -2.370  -6.989   1.786  0.00  0.00    -0.312 N 
ATOM     24  C   UNL     1      -2.555  -6.992   0.451  0.00  0.00    +0.218 C 
ATOM     25  O   UNL     1      -1.602  -7.082  -0.293  0.00  0.00    -0.275 OA
ATOM     26  H   UNL     1      -3.132  -6.918   2.382  0.00  0.00    +0.149 HD
BRANCH  23  27
ATOM     27  C   UNL     1      -1.017  -7.095   2.338  0.00  0.00    +0.148 C 
BRANCH  27  28
ATOM     28  C   UNL     1      -1.086  -7.069   3.866  0.00  0.00    +0.187 C 
ATOM     29  C   UNL     1       0.327  -7.180   4.442  0.00  0.00    +0.053 C 
BRANCH  28  30
ATOM     30  O   UNL     1      -1.680  -5.842   4.295  0.00  0.00    -0.488 OA
BRANCH  30  35
ATOM     31  C   UNL     1      -4.150  -5.831   9.357  0.00  0.00    +0.044 C 
ATOM     32  C   UNL     1      -3.489  -5.834   8.003  0.00  0.00    -0.050 A 
ATOM     33  C   UNL     1      -2.979  -7.011   7.487  0.00  0.00    +0.007 A 
ATOM     34  C   UNL     1      -2.372  -7.016   6.245  0.00  0.00    +0.046 A 
ATOM     35  C   UNL     1      -2.277  -5.840   5.516  0.00  0.00    +0.121 A 
ATOM     36  C   UNL     1      -2.790  -4.660   6.036  0.00  0.00    +0.046 A 
ATOM     37  C   UNL     1      -3.400  -4.661   7.276  0.00  0.00    +0.007 A 
ENDBRANCH  30  35
ENDBRANCH  28  30
ENDBRANCH  27  28
ENDBRANCH  23  27
ENDBRANCH   1  24
TORSDOF 6
