REMARK  Name = ZINC39685799
REMARK  12 active torsions:
REMARK  status: ('A' for Active; 'I' for Inactive)
REMARK    1  A    between atoms: C_1  and  C_2
REMARK    2  A    between atoms: C_4  and  C_9
REMARK    3  A    between atoms: C_13  and  C_22
REMARK    4  A    between atoms: N_24  and  C_25
REMARK    5  A    between atoms: C_25  and  C_27
REMARK    6  A    between atoms: C_25  and  C_30
REMARK    7  A    between atoms: C_27  and  C_28
REMARK    8  A    between atoms: C_27  and  C_29
REMARK    9  A    between atoms: N_32  and  C_33
REMARK   10  A    between atoms: C_33  and  C_34
REMARK   11  A    between atoms: C_33  and  C_35
REMARK   12  A    between atoms: C_33  and  C_36
REMARK                            x       y       z     vdW  Elec       q    Type
REMARK                         _______ _______ _______ _____ _____    ______ ____
ROOT
ATOM      1  C   UNL     1      -0.202  -2.584  -2.287  0.00  0.00    +0.247 C 
ATOM      2  O   UNL     1      -0.207  -2.118  -3.410  0.00  0.00    -0.270 OA
ATOM      3  N   UNL     1       0.061  -3.893  -2.102  0.00  0.00    -0.296 N 
ATOM      4  C   UNL     1      -0.021  -4.666  -0.840  0.00  0.00    +0.121 C 
ATOM      5  C   UNL     1      -0.613  -6.031  -1.256  0.00  0.00    +0.100 C 
ATOM      6  C   UNL     1      -0.268  -6.170  -2.749  0.00  0.00    -0.004 C 
ATOM      7  C   UNL     1       0.491  -4.886  -3.115  0.00  0.00    +0.115 C 
ATOM      8  C   UNL     1       0.617  -7.391  -2.975  0.00  0.00    -0.010 C 
ATOM      9  C   UNL     1       0.898  -7.541  -4.473  0.00  0.00    -0.082 C 
ATOM     10  N   UNL     1      -0.369  -7.689  -5.199  0.00  0.00    +0.379 N 
ATOM     11  C   UNL     1      -1.175  -6.471  -5.051  0.00  0.00    -0.082 C 
ATOM     12  C   UNL     1      -1.544  -6.277  -3.578  0.00  0.00    -0.010 C 
ATOM     13  H   UNL     1      -0.178  -7.848  -6.177  0.00  0.00    -0.086 HD
ATOM     14  H   UNL     1      -0.879  -8.476  -4.825  0.00  0.00    -0.086 HD
ENDROOT
BRANCH   1  18
ATOM     15  C   UNL     1      -2.084   1.639  -0.412  0.00  0.00    +0.045 C 
ATOM     16  C   UNL     1      -1.389   0.316  -0.218  0.00  0.00    -0.036 A 
ATOM     17  C   UNL     1      -1.128  -0.490  -1.306  0.00  0.00    +0.017 A 
ATOM     18  C   UNL     1      -0.484  -1.715  -1.125  0.00  0.00    +0.037 A 
ATOM     19  C   UNL     1      -0.108  -2.117   0.158  0.00  0.00    +0.014 A 
ATOM     20  C   UNL     1      -0.375  -1.302   1.238  0.00  0.00    +0.016 A 
ATOM     21  C   UNL     1      -1.009  -0.085   1.052  0.00  0.00    +0.021 A 
ATOM     22 BR   UNL     1      -1.364   1.030   2.537  0.00  0.00    -0.050 Br
ENDBRANCH   1  18
BRANCH   5  23
ATOM     23  C   UNL     1      -2.107  -6.038  -1.058  0.00  0.00    +0.219 C 
ATOM     24  O   UNL     1      -2.745  -5.020  -1.221  0.00  0.00    -0.275 OA
ATOM     25  N   UNL     1      -2.734  -7.176  -0.699  0.00  0.00    -0.303 N 
ATOM     26  H   UNL     1      -2.235  -8.006  -0.637  0.00  0.00    +0.149 HD
BRANCH  25  27
ATOM     27  C   UNL     1      -4.168  -7.159  -0.401  0.00  0.00    +0.161 C 
BRANCH  27  28
ATOM     28  C   UNL     1      -4.439  -8.013   0.811  0.00  0.00    +0.234 C 
ATOM     29  O   UNL     1      -3.585  -8.768   1.225  0.00  0.00    -0.274 OA
ATOM     30  N   UNL     1      -5.632  -7.938   1.435  0.00  0.00    -0.309 N 
ATOM     31  H   UNL     1      -6.334  -7.375   1.073  0.00  0.00    +0.149 HD
BRANCH  30  32
ATOM     32  C   UNL     1      -5.867  -8.707   2.659  0.00  0.00    +0.026 C 
ATOM     33  C   UNL     1      -4.862  -8.280   3.731  0.00  0.00    +0.031 C 
ATOM     34  C   UNL     1      -7.289  -8.445   3.161  0.00  0.00    +0.031 C 
ATOM     35  C   UNL     1      -5.697 -10.199   2.366  0.00  0.00    +0.031 C 
ENDBRANCH  30  32
ENDBRANCH  27  28
BRANCH  27  36
ATOM     36  C   UNL     1      -4.944  -7.712  -1.598  0.00  0.00    +0.012 C 
ATOM     37  C   UNL     1      -4.795  -6.759  -2.786  0.00  0.00    +0.009 C 
ATOM     38  C   UNL     1      -4.389  -9.087  -1.975  0.00  0.00    +0.009 C 
ENDBRANCH  27  36
ENDBRANCH  25  27
ENDBRANCH   5  23
TORSDOF 6
