REMARK  Name = ZINC11998464
REMARK  9 active torsions:
REMARK  status: ('A' for Active; 'I' for Inactive)
REMARK    1  A    between atoms: C_1  and  C_2
REMARK    2  A    between atoms: C_5  and  N_26
REMARK    3  A    between atoms: C_7  and  S_8
REMARK    4  A    between atoms: S_8  and  N_11
REMARK    5  A    between atoms: N_11  and  C_12
REMARK    6  A    between atoms: C_12  and  C_13
REMARK    7  A    between atoms: C_13  and  C_15
REMARK    8  A    between atoms: C_13  and  N_62
REMARK    9  A    between atoms: C_22  and  C_25
REMARK                            x       y       z     vdW  Elec       q    Type
REMARK                         _______ _______ _______ _____ _____    ______ ____
ROOT
ATOM      1  S   UNL     1       0.268   5.521   0.244  0.00  0.00    +0.059 S 
ATOM      2  O   UNL     1      -0.511   5.909   1.367  0.00  0.00    -0.153 OA
ATOM      3  O   UNL     1       1.680   5.675   0.206  0.00  0.00    -0.153 OA
ENDROOT
BRANCH   1  10
ATOM      4  C   UNL     1       1.477   3.899  -2.002  0.00  0.00    +0.046 C 
ATOM      5  C   UNL     1       0.542   3.153  -1.085  0.00  0.00    -0.024 A 
ATOM      6  C   UNL     1       0.293   1.810  -1.300  0.00  0.00    +0.007 A 
ATOM      7  C   UNL     1      -0.567   1.124  -0.465  0.00  0.00    +0.025 A 
ATOM      8  C   UNL     1      -1.174   1.782   0.597  0.00  0.00    +0.061 A 
ATOM      9  C   UNL     1      -0.917   3.130   0.813  0.00  0.00    +0.054 A 
ATOM     10  C   UNL     1      -0.059   3.811  -0.029  0.00  0.00    +0.110 A 
BRANCH   8  11
ATOM     11  N   UNL     1      -2.042   1.089   1.448  0.00  0.00    -0.144 N 
ATOM     12  C   UNL     1      -3.024   1.630   2.184  0.00  0.00    +0.240 C 
ATOM     13  O   UNL     1      -3.254   2.820   2.134  0.00  0.00    -0.274 OA
ATOM     14  C   UNL     1      -3.834   0.730   3.067  0.00  0.00    +0.122 C 
ATOM     15  C   UNL     1      -3.655  -0.734   2.585  0.00  0.00    +0.198 C 
ATOM     16  S   UNL     1      -2.034  -0.561   1.732  0.00  0.00    +0.052 S 
ATOM     17  O   UNL     1      -2.068  -1.172   0.449  0.00  0.00    -0.155 OA
ATOM     18  O   UNL     1      -0.959  -0.791   2.632  0.00  0.00    -0.155 OA
ENDBRANCH   8  11
ENDBRANCH   1  10
BRANCH   1  19
ATOM     19  N   UNL     1      -0.334   6.348  -1.058  0.00  0.00    -0.191 NA
ATOM     20  H   UNL     1       0.267   6.833  -1.645  0.00  0.00    +0.148 HD
BRANCH  19  21
ATOM     21  C   UNL     1      -1.775   6.348  -1.323  0.00  0.00    +0.098 C 
BRANCH  21  22
ATOM     22  C   UNL     1      -2.109   7.455  -2.326  0.00  0.00    +0.015 C 
BRANCH  22  29
ATOM     23  C   UNL     1      -1.474   5.946  -4.109  0.00  0.00    -0.078 C 
ATOM     24  C   UNL     1      -0.503   5.753  -5.276  0.00  0.00    -0.015 C 
ATOM     25  C   UNL     1      -0.767   6.825  -6.336  0.00  0.00    -0.018 C 
ATOM     26  C   UNL     1      -0.617   8.209  -5.700  0.00  0.00    -0.015 C 
ATOM     27  C   UNL     1      -1.585   8.331  -4.521  0.00  0.00    -0.078 C 
ATOM     28  C   UNL     1       0.241   6.674  -7.477  0.00  0.00    +0.007 C 
ATOM     29  N   UNL     1      -1.262   7.287  -3.525  0.00  0.00    +0.387 N 
ATOM     30  H   UNL     1      -0.277   7.380  -3.253  0.00  0.00    -0.081 HD
ENDBRANCH  22  29
BRANCH  22  31
ATOM     31  C   UNL     1      -3.568   7.377  -2.692  0.00  0.00    +0.093 A 
ATOM     32  C   UNL     1      -4.549   8.145  -2.184  0.00  0.00    +0.043 A 
ATOM     33  C   UNL     1      -5.752   7.737  -2.806  0.00  0.00    +0.041 A 
ATOM     34  C   UNL     1      -5.436   6.740  -3.651  0.00  0.00    +0.195 A 
ATOM     35  O   UNL     1      -4.112   6.526  -3.578  0.00  0.00    -0.469 OA
ENDBRANCH  22  31
ENDBRANCH  21  22
ENDBRANCH  19  21
ENDBRANCH   1  19
TORSDOF 7
