REMARK  Name = ZINC65689605
REMARK  5 active torsions:
REMARK  status: ('A' for Active; 'I' for Inactive)
REMARK    1  A    between atoms: C_5  and  C_7
REMARK    2  A    between atoms: C_7  and  C_8
REMARK    3  A    between atoms: N_18  and  C_19
REMARK    4  A    between atoms: C_19  and  C_20
REMARK    5  A    between atoms: C_20  and  N_21
REMARK                            x       y       z     vdW  Elec       q    Type
REMARK                         _______ _______ _______ _____ _____    ______ ____
ROOT
ATOM      1  C   UNL     1       1.372  -2.696   1.385  0.00  0.00    +0.220 C 
ATOM      2  O   UNL     1       1.447  -1.912   2.307  0.00  0.00    -0.275 OA
ATOM      3  N   UNL     1       1.414  -4.022   1.622  0.00  0.00    -0.298 N 
ATOM      4  C   UNL     1       1.331  -4.983   0.514  0.00  0.00    +0.127 C 
ATOM      5  C   UNL     1       2.550  -5.911   0.577  0.00  0.00    +0.128 C 
ATOM      6  N   UNL     1       2.680  -6.422   1.949  0.00  0.00    -0.283 N 
ATOM      7  C   UNL     1       2.764  -5.460   3.058  0.00  0.00    +0.128 C 
ATOM      8  C   UNL     1       1.550  -4.532   2.994  0.00  0.00    +0.127 C 
ATOM      9  C   UNL     1       2.723  -7.748   2.187  0.00  0.00    +0.302 C 
ATOM     10  O   UNL     1       2.557  -8.534   1.274  0.00  0.00    -0.253 OA
ATOM     11  N   UNL     1       2.948  -8.202   3.436  0.00  0.00    -0.298 N 
ATOM     12  H   UNL     1       3.007  -7.578   4.175  0.00  0.00    +0.150 HD
ENDROOT
BRANCH   1  13
ATOM     13  C   UNL     1       1.232  -2.187  -0.027  0.00  0.00    +0.132 C 
BRANCH  13  18
ATOM     14  C   UNL     1      -0.016   1.376   0.001  0.00  0.00    +0.000 A 
ATOM     15  C   UNL     1       1.171   2.085  -0.002  0.00  0.00    +0.001 A 
ATOM     16  C   UNL     1       2.378   1.412  -0.013  0.00  0.00    +0.020 A 
ATOM     17  C   UNL     1       2.399   0.029  -0.021  0.00  0.00    +0.045 A 
ATOM     18  C   UNL     1       1.211  -0.680  -0.018  0.00  0.00    -0.020 A 
ATOM     19  C   UNL     1       0.004  -0.006  -0.007  0.00  0.00    +0.005 A 
ATOM     20 CL   UNL     1       3.915  -0.817  -0.036  0.00  0.00    -0.083 Cl
ENDBRANCH  13  18
ENDBRANCH   1  13
BRANCH  11  21
ATOM     21  C   UNL     1       3.102  -9.639   3.675  0.00  0.00    +0.127 C 
BRANCH  21  22
ATOM     22  C   UNL     1       3.347  -9.884   5.166  0.00  0.00    +0.141 C 
BRANCH  22  23
ATOM     23  N   UNL     1       3.501 -11.321   5.406  0.00  0.00    -0.337 N 
ATOM     24  C   UNL     1       2.500 -12.208   5.697  0.00  0.00    +0.104 A 
ATOM     25  C   UNL     1       3.079 -13.415   5.839  0.00  0.00    +0.101 A 
ATOM     26  N   UNL     1       4.397 -13.270   5.641  0.00  0.00    -0.352 N 
ATOM     27  C   UNL     1       4.657 -12.018   5.376  0.00  0.00    +0.173 A 
ATOM     28  H   UNL     1       5.054 -13.982   5.684  0.00  0.00    +0.166 HD
ENDBRANCH  22  23
ENDBRANCH  21  22
ENDBRANCH  11  21
TORSDOF 5
