REMARK  Name = ZINC35833064
REMARK  6 active torsions:
REMARK  status: ('A' for Active; 'I' for Inactive)
REMARK    1  A    between atoms: C_4  and  C_7
REMARK    2  A    between atoms: C_12  and  O_31
REMARK    3  A    between atoms: N_20  and  C_23
REMARK    4  A    between atoms: C_23  and  C_24
REMARK    5  A    between atoms: C_24  and  C_25
REMARK    6  A    between atoms: C_25  and  N_26
REMARK                            x       y       z     vdW  Elec       q    Type
REMARK                         _______ _______ _______ _____ _____    ______ ____
ROOT
ATOM      1  C   UNL     1       3.711  -0.707  -0.038  0.00  0.00    +0.091 C 
ATOM      2  C   UNL     1       3.816  -1.569   1.192  0.00  0.00    +0.007 A 
ATOM      3  C   UNL     1       4.117  -0.985   2.410  0.00  0.00    +0.012 A 
ATOM      4  C   UNL     1       4.216  -1.761   3.548  0.00  0.00    +0.046 A 
ATOM      5  C   UNL     1       4.014  -3.132   3.472  0.00  0.00    +0.120 A 
ATOM      6  C   UNL     1       3.712  -3.719   2.254  0.00  0.00    +0.092 A 
ATOM      7  C   UNL     1       3.612  -2.937   1.111  0.00  0.00    +0.138 A 
ATOM      8  O   UNL     1       3.314  -3.526  -0.072  0.00  0.00    -0.437 OA
ATOM      9  C   UNL     1       3.592  -2.897  -1.235  0.00  0.00    +0.229 A 
ATOM     10  C   UNL     1       3.790  -1.555  -1.276  0.00  0.00    +0.066 A 
ATOM     11  C   UNL     1       4.076  -0.949  -2.522  0.00  0.00    +0.115 A 
ATOM     12  N   UNL     1       4.277   0.349  -2.611  0.00  0.00    -0.384 N 
ATOM     13  N   UNL     1       4.139  -1.754  -3.642  0.00  0.00    -0.318 N 
ATOM     14  C   UNL     1       3.928  -3.089  -3.514  0.00  0.00    +0.204 A 
ATOM     15  N   UNL     1       3.671  -3.622  -2.367  0.00  0.00    -0.202 NA
ATOM     16  H   UNL     1       4.231   0.903  -1.816  0.00  0.00    +0.157 HD
ATOM     17  H   UNL     1       4.473   0.752  -3.472  0.00  0.00    +0.157 HD
ENDROOT
BRANCH   1  21
ATOM     18  C   UNL     1      -0.017   1.378   0.010  0.00  0.00    +0.000 A 
ATOM     19  C   UNL     1       1.171   2.086   0.002  0.00  0.00    +0.000 A 
ATOM     20  C   UNL     1       2.377   1.411  -0.013  0.00  0.00    +0.004 A 
ATOM     21  C   UNL     1       2.396   0.029  -0.020  0.00  0.00    -0.035 A 
ATOM     22  C   UNL     1       1.208  -0.679  -0.012  0.00  0.00    +0.004 A 
ATOM     23  C   UNL     1       0.002  -0.004   0.002  0.00  0.00    +0.000 A 
ENDBRANCH   1  21
BRANCH   5  24
ATOM     24  O   UNL     1       4.111  -3.897   4.591  0.00  0.00    -0.507 OA
ATOM     25  H   UNL     1       3.278  -3.999   5.071  0.00  0.00    +0.292 HD
ENDBRANCH   5  24
BRANCH  13  26
ATOM     26  C   UNL     1       4.429  -1.174  -4.955  0.00  0.00    +0.126 C 
BRANCH  26  27
ATOM     27  C   UNL     1       5.941  -1.173  -5.189  0.00  0.00    +0.043 C 
BRANCH  27  28
ATOM     28  C   UNL     1       6.244  -0.566  -6.561  0.00  0.00    +0.124 C 
BRANCH  28  29
ATOM     29  N   UNL     1       7.692  -0.565  -6.785  0.00  0.00    -0.338 N 
ATOM     30  C   UNL     1       8.565   0.433  -6.446  0.00  0.00    +0.104 A 
ATOM     31  C   UNL     1       9.790   0.025  -6.829  0.00  0.00    +0.101 A 
ATOM     32  N   UNL     1       9.668  -1.188  -7.386  0.00  0.00    -0.352 N 
ATOM     33  C   UNL     1       8.415  -1.551  -7.359  0.00  0.00    +0.173 A 
ATOM     34  H   UNL     1      10.398  -1.716  -7.749  0.00  0.00    +0.166 HD
ENDBRANCH  28  29
ENDBRANCH  27  28
ENDBRANCH  26  27
ENDBRANCH  13  26
TORSDOF 6
