REMARK  Name = ZINC40356442
REMARK  7 active torsions:
REMARK  status: ('A' for Active; 'I' for Inactive)
REMARK    1  A    between atoms: C_3  and  N_30
REMARK    2  A    between atoms: C_6  and  N_7
REMARK    3  A    between atoms: N_10  and  C_11
REMARK    4  A    between atoms: N_10  and  C_23
REMARK    5  A    between atoms: C_11  and  C_12
REMARK    6  A    between atoms: C_12  and  N_13
REMARK    7  A    between atoms: N_16  and  C_17
REMARK                            x       y       z     vdW  Elec       q    Type
REMARK                         _______ _______ _______ _____ _____    ______ ____
ROOT
ATOM      1  N   UNL     1      -0.009  -2.741  -0.077  0.00  0.00    -0.269 N 
ATOM      2  C   UNL     1      -1.183  -2.084   0.010  0.00  0.00    +0.311 C 
ATOM      3  O   UNL     1      -1.211  -0.873  -0.095  0.00  0.00    -0.252 OA
ATOM      4  N   UNL     1      -2.325  -2.769   0.214  0.00  0.00    -0.254 N 
ATOM      5  H   UNL     1       0.002  -3.709  -0.125  0.00  0.00    +0.156 HD
ENDROOT
BRANCH   4   6
ATOM      6  C   UNL     1      -3.553  -2.095   0.230  0.00  0.00    +0.038 A 
ATOM      7  C   UNL     1      -3.860  -1.235   1.276  0.00  0.00    +0.026 A 
ATOM      8  C   UNL     1      -5.071  -0.571   1.290  0.00  0.00    +0.040 A 
ATOM      9  C   UNL     1      -5.979  -0.763   0.261  0.00  0.00    +0.124 A 
ATOM     10  C   UNL     1      -5.674  -1.620  -0.783  0.00  0.00    +0.040 A 
ATOM     11  C   UNL     1      -4.462  -2.281  -0.803  0.00  0.00    +0.026 A 
ATOM     12  F   UNL     1      -7.163  -0.113   0.277  0.00  0.00    -0.205 F 
ENDBRANCH   4   6
BRANCH   1  18
ATOM     13  C   UNL     1       2.337  -2.570   0.471  0.00  0.00    +0.025 A 
ATOM     14  C   UNL     1       3.522  -1.862   0.448  0.00  0.00    +0.034 A 
ATOM     15  C   UNL     1       3.571  -0.611  -0.141  0.00  0.00    +0.126 A 
ATOM     16  C   UNL     1       2.434  -0.066  -0.708  0.00  0.00    +0.034 A 
ATOM     17  C   UNL     1       1.245  -0.769  -0.688  0.00  0.00    +0.025 A 
ATOM     18  C   UNL     1       1.193  -2.026  -0.098  0.00  0.00    +0.035 A 
BRANCH  15  19
ATOM     19  N   UNL     1       4.843   0.146  -0.162  0.00  0.00    +0.056 N 
ATOM     20  O   UNL     1       5.838  -0.330   0.334  0.00  0.00    -0.126 OA
ATOM     21  O   UNL     1       4.887   1.239  -0.676  0.00  0.00    -0.126 OA
ENDBRANCH  15  19
ENDBRANCH   1  18
BRANCH   4  22
ATOM     22  C   UNL     1      -2.283  -4.219   0.418  0.00  0.00    +0.134 C 
BRANCH  22  23
ATOM     23  C   UNL     1      -2.138  -4.519   1.911  0.00  0.00    +0.125 C 
BRANCH  23  24
ATOM     24  N   UNL     1      -2.096  -5.970   2.116  0.00  0.00    -0.298 N 
ATOM     25  C   UNL     1      -1.971  -6.471   3.361  0.00  0.00    +0.300 C 
ATOM     26  O   UNL     1      -1.893  -5.720   4.314  0.00  0.00    -0.253 OA
ATOM     27  N   UNL     1      -1.932  -7.805   3.549  0.00  0.00    -0.297 N 
ATOM     28  H   UNL     1      -2.158  -6.569   1.355  0.00  0.00    +0.150 HD
ATOM     29  H   UNL     1      -1.994  -8.404   2.788  0.00  0.00    +0.151 HD
BRANCH  27  30
ATOM     30  C   UNL     1      -1.796  -8.350   4.902  0.00  0.00    +0.074 C 
ATOM     31  C   UNL     1      -0.315  -8.401   5.285  0.00  0.00    +0.022 C 
ATOM     32  C   UNL     1      -0.173  -8.970   6.697  0.00  0.00    +0.002 C 
ATOM     33  C   UNL     1      -0.759 -10.383   6.739  0.00  0.00    +0.000 C 
ATOM     34  C   UNL     1      -2.240 -10.332   6.356  0.00  0.00    +0.002 C 
ATOM     35  C   UNL     1      -2.382  -9.763   4.943  0.00  0.00    +0.022 C 
ENDBRANCH  27  30
ENDBRANCH  23  24
ENDBRANCH  22  23
ENDBRANCH   4  22
TORSDOF 7
