REMARK  Name = ZINC20873153
REMARK  10 active torsions:
REMARK  status: ('A' for Active; 'I' for Inactive)
REMARK    1  A    between atoms: C_1  and  C_2
REMARK    2  A    between atoms: C_2  and  C_3
REMARK    3  A    between atoms: C_2  and  C_4
REMARK    4  A    between atoms: C_2  and  N_5
REMARK    5  A    between atoms: C_6  and  C_8
REMARK    6  A    between atoms: C_8  and  O_9
REMARK    7  A    between atoms: O_9  and  C_10
REMARK    8  A    between atoms: C_15  and  C_16
REMARK    9  A    between atoms: C_16  and  N_17
REMARK   10  A    between atoms: N_17  and  C_18
REMARK                            x       y       z     vdW  Elec       q    Type
REMARK                         _______ _______ _______ _____ _____    ______ ____
ROOT
ATOM      1  C   UNL     1       1.179   1.786   0.000  0.00  0.00    +0.123 A 
ATOM      2  C   UNL     1      -0.013   1.076   0.008  0.00  0.00    +0.047 A 
ATOM      3  C   UNL     1      -1.218   1.751   0.017  0.00  0.00    +0.019 A 
ATOM      4  C   UNL     1      -1.237   3.134   0.031  0.00  0.00    +0.018 A 
ATOM      5  C   UNL     1      -0.050   3.844   0.023  0.00  0.00    +0.020 A 
ATOM      6  C   UNL     1       1.158   3.173   0.008  0.00  0.00    -0.022 A 
ATOM      7 BR   UNL     1      -2.888   4.055   0.051  0.00  0.00    -0.050 Br
ENDROOT
BRANCH   1   8
ATOM      8  O   UNL     1       2.366   1.124  -0.014  0.00  0.00    -0.483 OA
BRANCH   8   9
ATOM      9  C   UNL     1       2.312  -0.304  -0.021  0.00  0.00    +0.324 C 
BRANCH   9  11
ATOM     10  N   UNL     1       3.909  -2.192  -0.045  0.00  0.00    -0.308 N 
ATOM     11  C   UNL     1       3.713  -0.859  -0.037  0.00  0.00    +0.251 C 
ATOM     12  O   UNL     1       4.664  -0.106  -0.042  0.00  0.00    -0.272 OA
ATOM     13  H   UNL     1       3.047  -2.875  -0.041  0.00  0.00    +0.149 HD
BRANCH  10  15
ATOM     14  C   UNL     1       6.023  -2.256   1.184  0.00  0.00    +0.031 C 
ATOM     15  C   UNL     1       5.271  -2.732  -0.061  0.00  0.00    +0.026 C 
ATOM     16  C   UNL     1       5.214  -4.261  -0.068  0.00  0.00    +0.031 C 
ATOM     17  C   UNL     1       6.000  -2.243  -1.315  0.00  0.00    +0.031 C 
ENDBRANCH  10  15
ENDBRANCH   9  11
ENDBRANCH   8   9
ENDBRANCH   1   8
BRANCH   6  18
ATOM     18  C   UNL     1       2.450   3.947  -0.001  0.00  0.00    -0.043 C 
BRANCH  18  19
ATOM     19  N   UNL     1       2.981   4.000  -1.370  0.00  0.00    +0.384 N 
ATOM     20  H   UNL     1       3.163   2.978  -1.732  0.00  0.00    -0.085 HD
ATOM     21  H   UNL     1       2.251   4.497  -2.026  0.00  0.00    -0.085 HD
BRANCH  19  22
ATOM     22  C   UNL     1       4.243   4.749  -1.417  0.00  0.00    -0.065 C 
ATOM     23  C   UNL     1       3.945   6.244  -1.545  0.00  0.00    -0.024 C 
ATOM     24  C   UNL     1       5.261   7.024  -1.594  0.00  0.00    +0.005 C 
ATOM     25  C   UNL     1       6.082   6.563  -2.799  0.00  0.00    -0.010 C 
ATOM     26  C   UNL     1       5.291   6.817  -4.084  0.00  0.00    +0.007 C 
ATOM     27  C   UNL     1       3.975   6.037  -4.035  0.00  0.00    -0.010 C 
ATOM     28  C   UNL     1       3.154   6.498  -2.829  0.00  0.00    +0.005 C 
ATOM     29  C   UNL     1       4.274   4.542  -3.906  0.00  0.00    +0.005 C 
ATOM     30  C   UNL     1       5.065   4.288  -2.622  0.00  0.00    -0.024 C 
ATOM     31  C   UNL     1       6.381   5.068  -2.671  0.00  0.00    +0.005 C 
ENDBRANCH  19  22
ENDBRANCH  18  19
ENDBRANCH   6  18
TORSDOF 7
