REMARK  Name = ZINC36365352
REMARK  9 active torsions:
REMARK  status: ('A' for Active; 'I' for Inactive)
REMARK    1  A    between atoms: C_1  and  C_2
REMARK    2  A    between atoms: C_3  and  C_28
REMARK    3  A    between atoms: C_8  and  C_10
REMARK    4  A    between atoms: C_10  and  C_12
REMARK    5  A    between atoms: C_10  and  N_16
REMARK    6  A    between atoms: C_12  and  C_13
REMARK    7  A    between atoms: C_13  and  C_14
REMARK    8  A    between atoms: C_13  and  C_15
REMARK    9  A    between atoms: N_19  and  C_20
REMARK                            x       y       z     vdW  Elec       q    Type
REMARK                         _______ _______ _______ _____ _____    ______ ____
ROOT
ATOM      1  C   UNL     1       0.065  -3.343   4.664  0.00  0.00    +0.161 C 
ENDROOT
BRANCH   1   9
ATOM      2  C   UNL     1       1.117   0.979  -0.343  0.00  0.00    +0.066 C 
ATOM      3  C   UNL     1       1.302  -0.501  -0.125  0.00  0.00    +0.050 A 
ATOM      4  C   UNL     1       1.782  -1.306  -1.105  0.00  0.00    +0.011 A 
ATOM      5  S   UNL     1       1.772  -2.885  -0.272  0.00  0.00    -0.057 S 
ATOM      6  C   UNL     1       1.167  -2.363   1.209  0.00  0.00    +0.165 A 
ATOM      7  N   UNL     1       1.008  -1.070   1.029  0.00  0.00    -0.230 NA
ATOM      8  N   UNL     1       0.905  -3.115   2.349  0.00  0.00    -0.263 N 
ATOM      9  C   UNL     1       0.418  -2.517   3.454  0.00  0.00    +0.239 C 
ATOM     10  O   UNL     1       0.264  -1.314   3.474  0.00  0.00    -0.273 OA
ATOM     11  C   UNL     1       2.207  -0.963  -2.509  0.00  0.00    +0.053 C 
ATOM     12  H   UNL     1       1.073  -4.071   2.348  0.00  0.00    +0.157 HD
ENDBRANCH   1   9
BRANCH   1  13
ATOM     13  N   UNL     1      -0.160  -2.458   5.810  0.00  0.00    -0.288 N 
ATOM     14  C   UNL     1      -0.058  -2.941   7.064  0.00  0.00    +0.300 C 
ATOM     15  O   UNL     1       0.308  -4.085   7.247  0.00  0.00    -0.253 OA
ATOM     16  N   UNL     1      -0.362  -2.154   8.115  0.00  0.00    -0.295 N 
ATOM     17  H   UNL     1      -0.383  -1.525   5.666  0.00  0.00    +0.151 HD
ATOM     18  H   UNL     1      -0.654  -1.240   7.970  0.00  0.00    +0.151 HD
BRANCH  16  19
ATOM     19  C   UNL     1      -0.251  -2.678   9.479  0.00  0.00    +0.097 C 
ATOM     20  C   UNL     1      -1.555  -3.393   9.868  0.00  0.00    +0.046 C 
ATOM     21  C   UNL     1      -1.574  -3.666  11.392  0.00  0.00    +0.168 C 
ATOM     22  S   UNL     1      -0.528  -2.307  12.057  0.00  0.00    -0.029 S 
ATOM     23  O   UNL     1      -1.349  -1.408  12.790  0.00  0.00    -0.174 OA
ATOM     24  O   UNL     1       0.620  -2.869  12.678  0.00  0.00    -0.174 OA
ATOM     25  C   UNL     1      -0.025  -1.506  10.476  0.00  0.00    +0.188 C 
ENDBRANCH  16  19
ENDBRANCH   1  13
BRANCH   1  26
ATOM     26  C   UNL     1      -1.207  -4.144   4.381  0.00  0.00    +0.034 C 
BRANCH  26  27
ATOM     27  C   UNL     1      -0.956  -5.106   3.217  0.00  0.00    -0.015 C 
ATOM     28  C   UNL     1       0.070  -6.160   3.639  0.00  0.00    +0.007 C 
ATOM     29  C   UNL     1      -2.266  -5.794   2.832  0.00  0.00    +0.007 C 
ENDBRANCH  26  27
ENDBRANCH   1  26
TORSDOF 5
