REMARK  Name = ZINC02747191
REMARK  7 active torsions:
REMARK  status: ('A' for Active; 'I' for Inactive)
REMARK    1  A    between atoms: C_1  and  C_2
REMARK    2  A    between atoms: C_2  and  S_3
REMARK    3  A    between atoms: S_3  and  C_4
REMARK    4  A    between atoms: C_17  and  C_20
REMARK    5  A    between atoms: C_22  and  O_28
REMARK    6  A    between atoms: C_23  and  O_27
REMARK    7  A    between atoms: O_28  and  C_29
REMARK                            x       y       z     vdW  Elec       q    Type
REMARK                         _______ _______ _______ _____ _____    ______ ____
ROOT
ATOM      1  C   UNL     1      -4.590  -2.893  -2.104  0.00  0.00    +0.212 A 
ATOM      2  N   UNL     1      -3.317  -2.545  -1.936  0.00  0.00    -0.184 NA
ATOM      3  C   UNL     1      -3.032  -1.327  -1.509  0.00  0.00    +0.248 A 
ATOM      4  C   UNL     1      -4.094  -0.436  -1.238  0.00  0.00    +0.156 A 
ATOM      5  N   UNL     1      -5.339  -0.844  -1.429  0.00  0.00    -0.141 NA
ATOM      6  N   UNL     1      -5.573  -2.039  -1.850  0.00  0.00    -0.122 NA
ATOM      7  C   UNL     1      -3.797   0.925  -0.744  0.00  0.00    +0.028 A 
ATOM      8  C   UNL     1      -4.395   2.048  -1.301  0.00  0.00    +0.012 A 
ATOM      9  C   UNL     1      -4.100   3.302  -0.802  0.00  0.00    +0.001 A 
ATOM     10  C   UNL     1      -3.213   3.446   0.250  0.00  0.00    +0.002 A 
ATOM     11  C   UNL     1      -2.606   2.337   0.811  0.00  0.00    +0.024 A 
ATOM     12  C   UNL     1      -2.886   1.076   0.318  0.00  0.00    +0.039 A 
ATOM     13  N   UNL     1      -2.264  -0.062   0.836  0.00  0.00    -0.305 N 
ATOM     14  C   UNL     1      -1.294  -0.773   0.010  0.00  0.00    +0.294 C 
ATOM     15  O   UNL     1      -1.751  -0.924  -1.329  0.00  0.00    -0.449 OA
ATOM     16  H   UNL     1      -2.475  -0.374   1.730  0.00  0.00    +0.150 HD
ENDROOT
BRANCH  14  17
ATOM     17  C   UNL     1       0.002  -0.004   0.002  0.00  0.00    +0.016 A 
ATOM     18  C   UNL     1       0.762   0.055  -1.151  0.00  0.00    +0.058 A 
ATOM     19  C   UNL     1       1.954   0.762  -1.161  0.00  0.00    +0.163 A 
ATOM     20  C   UNL     1       2.383   1.412  -0.008  0.00  0.00    +0.177 A 
ATOM     21  C   UNL     1       1.617   1.349   1.145  0.00  0.00    +0.086 A 
ATOM     22  C   UNL     1       0.428   0.641   1.148  0.00  0.00    +0.032 A 
ATOM     23 CL   UNL     1       2.148   2.158   2.587  0.00  0.00    -0.080 Cl
BRANCH  20  24
ATOM     24  O   UNL     1       3.552   2.107  -0.012  0.00  0.00    -0.502 OA
ATOM     25  H   UNL     1       3.456   3.037  -0.262  0.00  0.00    +0.292 HD
ENDBRANCH  20  24
BRANCH  19  26
ATOM     26  O   UNL     1       2.702   0.821  -2.295  0.00  0.00    -0.491 OA
ATOM     27  C   UNL     1       2.200   0.130  -3.440  0.00  0.00    +0.277 C 
ENDBRANCH  19  26
ENDBRANCH  14  17
BRANCH   1  28
ATOM     28  S   UNL     1      -4.977  -4.515  -2.673  0.00  0.00    -0.085 S 
BRANCH  28  30
ATOM     29  C   UNL     1      -7.361  -5.747  -3.187  0.00  0.00    +0.016 C 
ATOM     30  C   UNL     1      -6.784  -4.413  -2.708  0.00  0.00    +0.074 C 
ENDBRANCH  28  30
ENDBRANCH   1  28
TORSDOF 5
