REMARK  Name = ZINC12881630
REMARK  7 active torsions:
REMARK  status: ('A' for Active; 'I' for Inactive)
REMARK    1  A    between atoms: C_1  and  C_2
REMARK    2  A    between atoms: C_7  and  C_36
REMARK    3  A    between atoms: C_20  and  C_22
REMARK    4  A    between atoms: C_22  and  N_69
REMARK    5  A    between atoms: C_25  and  C_28
REMARK    6  A    between atoms: C_25  and  O_35
REMARK    7  A    between atoms: C_28  and  C_29
REMARK                            x       y       z     vdW  Elec       q    Type
REMARK                         _______ _______ _______ _____ _____    ______ ____
ROOT
ATOM      1  C   UNL     1      -0.589   3.345   9.808  0.00  0.00    +0.010 C 
ATOM      2  C   UNL     1      -1.345   4.672   9.721  0.00  0.00    +0.021 C 
ATOM      3  C   UNL     1      -1.130   5.446  10.998  0.00  0.00    +0.006 C 
ATOM      4  C   UNL     1       0.127   6.309  10.901  0.00  0.00    +0.001 C 
ATOM      5  C   UNL     1      -0.140   7.381   9.845  0.00  0.00    +0.010 C 
ATOM      6  C   UNL     1      -0.308   6.755   8.481  0.00  0.00    +0.003 C 
ATOM      7  C   UNL     1      -0.922   5.378   8.438  0.00  0.00    +0.104 C 
ATOM      8  C   UNL     1      -1.673   4.941   7.178  0.00  0.00    +0.159 C 
ATOM      9  O   UNL     1      -0.348   4.501   7.432  0.00  0.00    -0.363 OA
ATOM     10  C   UNL     1      -1.957   5.907   6.048  0.00  0.00    +0.073 C 
ATOM     11  C   UNL     1      -1.116   7.183   6.108  0.00  0.00    +0.183 C 
ATOM     12  C   UNL     1      -0.924   7.724   7.502  0.00  0.00    +0.054 C 
ATOM     13  O   UNL     1       0.141   6.835   5.465  0.00  0.00    -0.461 OA
ATOM     14  C   UNL     1      -0.109   5.954   4.475  0.00  0.00    +0.309 C 
ATOM     15  O   UNL     1       0.613   5.742   3.530  0.00  0.00    -0.251 OA
ATOM     16  C   UNL     1      -1.437   5.269   4.730  0.00  0.00    +0.090 C 
ATOM     17  C   UNL     1       1.121   6.558   7.971  0.00  0.00    +0.014 C 
ENDROOT
BRANCH  16  18
ATOM     18  C   UNL     1      -1.236   3.763   4.907  0.00  0.00    -0.064 C 
BRANCH  18  24
ATOM     19  C   UNL     1      -0.730   1.707   3.735  0.00  0.00    -0.076 C 
ATOM     20  C   UNL     1      -0.185   1.135   2.424  0.00  0.00    +0.016 C 
ATOM     21  C   UNL     1      -1.133   1.503   1.279  0.00  0.00    +0.067 C 
ATOM     22  C   UNL     1      -1.276   3.026   1.215  0.00  0.00    +0.016 C 
ATOM     23  C   UNL     1      -1.789   3.543   2.561  0.00  0.00    -0.076 C 
ATOM     24  N   UNL     1      -0.820   3.177   3.616  0.00  0.00    +0.380 N 
ATOM     25  H   UNL     1       0.103   3.549   3.364  0.00  0.00    -0.082 HD
BRANCH  21  26
ATOM     26  O   UNL     1      -2.413   0.911   1.511  0.00  0.00    -0.388 OA
ATOM     27  H   UNL     1      -3.066   1.105   0.824  0.00  0.00    +0.210 HD
ENDBRANCH  21  26
BRANCH  21  28
ATOM     28  C   UNL     1      -0.563   0.987  -0.043  0.00  0.00    +0.069 C 
BRANCH  28  29
ATOM     29  C   UNL     1      -1.433   1.454  -1.182  0.00  0.00    -0.045 A 
ATOM     30  C   UNL     1      -2.492   0.675  -1.607  0.00  0.00    +0.004 A 
ATOM     31  C   UNL     1      -3.292   1.107  -2.649  0.00  0.00    +0.000 A 
ATOM     32  C   UNL     1      -3.027   2.312  -3.271  0.00  0.00    +0.000 A 
ATOM     33  C   UNL     1      -1.964   3.089  -2.849  0.00  0.00    +0.000 A 
ATOM     34  C   UNL     1      -1.167   2.660  -1.804  0.00  0.00    +0.004 A 
ENDBRANCH  28  29
ENDBRANCH  21  28
ENDBRANCH  18  24
ENDBRANCH  16  18
TORSDOF 5
