REMARK  Name = ZINC03913392
REMARK  7 active torsions:
REMARK  status: ('A' for Active; 'I' for Inactive)
REMARK    1  A    between atoms: C_1  and  C_2
REMARK    2  A    between atoms: C_5  and  C_8
REMARK    3  A    between atoms: C_15  and  N_29
REMARK    4  A    between atoms: C_16  and  C_27
REMARK    5  A    between atoms: C_17  and  C_19
REMARK    6  A    between atoms: C_22  and  O_25
REMARK    7  A    between atoms: O_25  and  C_26
REMARK                            x       y       z     vdW  Elec       q    Type
REMARK                         _______ _______ _______ _____ _____    ______ ____
ROOT
ATOM      1  C   UNL     1       0.061  -4.256  -0.021  0.00  0.00    +0.100 A 
ATOM      2  C   UNL     1       0.720  -5.075   0.900  0.00  0.00    +0.054 A 
ATOM      3  C   UNL     1       0.494  -6.374   0.548  0.00  0.00    +0.223 A 
ATOM      4  N   UNL     1      -0.279  -6.372  -0.557  0.00  0.00    -0.246 N 
ATOM      5  H   UNL     1      -0.599  -7.155  -1.031  0.00  0.00    +0.192 HD
ATOM      6  N   UNL     1      -0.546  -5.036  -0.896  0.00  0.00    -0.171 NA
ATOM      7  O   UNL     1       0.999  -7.421   1.249  0.00  0.00    -0.423 OA
ATOM      8  C   UNL     1       1.510  -7.166   2.470  0.00  0.00    +0.200 C 
ATOM      9  C   UNL     1       1.788  -5.925   2.926  0.00  0.00    +0.098 C 
ATOM     10  C   UNL     1       1.553  -4.688   2.095  0.00  0.00    +0.102 C 
ENDROOT
BRANCH   1  15
ATOM     11  C   UNL     1      -0.018   1.503   0.010  0.00  0.00    +0.044 C 
ATOM     12  C   UNL     1       0.002  -0.004   0.002  0.00  0.00    -0.050 A 
ATOM     13  C   UNL     1       0.006  -0.686  -1.201  0.00  0.00    +0.004 A 
ATOM     14  C   UNL     1       0.025  -2.067  -1.214  0.00  0.00    +0.010 A 
ATOM     15  C   UNL     1       0.041  -2.772  -0.013  0.00  0.00    +0.003 A 
ATOM     16  C   UNL     1       0.037  -2.080   1.196  0.00  0.00    +0.010 A 
ATOM     17  C   UNL     1       0.023  -0.700   1.198  0.00  0.00    +0.004 A 
ENDBRANCH   1  15
BRANCH  10  18
ATOM     18  C   UNL     1       2.873  -4.126   1.633  0.00  0.00    -0.034 A 
ATOM     19  C   UNL     1       3.724  -4.903   0.869  0.00  0.00    +0.008 A 
ATOM     20  C   UNL     1       4.935  -4.391   0.445  0.00  0.00    +0.046 A 
ATOM     21  C   UNL     1       5.297  -3.096   0.787  0.00  0.00    +0.120 A 
ATOM     22  C   UNL     1       4.442  -2.319   1.555  0.00  0.00    +0.046 A 
ATOM     23  C   UNL     1       3.230  -2.834   1.971  0.00  0.00    +0.008 A 
BRANCH  21  24
ATOM     24  O   UNL     1       6.488  -2.590   0.372  0.00  0.00    -0.495 OA
ATOM     25  C   UNL     1       6.795  -1.250   0.762  0.00  0.00    +0.277 C 
ENDBRANCH  21  24
ENDBRANCH  10  18
BRANCH   8  26
ATOM     26  N   UNL     1       1.763  -8.231   3.300  0.00  0.00    -0.328 N 
ATOM     27  H   UNL     1       1.573  -9.134   3.001  0.00  0.00    +0.145 HD
ATOM     28  H   UNL     1       2.130  -8.079   4.185  0.00  0.00    +0.145 HD
ENDBRANCH   8  26
BRANCH   9  29
ATOM     29  C   UNL     1       2.325  -5.777   4.245  0.00  0.00    +0.101 C 
ATOM     30  N   UNL     1       2.750  -5.661   5.292  0.00  0.00    -0.191 NA
ENDBRANCH   9  29
TORSDOF 5
