REMARK  Name = ZINC08722371
REMARK  7 active torsions:
REMARK  status: ('A' for Active; 'I' for Inactive)
REMARK    1  A    between atoms: C_1  and  C_2
REMARK    2  A    between atoms: C_2  and  O_3
REMARK    3  A    between atoms: O_3  and  C_4
REMARK    4  A    between atoms: C_13  and  C_14
REMARK    5  A    between atoms: C_26  and  O_28
REMARK    6  A    between atoms: O_28  and  C_29
REMARK    7  A    between atoms: C_29  and  C_30
REMARK                            x       y       z     vdW  Elec       q    Type
REMARK                         _______ _______ _______ _____ _____    ______ ____
ROOT
ATOM      1  C   UNL     1       0.717  -5.280  -4.525  0.00  0.00    +0.194 C 
ATOM      2  N   UNL     1       1.722  -5.131  -3.456  0.00  0.00    -0.316 N 
ATOM      3  C   UNL     1       1.564  -4.064  -2.611  0.00  0.00    +0.080 A 
ATOM      4  C   UNL     1       0.323  -3.447  -2.387  0.00  0.00    +0.068 A 
ATOM      5  C   UNL     1       0.330  -2.320  -1.468  0.00  0.00    -0.020 A 
ATOM      6  C   UNL     1       1.533  -2.011  -0.935  0.00  0.00    +0.013 A 
ATOM      7  S   UNL     1       2.663  -3.185  -1.636  0.00  0.00    -0.076 S 
ATOM      8  C   UNL     1       1.831  -0.913   0.033  0.00  0.00    +0.153 C 
ATOM      9  N   UNL     1       0.618  -0.078   0.141  0.00  0.00    -0.262 N 
ATOM     10  C   UNL     1      -0.678  -0.771   0.202  0.00  0.00    +0.116 C 
ATOM     11  C   UNL     1      -0.919  -1.523  -1.109  0.00  0.00    +0.056 C 
ATOM     12  C   UNL     1       0.695   1.267   0.177  0.00  0.00    +0.403 C 
ATOM     13  O   UNL     1      -0.320   1.931   0.256  0.00  0.00    -0.226 OA
ATOM     14  C   UNL     1      -0.853  -4.003  -3.096  0.00  0.00    +0.248 C 
ATOM     15  O   UNL     1      -1.984  -3.641  -2.829  0.00  0.00    -0.270 OA
ATOM     16  N   UNL     1      -0.618  -4.927  -4.052  0.00  0.00    -0.289 N 
ATOM     17  H   UNL     1       2.457  -5.755  -3.357  0.00  0.00    +0.149 HD
ATOM     18  H   UNL     1      -1.378  -5.382  -4.446  0.00  0.00    +0.151 HD
ENDROOT
BRANCH   1  28
ATOM     19  C   UNL     1       0.142  -3.576  -6.249  0.00  0.00    +0.128 A 
ATOM     20  C   UNL     1       0.469  -2.733  -7.316  0.00  0.00    +0.046 A 
ATOM     21  C   UNL     1       1.732  -2.700  -7.819  0.00  0.00    +0.012 A 
ATOM     22  C   UNL     1       2.727  -3.519  -7.258  0.00  0.00    -0.017 A 
ATOM     23  C   UNL     1       4.042  -3.511  -7.753  0.00  0.00    +0.008 A 
ATOM     24  C   UNL     1       4.981  -4.317  -7.186  0.00  0.00    +0.001 A 
ATOM     25  C   UNL     1       4.659  -5.154  -6.119  0.00  0.00    +0.001 A 
ATOM     26  C   UNL     1       3.396  -5.190  -5.614  0.00  0.00    +0.009 A 
ATOM     27  C   UNL     1       2.399  -4.371  -6.173  0.00  0.00    -0.008 A 
ATOM     28  C   UNL     1       1.085  -4.381  -5.677  0.00  0.00    +0.040 A 
BRANCH  19  29
ATOM     29  O   UNL     1      -1.131  -3.591  -5.772  0.00  0.00    -0.492 OA
BRANCH  29  31
ATOM     30  C   UNL     1      -3.441  -2.881  -5.743  0.00  0.00    +0.048 C 
ATOM     31  C   UNL     1      -2.073  -2.728  -6.411  0.00  0.00    +0.225 C 
ENDBRANCH  29  31
ENDBRANCH  19  29
ENDBRANCH   1  28
BRANCH  12  32
ATOM     32  O   UNL     1       1.895   1.874   0.120  0.00  0.00    -0.451 OA
BRANCH  32  33
ATOM     33  C   UNL     1       1.902   3.326   0.163  0.00  0.00    +0.230 C 
ATOM     34  C   UNL     1       3.344   3.831   0.088  0.00  0.00    +0.048 C 
ENDBRANCH  32  33
ENDBRANCH  12  32
TORSDOF 5
