REMARK  Name = ZINC17701903
REMARK  6 active torsions:
REMARK  status: ('A' for Active; 'I' for Inactive)
REMARK    1  A    between atoms: C_1  and  C_2
REMARK    2  A    between atoms: C_2  and  C_4
REMARK    3  A    between atoms: C_2  and  N_9
REMARK    4  A    between atoms: C_10  and  C_12
REMARK    5  A    between atoms: C_12  and  C_13
REMARK    6  A    between atoms: C_13  and  C_14
REMARK                            x       y       z     vdW  Elec       q    Type
REMARK                         _______ _______ _______ _____ _____    ______ ____
ROOT
ATOM      1  C   UNL     1       1.134   2.064   0.002  0.00  0.00    +0.111 A 
ATOM      2  N   UNL     1      -0.016   1.342   0.009  0.00  0.00    -0.310 N 
ATOM      3  H   UNL     1      -0.868   1.805   0.016  0.00  0.00    +0.170 HD
ATOM      4  C   UNL     1       0.002  -0.004   0.002  0.00  0.00    +0.260 A 
ATOM      5  O   UNL     1      -1.039  -0.638   0.008  0.00  0.00    -0.267 OA
ATOM      6  C   UNL     1       1.266  -0.679  -0.014  0.00  0.00    +0.075 A 
ATOM      7  C   UNL     1       1.527  -2.118  -0.024  0.00  0.00    -0.023 A 
ATOM      8  C   UNL     1       2.820  -2.506  -0.038  0.00  0.00    -0.004 A 
ATOM      9  S   UNL     1       3.752  -0.998  -0.039  0.00  0.00    -0.073 S 
ATOM     10  C   UNL     1       2.398   0.151  -0.020  0.00  0.00    +0.116 A 
ATOM     11  N   UNL     1       2.301   1.477  -0.012  0.00  0.00    -0.227 NA
ATOM     12  C   UNL     1       3.347  -3.908  -0.049  0.00  0.00    +0.043 C 
ATOM     13  C   UNL     1       2.203  -4.859   0.333  0.00  0.00    +0.005 C 
ATOM     14  C   UNL     1       0.965  -4.493  -0.491  0.00  0.00    +0.005 C 
ATOM     15  C   UNL     1       0.404  -3.151  -0.019  0.00  0.00    +0.037 C 
ENDROOT
BRANCH   1  16
ATOM     16  C   UNL     1       1.062   3.569   0.011  0.00  0.00    +0.083 C 
BRANCH  16  17
ATOM     17  C   UNL     1       2.479   4.147   0.001  0.00  0.00    +0.103 C 
BRANCH  17  19
ATOM     18  N   UNL     1       3.542   6.381   0.003  0.00  0.00    -0.308 N 
ATOM     19  C   UNL     1       2.408   5.652   0.010  0.00  0.00    +0.214 C 
ATOM     20  O   UNL     1       1.330   6.208   0.023  0.00  0.00    -0.276 OA
ATOM     21  H   UNL     1       4.404   5.936  -0.008  0.00  0.00    +0.149 HD
BRANCH  18  23
ATOM     22  C   UNL     1       3.337   8.340   1.453  0.00  0.00    +0.033 C 
ATOM     23  C   UNL     1       3.472   7.844   0.011  0.00  0.00    +0.107 C 
BRANCH  23  24
ATOM     24  C   UNL     1       4.729   8.410  -0.598  0.00  0.00    +0.010 A 
ATOM     25  C   UNL     1       4.871   9.468  -1.433  0.00  0.00    +0.013 A 
ATOM     26  C   UNL     1       6.136   9.811  -1.871  0.00  0.00    +0.008 A 
ATOM     27  C   UNL     1       7.198   9.080  -1.452  0.00  0.00    +0.045 A 
ATOM     28  S   UNL     1       6.418   7.866  -0.401  0.00  0.00    -0.100 S 
ENDBRANCH  23  24
ENDBRANCH  18  23
ENDBRANCH  17  19
ENDBRANCH  16  17
ENDBRANCH   1  16
TORSDOF 5
