REMARK  Name = ZINC05607138
REMARK  7 active torsions:
REMARK  status: ('A' for Active; 'I' for Inactive)
REMARK    1  A    between atoms: C_1  and  C_2
REMARK    2  A    between atoms: C_5  and  N_9
REMARK    3  A    between atoms: C_6  and  C_8
REMARK    4  A    between atoms: C_10  and  C_12
REMARK    5  A    between atoms: C_12  and  C_14
REMARK    6  A    between atoms: C_12  and  N_15
REMARK    7  A    between atoms: C_26  and  C_30
REMARK                            x       y       z     vdW  Elec       q    Type
REMARK                         _______ _______ _______ _____ _____    ______ ____
ROOT
ATOM      1  N   UNL     1       3.599   1.728   0.091  0.00  0.00    -0.199 N 
ATOM      2  C   UNL     1       4.446   1.756   1.138  0.00  0.00    +0.279 A 
ATOM      3  O   UNL     1       4.270   1.028   2.099  0.00  0.00    -0.265 OA
ATOM      4  C   UNL     1       5.560   2.660   1.101  0.00  0.00    +0.079 A 
ATOM      5  C   UNL     1       6.596   2.858   2.112  0.00  0.00    -0.023 A 
ATOM      6  C   UNL     1       7.548   3.778   1.843  0.00  0.00    -0.004 A 
ATOM      7  S   UNL     1       7.124   4.423   0.247  0.00  0.00    -0.071 S 
ATOM      8  C   UNL     1       5.668   3.453  -0.053  0.00  0.00    +0.138 A 
ATOM      9  N   UNL     1       4.796   3.377  -1.054  0.00  0.00    -0.123 NA
ATOM     10  N   UNL     1       3.802   2.558  -1.016  0.00  0.00    -0.061 NA
ATOM     11  C   UNL     1       8.708   4.163   2.709  0.00  0.00    +0.046 C 
ATOM     12  C   UNL     1       8.876   3.092   3.797  0.00  0.00    -0.009 C 
ATOM     13  C   UNL     1       7.507   2.810   4.423  0.00  0.00    +0.008 C 
ATOM     14  C   UNL     1       6.619   2.072   3.420  0.00  0.00    +0.037 C 
ATOM     15  C   UNL     1       9.837   3.601   4.873  0.00  0.00    +0.008 C 
ENDROOT
BRANCH   1  16
ATOM     16  C   UNL     1       2.456   0.812   0.110  0.00  0.00    +0.195 C 
ATOM     17  C   UNL     1       2.554  -0.151  -1.075  0.00  0.00    +0.043 C 
BRANCH  16  19
ATOM     18  N   UNL     1      -0.011   0.966   0.007  0.00  0.00    -0.284 N 
ATOM     19  C   UNL     1       1.177   1.603   0.009  0.00  0.00    +0.242 C 
ATOM     20  O   UNL     1       1.216   2.812  -0.070  0.00  0.00    -0.273 OA
ATOM     21  H   UNL     1      -0.042  -0.004  -0.012  0.00  0.00    +0.155 HD
BRANCH  18  26
ATOM     22  C   UNL     1      -4.832   3.956   0.088  0.00  0.00    +0.044 C 
ATOM     23  C   UNL     1      -3.551   3.162   0.067  0.00  0.00    -0.050 A 
ATOM     24  C   UNL     1      -2.388   3.714   0.572  0.00  0.00    +0.005 A 
ATOM     25  C   UNL     1      -1.213   2.989   0.553  0.00  0.00    +0.024 A 
ATOM     26  C   UNL     1      -1.200   1.703   0.028  0.00  0.00    +0.036 A 
ATOM     27  C   UNL     1      -2.369   1.153  -0.482  0.00  0.00    -0.029 A 
ATOM     28  C   UNL     1      -3.542   1.882  -0.457  0.00  0.00    +0.008 A 
ATOM     29  C   UNL     1      -2.358  -0.239  -1.058  0.00  0.00    +0.045 C 
ENDBRANCH  18  26
ENDBRANCH  16  19
ENDBRANCH   1  16
TORSDOF 3
