REMARK  Name = ZINC08635597
REMARK  11 active torsions:
REMARK  status: ('A' for Active; 'I' for Inactive)
REMARK    1  A    between atoms: C_1  and  C_2
REMARK    2  A    between atoms: C_7  and  C_8
REMARK    3  A    between atoms: C_7  and  N_68
REMARK    4  A    between atoms: C_16  and  C_18
REMARK    5  A    between atoms: C_18  and  N_19
REMARK    6  A    between atoms: N_19  and  C_20
REMARK    7  A    between atoms: C_20  and  N_22
REMARK    8  A    between atoms: N_22  and  C_23
REMARK    9  A    between atoms: C_26  and  N_29
REMARK   10  A    between atoms: N_29  and  C_30
REMARK   11  A    between atoms: N_29  and  C_31
REMARK                            x       y       z     vdW  Elec       q    Type
REMARK                         _______ _______ _______ _____ _____    ______ ____
ROOT
ATOM      1  C   UNL     1      -0.335   3.015   0.716  0.00  0.00    -0.041 C 
ATOM      2  C   UNL     1       1.099   3.478   0.442  0.00  0.00    -0.076 C 
ATOM      3  C   UNL     1       1.765   2.938   2.708  0.00  0.00    -0.078 C 
ATOM      4  C   UNL     1       0.351   2.459   3.046  0.00  0.00    -0.015 C 
ATOM      5  C   UNL     1      -0.655   3.247   2.198  0.00  0.00    -0.015 C 
ATOM      6  C   UNL     1      -0.490   4.741   2.506  0.00  0.00    -0.010 C 
ATOM      7  C   UNL     1       0.948   5.157   2.183  0.00  0.00    -0.051 C 
ATOM      8  N   UNL     1       1.718   4.000   1.679  0.00  0.00    +0.383 N 
ATOM      9  H   UNL     1       2.677   4.303   1.470  0.00  0.00    -0.081 HD
ENDROOT
BRANCH   1  10
ATOM     10  C   UNL     1      -1.308   3.814  -0.153  0.00  0.00    -0.077 C 
BRANCH  10  17
ATOM     11  C   UNL     1      -1.296   2.175  -5.629  0.00  0.00    +0.007 C 
ATOM     12  C   UNL     1      -1.710   2.427  -4.178  0.00  0.00    -0.018 C 
ATOM     13  C   UNL     1      -1.698   3.932  -3.897  0.00  0.00    -0.016 C 
ATOM     14  C   UNL     1      -2.053   4.175  -2.428  0.00  0.00    -0.079 C 
ATOM     15  C   UNL     1      -1.107   2.038  -1.786  0.00  0.00    -0.079 C 
ATOM     16  C   UNL     1      -0.724   1.732  -3.236  0.00  0.00    -0.016 C 
ATOM     17  N   UNL     1      -1.052   3.501  -1.574  0.00  0.00    +0.380 N 
ATOM     18  H   UNL     1      -0.116   3.839  -1.827  0.00  0.00    -0.082 HD
ENDBRANCH  10  17
ENDBRANCH   1  10
BRANCH   7  19
ATOM     19  C   UNL     1       0.935   6.249   1.112  0.00  0.00    +0.088 C 
BRANCH  19  20
ATOM     20  N   UNL     1       2.311   6.560   0.715  0.00  0.00    -0.328 N 
ATOM     21  H   UNL     1       3.052   6.090   1.127  0.00  0.00    +0.148 HD
BRANCH  20  22
ATOM     22  C   UNL     1       2.546   7.500  -0.222  0.00  0.00    +0.134 C 
ATOM     23  S   UNL     1       1.237   8.330  -0.949  0.00  0.00    -0.019 S 
BRANCH  22  24
ATOM     24  N   UNL     1       3.811   7.786  -0.587  0.00  0.00    -0.297 N 
ATOM     25  H   UNL     1       4.548   7.260  -0.237  0.00  0.00    +0.154 HD
BRANCH  24  26
ATOM     26  C   UNL     1       4.063   8.842  -1.473  0.00  0.00    +0.033 A 
ATOM     27  C   UNL     1       5.036   8.707  -2.455  0.00  0.00    +0.025 A 
ATOM     28  C   UNL     1       5.280   9.746  -3.331  0.00  0.00    +0.025 A 
ATOM     29  C   UNL     1       4.561  10.929  -3.223  0.00  0.00    +0.029 A 
ATOM     30  C   UNL     1       3.593  11.066  -2.238  0.00  0.00    +0.025 A 
ATOM     31  C   UNL     1       3.344  10.025  -1.365  0.00  0.00    +0.025 A 
BRANCH  29  32
ATOM     32  N   UNL     1       4.814  11.984  -4.107  0.00  0.00    -0.336 N 
ATOM     33  C   UNL     1       4.055  13.232  -3.993  0.00  0.00    +0.129 C 
ATOM     34  C   UNL     1       5.835  11.840  -5.147  0.00  0.00    +0.129 C 
ENDBRANCH  29  32
ENDBRANCH  24  26
ENDBRANCH  22  24
ENDBRANCH  20  22
ENDBRANCH  19  20
ENDBRANCH   7  19
TORSDOF 8
