REMARK  Name = ZINC67065741
REMARK  7 active torsions:
REMARK  status: ('A' for Active; 'I' for Inactive)
REMARK    1  A    between atoms: C_1  and  C_2
REMARK    2  A    between atoms: C_2  and  C_4
REMARK    3  A    between atoms: C_2  and  N_14
REMARK    4  A    between atoms: N_17  and  N_18
REMARK    5  A    between atoms: C_19  and  C_21
REMARK    6  A    between atoms: C_21  and  C_22
REMARK    7  A    between atoms: C_22  and  C_23
REMARK                            x       y       z     vdW  Elec       q    Type
REMARK                         _______ _______ _______ _____ _____    ______ ____
ROOT
ATOM      1  N   UNL     1       0.711  -0.489   1.189  0.00  0.00    -0.292 N 
ATOM      2  C   UNL     1       0.051  -0.633   2.355  0.00  0.00    +0.316 C 
ATOM      3  O   UNL     1      -1.132  -0.361   2.423  0.00  0.00    -0.251 OA
ATOM      4  N   UNL     1       0.703  -1.080   3.447  0.00  0.00    -0.218 N 
ATOM      5  H   UNL     1       1.654  -0.707   1.135  0.00  0.00    +0.151 HD
ATOM      6  H   UNL     1       0.229  -1.184   4.287  0.00  0.00    +0.174 HD
ENDROOT
BRANCH   4   7
ATOM      7  N   UNL     1       2.066  -1.394   3.370  0.00  0.00    -0.233 N 
ATOM      8  C   UNL     1       2.718  -1.841   4.462  0.00  0.00    +0.229 C 
ATOM      9  O   UNL     1       2.125  -1.970   5.511  0.00  0.00    -0.274 OA
ATOM     10  H   UNL     1       2.541  -1.290   2.530  0.00  0.00    +0.173 HD
BRANCH   8  11
ATOM     11  C   UNL     1       4.184  -2.179   4.378  0.00  0.00    +0.097 C 
BRANCH  11  12
ATOM     12  C   UNL     1       4.676  -2.658   5.745  0.00  0.00    +0.013 C 
BRANCH  12  13
ATOM     13  C   UNL     1       6.164  -3.001   5.661  0.00  0.00    -0.011 C 
ATOM     14  C   UNL     1       6.360  -4.192   4.720  0.00  0.00    +0.003 C 
ATOM     15  C   UNL     1       7.849  -4.535   4.635  0.00  0.00    +0.000 C 
ATOM     16  C   UNL     1       8.370  -4.895   6.028  0.00  0.00    +0.000 C 
ATOM     17  C   UNL     1       8.174  -3.704   6.969  0.00  0.00    +0.000 C 
ATOM     18  C   UNL     1       6.685  -3.361   7.054  0.00  0.00    +0.003 C 
ENDBRANCH  12  13
ENDBRANCH  11  12
ENDBRANCH   8  11
ENDBRANCH   4   7
BRANCH   1  20
ATOM     19  C   UNL     1      -0.019   1.526   0.010  0.00  0.00    +0.033 C 
ATOM     20  C   UNL     1       0.002  -0.004   0.002  0.00  0.00    +0.102 C 
BRANCH  20  21
ATOM     21  C   UNL     1       0.707  -0.490  -1.238  0.00  0.00    -0.027 A 
ATOM     22  C   UNL     1       2.090  -0.512  -1.286  0.00  0.00    +0.007 A 
ATOM     23  C   UNL     1       2.741  -0.955  -2.418  0.00  0.00    +0.024 A 
ATOM     24  C   UNL     1       2.010  -1.386  -3.523  0.00  0.00    +0.037 A 
ATOM     25  C   UNL     1       0.622  -1.360  -3.462  0.00  0.00    -0.017 A 
ATOM     26  C   UNL     1      -0.026  -0.921  -2.329  0.00  0.00    +0.011 A 
ATOM     27  C   UNL     1       0.128  -1.880  -4.793  0.00  0.00    +0.133 C 
ATOM     28  C   UNL     1       1.396  -2.183  -5.563  0.00  0.00    +0.222 C 
ATOM     29  O   UNL     1       1.466  -2.624  -6.690  0.00  0.00    -0.275 OA
ATOM     30  N   UNL     1       2.429  -1.871  -4.762  0.00  0.00    -0.285 N 
ATOM     31  H   UNL     1       3.360  -1.972  -5.016  0.00  0.00    +0.155 HD
ENDBRANCH  20  21
ENDBRANCH   1  20
TORSDOF 6
