REMARK  Name = ZINC63830744
REMARK  6 active torsions:
REMARK  status: ('A' for Active; 'I' for Inactive)
REMARK    1  A    between atoms: C_1  and  C_2
REMARK    2  A    between atoms: C_2  and  C_3
REMARK    3  A    between atoms: C_10  and  C_12
REMARK    4  A    between atoms: C_12  and  C_13
REMARK    5  A    between atoms: C_13  and  C_14
REMARK    6  A    between atoms: C_22  and  C_24
REMARK                            x       y       z     vdW  Elec       q    Type
REMARK                         _______ _______ _______ _____ _____    ______ ____
ROOT
ATOM      1  C   UNL     1       7.895  -5.695   1.011  0.00  0.00    -0.034 C 
ATOM      2  C   UNL     1       8.966  -4.870   0.996  0.00  0.00    -0.000 A 
ATOM      3  C   UNL     1       9.097  -3.408   1.012  0.00  0.00    +0.010 A 
ATOM      4  C   UNL     1      10.332  -2.859   0.989  0.00  0.00    +0.001 A 
ATOM      5  C   UNL     1      11.489  -3.650   0.949  0.00  0.00    +0.002 A 
ATOM      6  C   UNL     1      11.450  -4.999   0.933  0.00  0.00    +0.026 A 
ATOM      7  C   UNL     1      10.204  -5.682   0.955  0.00  0.00    +0.043 A 
ATOM      8  N   UNL     1       9.908  -6.960   0.945  0.00  0.00    -0.374 N 
ATOM      9  C   UNL     1       8.448  -7.102   0.985  0.00  0.00    +0.137 C 
ATOM     10  H   UNL     1      10.547  -7.689   0.919  0.00  0.00    +0.161 HD
ENDROOT
BRANCH   9  11
ATOM     11  C   UNL     1       8.030  -7.848   2.225  0.00  0.00    -0.021 A 
ATOM     12  C   UNL     1       8.706  -7.645   3.414  0.00  0.00    +0.009 A 
ATOM     13  C   UNL     1       8.322  -8.329   4.553  0.00  0.00    +0.039 A 
ATOM     14  C   UNL     1       7.262  -9.217   4.502  0.00  0.00    +0.123 A 
ATOM     15  C   UNL     1       6.586  -9.419   3.311  0.00  0.00    +0.039 A 
ATOM     16  C   UNL     1       6.967  -8.731   2.175  0.00  0.00    +0.009 A 
ATOM     17  F   UNL     1       6.887  -9.886   5.615  0.00  0.00    -0.205 F 
ENDBRANCH   9  11
BRANCH   1  18
ATOM     18  C   UNL     1       6.443  -5.293   1.052  0.00  0.00    +0.043 C 
BRANCH  18  19
ATOM     19  C   UNL     1       6.336  -3.767   1.068  0.00  0.00    +0.100 C 
BRANCH  19  26
ATOM     20  C   UNL     1       0.742  -0.511   1.242  0.00  0.00    +0.153 C 
ATOM     21  N   UNL     1       0.872  -1.986   1.226  0.00  0.00    -0.253 N 
ATOM     22  N   UNL     1       2.164  -2.461   1.189  0.00  0.00    -0.163 NA
ATOM     23  C   UNL     1       3.205  -1.689   1.168  0.00  0.00    +0.179 C 
ATOM     24  S   UNL     1       2.520  -0.039   1.200  0.00  0.00    -0.065 S 
ATOM     25  N   UNL     1       4.547  -2.061   1.129  0.00  0.00    -0.264 N 
ATOM     26  C   UNL     1       4.884  -3.365   1.110  0.00  0.00    +0.219 C 
ATOM     27  O   UNL     1       4.020  -4.216   1.125  0.00  0.00    -0.275 OA
ATOM     28  H   UNL     1       0.102  -2.575   1.242  0.00  0.00    +0.169 HD
ATOM     29  H   UNL     1       5.238  -1.380   1.117  0.00  0.00    +0.157 HD
BRANCH  20  31
ATOM     30  C   UNL     1      -0.019   1.526   0.010  0.00  0.00    +0.006 C 
ATOM     31  C   UNL     1       0.002  -0.004   0.002  0.00  0.00    +0.032 C 
ENDBRANCH  20  31
ENDBRANCH  19  26
ENDBRANCH  18  19
ENDBRANCH   1  18
TORSDOF 5
