REMARK  Name = ZINC09234340
REMARK  10 active torsions:
REMARK  status: ('A' for Active; 'I' for Inactive)
REMARK    1  A    between atoms: C_1  and  C_2
REMARK    2  A    between atoms: C_2  and  O_3
REMARK    3  A    between atoms: O_3  and  C_4
REMARK    4  A    between atoms: C_4  and  C_6
REMARK    5  A    between atoms: C_7  and  N_37
REMARK    6  A    between atoms: C_24  and  C_27
REMARK    7  A    between atoms: C_30  and  O_35
REMARK    8  A    between atoms: C_31  and  O_33
REMARK    9  A    between atoms: O_33  and  C_34
REMARK   10  A    between atoms: O_35  and  C_36
REMARK                            x       y       z     vdW  Elec       q    Type
REMARK                         _______ _______ _______ _____ _____    ______ ____
ROOT
ATOM      1  C   UNL     1      -1.868   2.022   3.717  0.00  0.00    +0.117 C 
ATOM      2  C   UNL     1      -0.536   1.802   3.553  0.00  0.00    +0.195 C 
ATOM      3  O   UNL     1       0.022   1.788   2.334  0.00  0.00    -0.446 OA
ATOM      4  C   UNL     1      -0.738   1.568   1.244  0.00  0.00    +0.116 C 
ATOM      5  C   UNL     1      -2.067   1.781   1.262  0.00  0.00    +0.057 C 
ATOM      6  C   UNL     1      -2.747   2.250   2.522  0.00  0.00    +0.141 C 
ATOM      7  C   UNL     1      -3.138   3.691   2.408  0.00  0.00    -0.002 A 
ATOM      8  C   UNL     1      -2.383   4.830   2.231  0.00  0.00    +0.007 A 
ATOM      9  C   UNL     1      -3.070   6.037   2.164  0.00  0.00    +0.000 A 
ATOM     10  C   UNL     1      -4.445   6.089   2.270  0.00  0.00    +0.002 A 
ATOM     11  C   UNL     1      -5.210   4.947   2.447  0.00  0.00    +0.023 A 
ATOM     12  C   UNL     1      -4.533   3.728   2.515  0.00  0.00    +0.038 A 
ATOM     13  N   UNL     1      -5.037   2.451   2.683  0.00  0.00    -0.284 N 
ATOM     14  C   UNL     1      -4.062   1.519   2.697  0.00  0.00    +0.237 C 
ATOM     15  O   UNL     1      -4.210   0.322   2.826  0.00  0.00    -0.274 OA
ATOM     16  C   UNL     1      -2.857   1.568   0.116  0.00  0.00    +0.165 C 
ATOM     17  O   UNL     1      -4.056   1.752   0.176  0.00  0.00    -0.292 OA
ATOM     18  C   UNL     1      -2.243   1.117  -1.182  0.00  0.00    +0.088 C 
ATOM     19  C   UNL     1      -0.792   1.605  -1.240  0.00  0.00    +0.034 C 
ATOM     20  C   UNL     1      -0.053   1.075  -0.009  0.00  0.00    +0.083 C 
ATOM     21  H   UNL     1      -5.981   2.249   2.781  0.00  0.00    +0.155 HD
ENDROOT
BRANCH  19  22
ATOM     22  C   UNL     1      -0.129   1.087  -2.490  0.00  0.00    -0.040 A 
ATOM     23  C   UNL     1      -0.041  -0.276  -2.710  0.00  0.00    +0.008 A 
ATOM     24  C   UNL     1       0.562  -0.756  -3.858  0.00  0.00    +0.049 A 
ATOM     25  C   UNL     1       1.089   0.129  -4.786  0.00  0.00    +0.161 A 
ATOM     26  C   UNL     1       1.005   1.499  -4.562  0.00  0.00    +0.162 A 
ATOM     27  C   UNL     1       0.395   1.974  -3.412  0.00  0.00    +0.053 A 
BRANCH  26  28
ATOM     28  O   UNL     1       1.520   2.371  -5.470  0.00  0.00    -0.491 OA
ATOM     29  C   UNL     1       1.397   3.764  -5.174  0.00  0.00    +0.277 C 
ENDBRANCH  26  28
BRANCH  25  30
ATOM     30  O   UNL     1       1.686  -0.342  -5.914  0.00  0.00    -0.491 OA
ATOM     31  C   UNL     1       1.735  -1.761  -6.077  0.00  0.00    +0.277 C 
ENDBRANCH  25  30
ENDBRANCH  19  22
BRANCH   2  32
ATOM     32  N   UNL     1       0.250   1.589   4.653  0.00  0.00    -0.329 N 
ATOM     33  H   UNL     1      -0.155   1.521   5.532  0.00  0.00    +0.145 HD
ATOM     34  H   UNL     1       1.211   1.507   4.554  0.00  0.00    +0.145 HD
ENDBRANCH   2  32
BRANCH   1  35
ATOM     35  C   UNL     1      -2.422   2.036   5.006  0.00  0.00    +0.342 C 
ATOM     36  O   UNL     1      -2.670   3.097   5.551  0.00  0.00    -0.245 OA
BRANCH  35  37
ATOM     37  O   UNL     1      -2.680   0.874   5.643  0.00  0.00    -0.462 OA
BRANCH  37  39
ATOM     38  C   UNL     1      -3.464  -0.445   7.510  0.00  0.00    +0.048 C 
ATOM     39  C   UNL     1      -3.243   0.963   6.953  0.00  0.00    +0.229 C 
ENDBRANCH  37  39
ENDBRANCH  35  37
ENDBRANCH   1  35
TORSDOF 7
