REMARK  Name = ZINC67019252
REMARK  6 active torsions:
REMARK  status: ('A' for Active; 'I' for Inactive)
REMARK    1  A    between atoms: C_1  and  C_2
REMARK    2  A    between atoms: C_3  and  C_14
REMARK    3  A    between atoms: C_4  and  C_13
REMARK    4  A    between atoms: C_14  and  C_15
REMARK    5  A    between atoms: N_17  and  C_18
REMARK    6  A    between atoms: C_19  and  C_27
REMARK                            x       y       z     vdW  Elec       q    Type
REMARK                         _______ _______ _______ _____ _____    ______ ____
ROOT
ATOM      1  C   UNL     1      -2.891   0.356   1.435  0.00  0.00    +0.222 C 
ATOM      2  O   UNL     1      -2.158   0.039   2.347  0.00  0.00    -0.275 OA
ATOM      3  N   UNL     1      -4.038   1.016   1.690  0.00  0.00    -0.279 N 
ATOM      4  H   UNL     1      -4.624   1.270   0.960  0.00  0.00    +0.155 HD
ENDROOT
BRANCH   3   5
ATOM      5  C   UNL     1      -4.381   1.333   2.997  0.00  0.00    +0.090 A 
ATOM      6  C   UNL     1      -5.511   1.996   3.444  0.00  0.00    +0.084 A 
ATOM      7  C   UNL     1      -5.637   2.205   4.876  0.00  0.00    -0.018 A 
ATOM      8  C   UNL     1      -4.607   1.712   5.598  0.00  0.00    -0.004 A 
ATOM      9  S   UNL     1      -3.523   0.993   4.400  0.00  0.00    -0.077 S 
ATOM     10  C   UNL     1      -4.443   1.770   7.086  0.00  0.00    +0.043 C 
ATOM     11  C   UNL     1      -5.434   2.804   7.640  0.00  0.00    +0.005 C 
ATOM     12  C   UNL     1      -6.815   2.543   7.032  0.00  0.00    +0.005 C 
ATOM     13  C   UNL     1      -6.807   2.910   5.546  0.00  0.00    +0.037 C 
BRANCH   6  14
ATOM     14  C   UNL     1      -6.515   2.457   2.533  0.00  0.00    +0.102 C 
ATOM     15  N   UNL     1      -7.311   2.822   1.810  0.00  0.00    -0.191 NA
ENDBRANCH   6  14
ENDBRANCH   3   5
BRANCH   1  16
ATOM     16  C   UNL     1      -2.519   0.013   0.015  0.00  0.00    +0.134 C 
BRANCH  16  19
ATOM     17  C   UNL     1      -0.018   1.503   0.010  0.00  0.00    +0.066 C 
ATOM     18  C   UNL     1       0.002  -0.004   0.002  0.00  0.00    +0.046 A 
ATOM     19  C   UNL     1      -1.201  -0.718   0.004  0.00  0.00    +0.003 A 
ATOM     20  C   UNL     1      -1.171  -2.077  -0.004  0.00  0.00    +0.045 A 
ATOM     21  N   UNL     1       0.030  -2.713  -0.014  0.00  0.00    -0.238 N 
ATOM     22  C   UNL     1       1.191  -1.982  -0.015  0.00  0.00    +0.158 A 
ATOM     23  N   UNL     1       1.151  -0.644  -0.012  0.00  0.00    -0.233 NA
ATOM     24  C   UNL     1       2.253  -2.884  -0.026  0.00  0.00    +0.119 A 
ATOM     25  C   UNL     1       1.717  -4.170  -0.030  0.00  0.00    +0.267 A 
ATOM     26  O   UNL     1       2.356  -5.210  -0.040  0.00  0.00    -0.266 OA
ATOM     27  N   UNL     1       0.374  -4.071  -0.023  0.00  0.00    -0.258 N 
ATOM     28  H   UNL     1      -0.249  -4.814  -0.024  0.00  0.00    +0.191 HD
ATOM     29  C   UNL     1      -2.453  -2.868  -0.002  0.00  0.00    +0.066 C 
ENDBRANCH  16  19
ENDBRANCH   1  16
TORSDOF 4
