REMARK  Name = ZINC09874611
REMARK  8 active torsions:
REMARK  status: ('A' for Active; 'I' for Inactive)
REMARK    1  A    between atoms: C_2  and  C_3
REMARK    2  A    between atoms: C_3  and  N_4
REMARK    3  A    between atoms: C_7  and  C_10
REMARK    4  A    between atoms: C_16  and  C_18
REMARK    5  A    between atoms: C_18  and  S_19
REMARK    6  A    between atoms: S_19  and  C_20
REMARK    7  A    between atoms: C_23  and  C_26
REMARK    8  A    between atoms: N_24  and  N_25
REMARK                            x       y       z     vdW  Elec       q    Type
REMARK                         _______ _______ _______ _____ _____    ______ ____
ROOT
ATOM      1  N   UNL     1       1.078   2.595  -1.073  0.00  0.00    -0.246 N 
ATOM      2  C   UNL     1       2.338   2.059  -1.312  0.00  0.00    +0.168 A 
ATOM      3  N   UNL     1       2.707   0.794  -1.385  0.00  0.00    -0.224 NA
ATOM      4  C   UNL     1       3.966   0.458  -1.624  0.00  0.00    +0.080 A 
ATOM      5  C   UNL     1       4.901   1.440  -1.798  0.00  0.00    +0.076 A 
ATOM      6  S   UNL     1       3.887   2.900  -1.611  0.00  0.00    -0.060 S 
ATOM      7  C   UNL     1       0.024   1.778  -0.877  0.00  0.00    +0.232 C 
ATOM      8  O   UNL     1       0.175   0.576  -0.908  0.00  0.00    -0.274 OA
ENDROOT
BRANCH   4   9
ATOM      9  C   UNL     1       4.357  -0.971  -1.701  0.00  0.00    +0.001 A 
ATOM     10  C   UNL     1       5.681  -1.321  -1.958  0.00  0.00    +0.010 A 
ATOM     11  C   UNL     1       6.040  -2.651  -2.023  0.00  0.00    +0.001 A 
ATOM     12  C   UNL     1       5.087  -3.638  -1.846  0.00  0.00    +0.000 A 
ATOM     13  C   UNL     1       3.770  -3.296  -1.595  0.00  0.00    +0.001 A 
ATOM     14  C   UNL     1       3.400  -1.969  -1.522  0.00  0.00    +0.010 A 
ENDBRANCH   4   9
BRANCH   1  15
ATOM     15  C   UNL     1       0.896   4.048  -1.035  0.00  0.00    +0.142 C 
BRANCH  15  17
ATOM     16  C   UNL     1       1.973   5.486   0.619  0.00  0.00    +0.005 C 
ATOM     17  C   UNL     1       1.097   4.543   0.374  0.00  0.00    -0.015 C 
ENDBRANCH  15  17
ENDBRANCH   1  15
BRANCH   7  18
ATOM     18  C   UNL     1      -1.343   2.360  -0.624  0.00  0.00    +0.173 C 
BRANCH  18  19
ATOM     19  S   UNL     1      -2.538   1.018  -0.408  0.00  0.00    -0.075 S 
BRANCH  19  20
ATOM     20  C   UNL     1      -4.005   1.956  -0.136  0.00  0.00    +0.209 A 
ATOM     21  N   UNL     1      -4.098   3.267  -0.108  0.00  0.00    -0.121 NA
ATOM     22  N   UNL     1      -5.315   3.618   0.112  0.00  0.00    -0.127 NA
ATOM     23  C   UNL     1      -6.071   2.554   0.247  0.00  0.00    +0.182 A 
ATOM     24  N   UNL     1      -5.255   1.456   0.093  0.00  0.00    -0.224 N 
BRANCH  23  25
ATOM     25  C   UNL     1      -7.525   2.537   0.514  0.00  0.00    +0.023 A 
ATOM     26  C   UNL     1      -8.138   1.374   0.983  0.00  0.00    +0.012 A 
ATOM     27  C   UNL     1      -9.495   1.363   1.231  0.00  0.00    +0.003 A 
ATOM     28  C   UNL     1     -10.249   2.503   1.017  0.00  0.00    +0.038 A 
ATOM     29  C   UNL     1      -9.649   3.661   0.551  0.00  0.00    +0.124 A 
ATOM     30  C   UNL     1      -8.289   3.685   0.304  0.00  0.00    +0.050 A 
ATOM     31  F   UNL     1     -10.392   4.770   0.344  0.00  0.00    -0.205 F 
ENDBRANCH  23  25
BRANCH  24  32
ATOM     32  N   UNL     1      -5.620   0.142   0.155  0.00  0.00    -0.295 N 
ATOM     33  H   UNL     1      -5.634  -0.185   1.110  0.00  0.00    +0.163 HD
ATOM     34  H   UNL     1      -6.512  -0.008  -0.292  0.00  0.00    +0.163 HD
ENDBRANCH  24  32
ENDBRANCH  19  20
ENDBRANCH  18  19
ENDBRANCH   7  18
TORSDOF 8
