REMARK  Name = ZINC02492908
REMARK  4 active torsions:
REMARK  status: ('A' for Active; 'I' for Inactive)
REMARK    1  A    between atoms: C_1  and  C_2
REMARK    2  A    between atoms: C_14  and  C_17
REMARK    3  A    between atoms: C_20  and  O_23
REMARK    4  A    between atoms: O_23  and  C_24
REMARK                            x       y       z     vdW  Elec       q    Type
REMARK                         _______ _______ _______ _____ _____    ______ ____
ROOT
ATOM      1  C   UNL     1      -0.019   1.526   0.010  0.00  0.00    +0.008 C 
ATOM      2  C   UNL     1       0.002  -0.004   0.002  0.00  0.00    -0.009 C 
ATOM      3  C   UNL     1      -1.434  -0.537   0.019  0.00  0.00    +0.008 C 
ATOM      4  C   UNL     1      -1.432  -2.045  -0.236  0.00  0.00    +0.037 C 
ATOM      5  C   UNL     1      -0.466  -2.705   0.739  0.00  0.00    -0.023 A 
ATOM      6  C   UNL     1       0.482  -1.985   1.378  0.00  0.00    -0.004 A 
ATOM      7  S   UNL     1       1.343  -3.162   2.385  0.00  0.00    -0.078 S 
ATOM      8  C   UNL     1       0.497  -4.534   1.991  0.00  0.00    +0.080 A 
ATOM      9  C   UNL     1      -0.471  -4.121   1.064  0.00  0.00    +0.068 A 
ATOM     10  C   UNL     1      -1.381  -5.152   0.514  0.00  0.00    +0.248 C 
ATOM     11  O   UNL     1      -2.122  -4.910  -0.421  0.00  0.00    -0.270 OA
ATOM     12  N   UNL     1      -1.353  -6.372   1.092  0.00  0.00    -0.289 N 
ATOM     13  C   UNL     1      -0.604  -6.670   2.308  0.00  0.00    +0.190 C 
ATOM     14  N   UNL     1       0.608  -5.837   2.408  0.00  0.00    -0.316 N 
ATOM     15  C   UNL     1       0.739  -0.515   1.249  0.00  0.00    +0.046 C 
ATOM     16  H   UNL     1      -1.859  -7.088   0.677  0.00  0.00    +0.151 HD
ATOM     17  H   UNL     1       1.443  -6.193   2.752  0.00  0.00    +0.149 HD
ENDROOT
BRANCH  13  18
ATOM     18  C   UNL     1      -1.481  -6.407   3.505  0.00  0.00    -0.009 A 
ATOM     19  C   UNL     1      -0.916  -6.002   4.700  0.00  0.00    +0.010 A 
ATOM     20  C   UNL     1      -1.718  -5.762   5.798  0.00  0.00    +0.046 A 
ATOM     21  C   UNL     1      -3.092  -5.927   5.702  0.00  0.00    +0.120 A 
ATOM     22  C   UNL     1      -3.657  -6.333   4.502  0.00  0.00    +0.046 A 
ATOM     23  C   UNL     1      -2.851  -6.567   3.405  0.00  0.00    +0.010 A 
BRANCH  21  24
ATOM     24  O   UNL     1      -3.883  -5.691   6.782  0.00  0.00    -0.495 OA
ATOM     25  C   UNL     1      -5.289  -5.881   6.609  0.00  0.00    +0.277 C 
ENDBRANCH  21  24
ENDBRANCH  13  18
TORSDOF 2
