REMARK  Name = ZINC12466799
REMARK  3 active torsions:
REMARK  status: ('A' for Active; 'I' for Inactive)
REMARK    1  A    between atoms: C_11  and  C_27
REMARK    2  A    between atoms: C_15  and  C_16
REMARK    3  A    between atoms: C_15  and  N_57
REMARK                            x       y       z     vdW  Elec       q    Type
REMARK                         _______ _______ _______ _____ _____    ______ ____
ROOT
ATOM      1  C   UNL     1       4.362   5.595  -5.492  0.00  0.00    +0.001 A 
ATOM      2  C   UNL     1       3.040   5.975  -5.657  0.00  0.00    +0.002 A 
ATOM      3  C   UNL     1       2.096   5.816  -4.658  0.00  0.00    +0.026 A 
ATOM      4  C   UNL     1       2.532   5.251  -3.461  0.00  0.00    +0.047 A 
ATOM      5  C   UNL     1       3.887   4.864  -3.296  0.00  0.00    +0.003 A 
ATOM      6  C   UNL     1       4.820   5.037  -4.324  0.00  0.00    +0.010 A 
ATOM      7  C   UNL     1       3.986   4.327  -1.958  0.00  0.00    -0.022 A 
ATOM      8  C   UNL     1       2.755   4.405  -1.403  0.00  0.00    +0.011 A 
ATOM      9  N   UNL     1       1.880   4.959  -2.297  0.00  0.00    -0.359 N 
ATOM     10  H   UNL     1       0.938   5.119  -2.130  0.00  0.00    +0.166 HD
ATOM     11  C   UNL     1       2.453   3.935  -0.000  0.00  0.00    +0.014 C 
ATOM     12  C   UNL     1       4.858   3.707   0.260  0.00  0.00    -0.072 C 
ATOM     13  C   UNL     1       5.188   3.768  -1.238  0.00  0.00    +0.019 C 
ATOM     14  N   UNL     1       3.548   3.036   0.433  0.00  0.00    +0.391 N 
ATOM     15  H   UNL     1       3.530   2.188  -0.145  0.00  0.00    -0.080 HD
ENDROOT
BRANCH  11  16
ATOM     16  C   UNL     1       1.158   3.165   0.007  0.00  0.00    -0.020 A 
ATOM     17  C   UNL     1       1.175   1.783   0.000  0.00  0.00    +0.005 A 
ATOM     18  C   UNL     1      -0.013   1.076   0.008  0.00  0.00    +0.000 A 
ATOM     19  C   UNL     1      -1.220   1.750   0.017  0.00  0.00    +0.003 A 
ATOM     20  C   UNL     1      -1.240   3.132   0.030  0.00  0.00    +0.038 A 
ATOM     21  C   UNL     1      -0.050   3.841   0.022  0.00  0.00    +0.125 A 
ATOM     22  F   UNL     1      -0.068   5.192   0.030  0.00  0.00    -0.205 F 
ENDBRANCH  11  16
BRANCH  14  23
ATOM     23  C   UNL     1       3.358   2.656   1.849  0.00  0.00    -0.033 C 
BRANCH  23  24
ATOM     24  C   UNL     1       4.352   1.579   2.200  0.00  0.00    -0.005 A 
ATOM     25  C   UNL     1       5.606   1.691   2.701  0.00  0.00    +0.122 A 
ATOM     26  N   UNL     1       6.292   0.588   2.933  0.00  0.00    -0.233 NA
ATOM     27  C   UNL     1       5.780  -0.601   2.675  0.00  0.00    +0.161 A 
ATOM     28  S   UNL     1       4.207  -0.196   2.062  0.00  0.00    -0.059 S 
ATOM     29  N   UNL     1       6.353  -1.851   2.847  0.00  0.00    -0.305 N 
ATOM     30  C   UNL     1       5.513  -2.701   3.704  0.00  0.00    +0.135 C 
ATOM     31  C   UNL     1       6.150  -4.088   3.819  0.00  0.00    +0.179 C 
ATOM     32  O   UNL     1       7.481  -3.955   4.327  0.00  0.00    -0.377 OA
ATOM     33  C   UNL     1       8.326  -3.134   3.516  0.00  0.00    +0.179 C 
ATOM     34  C   UNL     1       7.711  -1.738   3.398  0.00  0.00    +0.135 C 
ENDBRANCH  23  24
ENDBRANCH  14  23
TORSDOF 3
