REMARK  Name = ZINC39658432
REMARK  7 active torsions:
REMARK  status: ('A' for Active; 'I' for Inactive)
REMARK    1  A    between atoms: C_4  and  C_7
REMARK    2  A    between atoms: C_7  and  S_8
REMARK    3  A    between atoms: S_8  and  C_9
REMARK    4  A    between atoms: C_9  and  C_10
REMARK    5  A    between atoms: C_10  and  N_11
REMARK    6  A    between atoms: C_12  and  C_14
REMARK    7  A    between atoms: C_25  and  C_27
REMARK                            x       y       z     vdW  Elec       q    Type
REMARK                         _______ _______ _______ _____ _____    ______ ____
ROOT
ATOM      1  C   UNL     1       9.327  -3.716   4.012  0.00  0.00    +0.100 C 
ATOM      2  C   UNL     1      10.331  -3.046   3.047  0.00  0.00    +0.121 C 
ATOM      3  N   UNL     1      11.331  -2.405   3.932  0.00  0.00    -0.296 N 
ATOM      4  C   UNL     1      11.527  -3.378   5.033  0.00  0.00    +0.115 C 
ATOM      5  C   UNL     1      10.117  -3.935   5.313  0.00  0.00    -0.004 C 
ATOM      6  C   UNL     1       9.467  -3.169   6.461  0.00  0.00    -0.010 C 
ATOM      7  C   UNL     1      10.237  -3.448   7.755  0.00  0.00    -0.082 C 
ATOM      8  N   UNL     1      10.224  -4.890   8.033  0.00  0.00    +0.379 N 
ATOM      9  C   UNL     1      10.932  -5.611   6.969  0.00  0.00    -0.082 C 
ATOM     10  C   UNL     1      10.192  -5.423   5.641  0.00  0.00    -0.010 C 
ATOM     11  C   UNL     1      11.928  -1.207   3.773  0.00  0.00    +0.250 C 
ATOM     12  O   UNL     1      12.804  -0.858   4.540  0.00  0.00    -0.270 OA
ATOM     13  H   UNL     1      10.679  -5.065   8.916  0.00  0.00    -0.086 HD
ATOM     14  H   UNL     1       9.270  -5.213   8.079  0.00  0.00    -0.086 HD
ENDROOT
BRANCH  11  15
ATOM     15  C   UNL     1      11.518  -0.318   2.666  0.00  0.00    +0.074 A 
ATOM     16  C   UNL     1      11.137  -0.852   1.429  0.00  0.00    +0.017 A 
ATOM     17  C   UNL     1      10.761   0.023   0.425  0.00  0.00    +0.021 A 
ATOM     18  C   UNL     1      10.772   1.384   0.672  0.00  0.00    +0.112 A 
ATOM     19  N   UNL     1      11.136   1.860   1.848  0.00  0.00    -0.243 NA
ATOM     20  C   UNL     1      11.497   1.068   2.838  0.00  0.00    +0.141 A 
ATOM     21 CL   UNL     1      11.959   1.753   4.364  0.00  0.00    -0.061 Cl
ENDBRANCH  11  15
BRANCH   1  23
ATOM     22  N   UNL     1       6.951  -3.329   4.581  0.00  0.00    -0.314 N 
ATOM     23  C   UNL     1       8.151  -2.807   4.259  0.00  0.00    +0.218 C 
ATOM     24  O   UNL     1       8.284  -1.604   4.169  0.00  0.00    -0.275 OA
ATOM     25  H   UNL     1       6.844  -4.291   4.653  0.00  0.00    +0.149 HD
BRANCH  22  26
ATOM     26  C   UNL     1       5.807  -2.446   4.821  0.00  0.00    +0.115 C 
BRANCH  26  27
ATOM     27  C   UNL     1       4.576  -3.287   5.166  0.00  0.00    +0.088 C 
BRANCH  27  28
ATOM     28  S   UNL     1       3.160  -2.192   5.464  0.00  0.00    -0.155 S 
BRANCH  28  29
ATOM     29  C   UNL     1       1.802  -3.329   5.854  0.00  0.00    +0.104 C 
BRANCH  29  33
ATOM     30  C   UNL     1      -1.753  -1.091   6.626  0.00  0.00    +0.000 A 
ATOM     31  C   UNL     1      -1.465  -1.508   5.340  0.00  0.00    +0.000 A 
ATOM     32  C   UNL     1      -0.314  -2.232   5.090  0.00  0.00    +0.004 A 
ATOM     33  C   UNL     1       0.548  -2.539   6.126  0.00  0.00    -0.038 A 
ATOM     34  C   UNL     1       0.260  -2.121   7.412  0.00  0.00    +0.004 A 
ATOM     35  C   UNL     1      -0.892  -1.398   7.662  0.00  0.00    +0.000 A 
ENDBRANCH  29  33
ENDBRANCH  28  29
ENDBRANCH  27  28
ENDBRANCH  26  27
ENDBRANCH  22  26
ENDBRANCH   1  23
TORSDOF 7
