REMARK  Name = ZINC35749838
REMARK  8 active torsions:
REMARK  status: ('A' for Active; 'I' for Inactive)
REMARK    1  A    between atoms: C_2  and  C_3
REMARK    2  A    between atoms: C_3  and  N_4
REMARK    3  A    between atoms: C_5  and  C_7
REMARK    4  A    between atoms: C_7  and  C_9
REMARK    5  A    between atoms: C_7  and  N_25
REMARK    6  A    between atoms: N_12  and  S_15
REMARK    7  A    between atoms: S_15  and  C_18
REMARK    8  A    between atoms: C_26  and  C_28
REMARK                            x       y       z     vdW  Elec       q    Type
REMARK                         _______ _______ _______ _____ _____    ______ ____
ROOT
ATOM      1  C   UNL     1       2.508  -3.409   2.457  0.00  0.00    +0.162 C 
ENDROOT
BRANCH   1   2
ATOM      2  C   UNL     1       2.373  -2.635   3.770  0.00  0.00    +0.021 C 
ATOM      3  C   UNL     1       3.521  -1.630   3.889  0.00  0.00    +0.023 C 
ATOM      4  C   UNL     1       3.363  -0.833   5.188  0.00  0.00    +0.110 C 
ATOM      5  N   UNL     1       3.267  -1.774   6.312  0.00  0.00    -0.177 NA
ATOM      6  C   UNL     1       2.256  -2.839   6.257  0.00  0.00    +0.110 C 
ATOM      7  C   UNL     1       2.426  -3.613   4.946  0.00  0.00    +0.023 C 
BRANCH   5   8
ATOM      8  S   UNL     1       4.279  -1.639   7.615  0.00  0.00    +0.061 S 
ATOM      9  O   UNL     1       4.345  -2.925   8.214  0.00  0.00    -0.153 OA
ATOM     10  O   UNL     1       5.436  -0.950   7.161  0.00  0.00    -0.153 OA
BRANCH   8  11
ATOM     11  C   UNL     1       3.488  -0.580   8.781  0.00  0.00    +0.106 A 
ATOM     12  C   UNL     1       3.698   0.785   8.728  0.00  0.00    +0.030 A 
ATOM     13  C   UNL     1       3.078   1.615   9.643  0.00  0.00    +0.022 A 
ATOM     14  C   UNL     1       2.247   1.080  10.611  0.00  0.00    +0.041 A 
ATOM     15  C   UNL     1       2.037  -0.286  10.663  0.00  0.00    +0.022 A 
ATOM     16  C   UNL     1       2.654  -1.115   9.744  0.00  0.00    +0.030 A 
ATOM     17 CL   UNL     1       1.468   2.123  11.760  0.00  0.00    -0.084 Cl
ENDBRANCH   8  11
ENDBRANCH   5   8
ENDBRANCH   1   2
BRANCH   1  19
ATOM     18  N   UNL     1       1.367  -1.676   1.111  0.00  0.00    -0.310 N 
ATOM     19  C   UNL     1       2.457  -2.447   1.299  0.00  0.00    +0.234 C 
ATOM     20  O   UNL     1       3.396  -2.366   0.535  0.00  0.00    -0.274 OA
ATOM     21  H   UNL     1       0.617  -1.740   1.722  0.00  0.00    +0.149 HD
BRANCH  18  22
ATOM     22  C   UNL     1       1.317  -0.740  -0.015  0.00  0.00    +0.131 C 
BRANCH  22  24
ATOM     23  C   UNL     1      -0.016   1.306   0.009  0.00  0.00    +0.005 C 
ATOM     24  C   UNL     1       0.002  -0.004   0.002  0.00  0.00    -0.016 C 
ENDBRANCH  22  24
ENDBRANCH  18  22
ENDBRANCH   1  19
BRANCH   1  25
ATOM     25  N   UNL     1       3.787  -4.125   2.441  0.00  0.00    -0.300 N 
ATOM     26  C   UNL     1       3.931  -5.230   1.683  0.00  0.00    +0.245 C 
ATOM     27  O   UNL     1       3.001  -5.633   1.013  0.00  0.00    -0.270 OA
ATOM     28  H   UNL     1       4.529  -3.803   2.976  0.00  0.00    +0.150 HD
BRANCH  26  29
ATOM     29  C   UNL     1       5.220  -5.950   1.667  0.00  0.00    +0.040 A 
ATOM     30  C   UNL     1       6.288  -5.492   2.441  0.00  0.00    +0.017 A 
ATOM     31  C   UNL     1       7.489  -6.166   2.425  0.00  0.00    +0.050 A 
ATOM     32  C   UNL     1       7.643  -7.302   1.642  0.00  0.00    +0.166 A 
ATOM     33  C   UNL     1       6.580  -7.765   0.866  0.00  0.00    +0.167 A 
ATOM     34  C   UNL     1       5.371  -7.096   0.882  0.00  0.00    +0.062 A 
ATOM     35  O   UNL     1       6.984  -8.884   0.197  0.00  0.00    -0.453 OA
ATOM     36  C   UNL     1       8.423  -8.866   0.253  0.00  0.00    +0.466 C 
ATOM     37  O   UNL     1       8.710  -8.132   1.457  0.00  0.00    -0.453 OA
ENDBRANCH  26  29
ENDBRANCH   1  25
TORSDOF 8
