REMARK  Name = ZINC04693375
REMARK  4 active torsions:
REMARK  status: ('A' for Active; 'I' for Inactive)
REMARK    1  A    between atoms: C_8  and  C_10
REMARK    2  A    between atoms: C_10  and  C_13
REMARK    3  A    between atoms: N_11  and  O_12
REMARK    4  A    between atoms: C_13  and  C_15
REMARK                            x       y       z     vdW  Elec       q    Type
REMARK                         _______ _______ _______ _____ _____    ______ ____
ROOT
ATOM      1  C   UNL     1       2.978  -4.020  -0.048  0.00  0.00    +0.185 C 
ATOM      2  N   UNL     1       2.045  -4.930  -0.043  0.00  0.00    -0.081 NA
ENDROOT
BRANCH   1  10
ATOM      3  C   UNL     1      -0.016   1.355   0.009  0.00  0.00    +0.002 A 
ATOM      4  C   UNL     1       1.155   2.101   0.002  0.00  0.00    +0.001 A 
ATOM      5  C   UNL     1       2.373   1.449  -0.013  0.00  0.00    +0.017 A 
ATOM      6  C   UNL     1       2.404   0.075  -0.020  0.00  0.00    +0.040 A 
ATOM      7  C   UNL     1       1.228  -0.713  -0.013  0.00  0.00    +0.079 A 
ATOM      8  C   UNL     1       0.002  -0.004   0.002  0.00  0.00    +0.029 A 
ATOM      9  N   UNL     1       1.417  -2.040  -0.023  0.00  0.00    -0.237 NA
ATOM     10  C   UNL     1       2.613  -2.588  -0.037  0.00  0.00    +0.135 A 
ATOM     11  S   UNL     1       3.684  -1.157  -0.040  0.00  0.00    -0.065 S 
ENDBRANCH   1  10
BRANCH   2  12
ATOM     12  O   UNL     1       0.682  -4.546  -0.028  0.00  0.00    -0.409 OA
ATOM     13  H   UNL     1       0.064  -5.290  -0.026  0.00  0.00    +0.328 HD
ENDBRANCH   2  12
BRANCH   1  14
ATOM     14  C   UNL     1       4.403  -4.421  -0.065  0.00  0.00    +0.252 C 
ATOM     15  O   UNL     1       5.274  -3.571  -0.069  0.00  0.00    -0.282 OA
BRANCH  14  16
ATOM     16  C   UNL     1       4.764  -5.838  -0.075  0.00  0.00    +0.176 A 
ATOM     17  C   UNL     1       6.045  -6.351  -0.085  0.00  0.00    +0.053 A 
ATOM     18  C   UNL     1       5.916  -7.747  -0.093  0.00  0.00    +0.042 A 
ATOM     19  C   UNL     1       4.592  -8.026  -0.088  0.00  0.00    +0.196 A 
ATOM     20  O   UNL     1       3.904  -6.878  -0.071  0.00  0.00    -0.460 OA
ENDBRANCH  14  16
ENDBRANCH   1  14
TORSDOF 4
