REMARK  Name = ZINC37918305
REMARK  3 active torsions:
REMARK  status: ('A' for Active; 'I' for Inactive)
REMARK    1  A    between atoms: C_3  and  N_11
REMARK    2  A    between atoms: C_4  and  N_8
REMARK    3  A    between atoms: C_15  and  C_18
REMARK                            x       y       z     vdW  Elec       q    Type
REMARK                         _______ _______ _______ _____ _____    ______ ____
ROOT
ATOM      1  N   UNL     1       3.351   2.454   0.051  0.00  0.00    -0.328 N 
ATOM      2  C   UNL     1       4.012   2.868  -1.194  0.00  0.00    +0.105 C 
ATOM      3  C   UNL     1       5.513   2.588  -1.072  0.00  0.00    +0.019 C 
ATOM      4  C   UNL     1       6.055   3.273   0.185  0.00  0.00    +0.005 C 
ATOM      5  C   UNL     1       5.355   2.704   1.421  0.00  0.00    -0.008 C 
ATOM      6  C   UNL     1       3.848   2.989   1.326  0.00  0.00    +0.107 C 
ENDROOT
BRANCH   1   9
ATOM      7  C   UNL     1       1.408  -0.665  -0.013  0.00  0.00    +0.017 A 
ATOM      8  C   UNL     1       2.482   0.203   0.015  0.00  0.00    +0.026 A 
ATOM      9  C   UNL     1       2.266   1.575   0.023  0.00  0.00    +0.060 A 
ATOM     10  C   UNL     1       0.968   2.070   0.003  0.00  0.00    +0.148 A 
ATOM     11  C   UNL     1      -0.102   1.198  -0.024  0.00  0.00    +0.050 A 
ATOM     12  C   UNL     1       0.117  -0.168  -0.032  0.00  0.00    +0.020 A 
ATOM     13 BR   UNL     1      -1.352  -1.359  -0.070  0.00  0.00    -0.050 Br
BRANCH  10  14
ATOM     14  N   UNL     1       0.733   3.531   0.012  0.00  0.00    +0.058 N 
ATOM     15  O   UNL     1      -0.393   3.962   0.100  0.00  0.00    -0.126 OA
ATOM     16  O   UNL     1       1.667   4.294  -0.068  0.00  0.00    -0.126 OA
ENDBRANCH  10  14
ENDBRANCH   1   9
BRANCH   5  17
ATOM     17  C   UNL     1       5.921   3.365   2.679  0.00  0.00    -0.067 C 
ATOM     18  C   UNL     1       5.727   4.894   2.600  0.00  0.00    -0.017 C 
ATOM     19  C   UNL     1       7.037   5.445   3.222  0.00  0.00    -0.021 C 
ATOM     20  C   UNL     1       8.078   4.410   2.726  0.00  0.00    -0.082 C 
ATOM     21  N   UNL     1       7.370   3.109   2.771  0.00  0.00    +0.381 N 
ATOM     22  H   UNL     1       7.577   2.638   3.639  0.00  0.00    -0.086 HD
ATOM     23  H   UNL     1       7.664   2.535   1.996  0.00  0.00    -0.086 HD
ENDBRANCH   5  17
TORSDOF 3
