REMARK  Name = ZINC27498045
REMARK  8 active torsions:
REMARK  status: ('A' for Active; 'I' for Inactive)
REMARK    1  A    between atoms: C_1  and  C_2
REMARK    2  A    between atoms: C_7  and  N_8
REMARK    3  A    between atoms: C_9  and  C_11
REMARK    4  A    between atoms: C_11  and  C_12
REMARK    5  A    between atoms: C_12  and  C_13
REMARK    6  A    between atoms: N_15  and  N_16
REMARK    7  A    between atoms: C_17  and  C_18
REMARK    8  A    between atoms: C_19  and  C_20
REMARK                            x       y       z     vdW  Elec       q    Type
REMARK                         _______ _______ _______ _____ _____    ______ ____
ROOT
ATOM      1  C   UNL     1       2.457   1.002  -0.033  0.00  0.00    +0.107 C 
ENDROOT
BRANCH   1   2
ATOM      2  C   UNL     1       3.751   1.774  -0.053  0.00  0.00    +0.233 C 
ATOM      3  O   UNL     1       3.734   2.987  -0.053  0.00  0.00    -0.274 OA
ATOM      4  N   UNL     1       4.927   1.116  -0.071  0.00  0.00    -0.207 N 
ATOM      5  H   UNL     1       4.942   0.016  -0.071  0.00  0.00    +0.177 HD
BRANCH   4   6
ATOM      6  N   UNL     1       6.131   1.833  -0.089  0.00  0.00    -0.188 NA
ATOM      7  C   UNL     1       7.267   1.198  -0.107  0.00  0.00    +0.130 C 
BRANCH   7   8
ATOM      8  C   UNL     1       8.485   1.924  -0.126  0.00  0.00    +0.022 C 
ATOM      9  C   UNL     1       9.662   1.266  -0.144  0.00  0.00    +0.009 C 
BRANCH   9  10
ATOM     10  C   UNL     1      10.927   2.019  -0.163  0.00  0.00    -0.025 A 
ATOM     11  C   UNL     1      10.911   3.417  -0.169  0.00  0.00    +0.008 A 
ATOM     12  C   UNL     1      12.100   4.116  -0.182  0.00  0.00    +0.001 A 
ATOM     13  C   UNL     1      13.306   3.437  -0.200  0.00  0.00    +0.000 A 
ATOM     14  C   UNL     1      13.329   2.054  -0.200  0.00  0.00    +0.001 A 
ATOM     15  C   UNL     1      12.149   1.341  -0.182  0.00  0.00    +0.008 A 
ENDBRANCH   9  10
ENDBRANCH   7   8
ENDBRANCH   4   6
ENDBRANCH   1   2
BRANCH   1  16
ATOM     16  C   UNL     1       1.280   1.980  -0.015  0.00  0.00    +0.105 C 
BRANCH  16  18
ATOM     17  N   UNL     1      -1.191   1.867   0.018  0.00  0.00    -0.285 N 
ATOM     18  C   UNL     1      -0.014   1.209   0.005  0.00  0.00    +0.218 C 
ATOM     19  O   UNL     1       0.003  -0.004   0.005  0.00  0.00    -0.275 OA
ATOM     20  H   UNL     1      -1.207   2.963   0.109  0.00  0.00    +0.155 HD
BRANCH  17  27
ATOM     21  C   UNL     1      -3.546   3.040   1.100  0.00  0.00    +0.046 C 
ATOM     22  C   UNL     1      -3.564   1.691   0.428  0.00  0.00    -0.028 A 
ATOM     23  C   UNL     1      -4.748   0.989   0.320  0.00  0.00    +0.019 A 
ATOM     24  C   UNL     1      -4.765  -0.252  -0.290  0.00  0.00    +0.014 A 
ATOM     25  C   UNL     1      -3.597  -0.791  -0.799  0.00  0.00    +0.016 A 
ATOM     26  C   UNL     1      -2.411  -0.091  -0.699  0.00  0.00    +0.024 A 
ATOM     27  C   UNL     1      -2.391   1.155  -0.086  0.00  0.00    +0.036 A 
ATOM     28  I   UNL     1      -6.562  -1.318  -0.444  0.00  0.00    -0.044 I 
ENDBRANCH  17  27
ENDBRANCH  16  18
ENDBRANCH   1  16
TORSDOF 7
