REMARK  Name = ZINC09191450
REMARK  8 active torsions:
REMARK  status: ('A' for Active; 'I' for Inactive)
REMARK    1  A    between atoms: C_1  and  N_2
REMARK    2  A    between atoms: N_7  and  C_10
REMARK    3  A    between atoms: N_11  and  C_26
REMARK    4  A    between atoms: N_14  and  C_15
REMARK    5  A    between atoms: C_15  and  C_16
REMARK    6  A    between atoms: C_21  and  C_24
REMARK    7  A    between atoms: C_24  and  N_25
REMARK    8  A    between atoms: C_26  and  C_27
REMARK                            x       y       z     vdW  Elec       q    Type
REMARK                         _______ _______ _______ _____ _____    ______ ____
ROOT
ATOM      1  C   UNL     1       0.550   0.976  -0.866  0.00  0.00    +0.155 C 
ATOM      2  N   UNL     1       0.396  -0.461  -0.625  0.00  0.00    -0.280 N 
ATOM      3  C   UNL     1      -0.854  -0.983  -0.332  0.00  0.00    +0.170 A 
ATOM      4  C   UNL     1      -0.972  -2.351  -0.108  0.00  0.00    +0.153 A 
ATOM      5  C   UNL     1       0.174  -3.161  -0.186  0.00  0.00    +0.282 A 
ATOM      6  O   UNL     1       0.093  -4.362   0.006  0.00  0.00    -0.265 OA
ATOM      7  N   UNL     1       1.364  -2.596  -0.475  0.00  0.00    -0.262 N 
ATOM      8  C   UNL     1       1.467  -1.273  -0.694  0.00  0.00    +0.333 A 
ATOM      9  O   UNL     1       2.555  -0.799  -0.957  0.00  0.00    -0.246 OA
ATOM     10  C   UNL     1       2.561  -3.436  -0.558  0.00  0.00    +0.157 C 
ATOM     11  N   UNL     1      -2.314  -2.588   0.159  0.00  0.00    -0.302 N 
ATOM     12  C   UNL     1      -2.946  -1.386   0.090  0.00  0.00    +0.198 A 
ATOM     13  N   UNL     1      -2.068  -0.447  -0.201  0.00  0.00    -0.196 NA
ATOM     14  N   UNL     1      -4.291  -1.182   0.292  0.00  0.00    -0.314 N 
ATOM     15  H   UNL     1      -4.883  -1.940   0.422  0.00  0.00    +0.149 HD
ENDROOT
BRANCH  14  16
ATOM     16  C   UNL     1      -4.831   0.179   0.311  0.00  0.00    +0.108 C 
BRANCH  16  17
ATOM     17  C   UNL     1      -6.341   0.126   0.552  0.00  0.00    +0.006 C 
ATOM     18  C   UNL     1      -7.022  -0.562  -0.633  0.00  0.00    +0.005 C 
ATOM     19  C   UNL     1      -6.737   0.226  -1.913  0.00  0.00    +0.001 C 
ATOM     20  C   UNL     1      -7.280   1.648  -1.769  0.00  0.00    +0.002 C 
ATOM     21  C   UNL     1      -6.599   2.337  -0.584  0.00  0.00    -0.028 C 
ATOM     22  C   UNL     1      -6.885   1.549   0.696  0.00  0.00    +0.006 C 
BRANCH  21  23
ATOM     23  C   UNL     1      -7.143   3.759  -0.440  0.00  0.00    -0.083 C 
BRANCH  23  24
ATOM     24  N   UNL     1      -6.765   4.550  -1.618  0.00  0.00    +0.378 N 
ATOM     25  H   UNL     1      -5.759   4.581  -1.694  0.00  0.00    -0.090 HD
ATOM     26  H   UNL     1      -7.152   4.125  -2.447  0.00  0.00    -0.090 HD
ATOM     27  H   UNL     1      -7.124   5.489  -1.523  0.00  0.00    -0.090 HD
ENDBRANCH  23  24
ENDBRANCH  21  23
ENDBRANCH  16  17
ENDBRANCH  14  16
BRANCH  11  28
ATOM     28  C   UNL     1      -2.930  -3.883   0.458  0.00  0.00    +0.162 C 
BRANCH  28  29
ATOM     29  C   UNL     1      -2.818  -4.164   1.934  0.00  0.00    -0.009 A 
ATOM     30  C   UNL     1      -1.652  -4.698   2.450  0.00  0.00    +0.008 A 
ATOM     31  C   UNL     1      -1.549  -4.956   3.804  0.00  0.00    +0.020 A 
ATOM     32  C   UNL     1      -2.613  -4.680   4.644  0.00  0.00    +0.042 A 
ATOM     33  C   UNL     1      -3.780  -4.146   4.129  0.00  0.00    +0.040 A 
ATOM     34  C   UNL     1      -3.881  -3.883   2.774  0.00  0.00    +0.047 A 
ATOM     35 CL   UNL     1      -5.344  -3.207   2.127  0.00  0.00    -0.083 Cl
ATOM     36 CL   UNL     1      -2.484  -5.004   6.345  0.00  0.00    -0.083 Cl
ENDBRANCH  28  29
ENDBRANCH  11  28
TORSDOF 6
