REMARK  Name = ZINC39915878
REMARK  13 active torsions:
REMARK  status: ('A' for Active; 'I' for Inactive)
REMARK    1  A    between atoms: C_1  and  C_2
REMARK    2  A    between atoms: C_2  and  C_3
REMARK    3  A    between atoms: C_3  and  O_4
REMARK    4  A    between atoms: O_4  and  C_5
REMARK    5  A    between atoms: C_10  and  C_11
REMARK    6  A    between atoms: C_11  and  N_12
REMARK    7  A    between atoms: C_20  and  S_21
REMARK    8  A    between atoms: S_21  and  C_22
REMARK    9  A    between atoms: C_24  and  O_37
REMARK   10  A    between atoms: C_26  and  O_36
REMARK   11  A    between atoms: C_28  and  O_35
REMARK   12  A    between atoms: C_30  and  C_33
REMARK   13  A    between atoms: C_33  and  O_34
REMARK                            x       y       z     vdW  Elec       q    Type
REMARK                         _______ _______ _______ _____ _____    ______ ____
ROOT
ATOM      1  N   UNL     1      -0.643  -4.934  -1.564  0.00  0.00    -0.314 N 
ATOM      2  C   UNL     1      -1.670  -4.109  -1.137  0.00  0.00    +0.070 A 
ATOM      3  C   UNL     1      -1.718  -2.943  -0.388  0.00  0.00    +0.028 A 
ATOM      4  C   UNL     1      -2.934  -2.345  -0.126  0.00  0.00    +0.002 A 
ATOM      5  C   UNL     1      -4.110  -2.903  -0.606  0.00  0.00    +0.002 A 
ATOM      6  C   UNL     1      -4.081  -4.061  -1.350  0.00  0.00    +0.030 A 
ATOM      7  C   UNL     1      -2.858  -4.678  -1.625  0.00  0.00    +0.090 A 
ATOM      8  N   UNL     1      -2.512  -5.798  -2.313  0.00  0.00    -0.222 NA
ATOM      9  C   UNL     1      -1.210  -5.947  -2.284  0.00  0.00    +0.173 A 
ENDROOT
BRANCH   1  10
ATOM     10  C   UNL     1       0.786  -4.750  -1.300  0.00  0.00    +0.163 C 
BRANCH  10  16
ATOM     11  C   UNL     1       1.341  -2.529  -2.322  0.00  0.00    +0.125 A 
ATOM     12  C   UNL     1       1.909  -1.762  -3.329  0.00  0.00    +0.046 A 
ATOM     13  C   UNL     1       2.522  -2.377  -4.403  0.00  0.00    +0.004 A 
ATOM     14  C   UNL     1       2.571  -3.757  -4.475  0.00  0.00    +0.001 A 
ATOM     15  C   UNL     1       2.006  -4.524  -3.473  0.00  0.00    +0.009 A 
ATOM     16  C   UNL     1       1.396  -3.913  -2.394  0.00  0.00    +0.014 A 
BRANCH  11  17
ATOM     17  O   UNL     1       0.738  -1.926  -1.265  0.00  0.00    -0.492 OA
BRANCH  17  18
ATOM     18  C   UNL     1       0.718  -0.497  -1.257  0.00  0.00    +0.229 C 
BRANCH  18  20
ATOM     19  C   UNL     1      -0.019   1.526   0.010  0.00  0.00    +0.007 C 
ATOM     20  C   UNL     1       0.002  -0.004   0.002  0.00  0.00    +0.038 C 
ENDBRANCH  18  20
ENDBRANCH  17  18
ENDBRANCH  11  17
ENDBRANCH  10  16
ENDBRANCH   1  10
BRANCH   9  21
ATOM     21  S   UNL     1      -0.325  -7.262  -3.054  0.00  0.00    -0.054 S 
BRANCH  21  22
ATOM     22  C   UNL     1      -1.618  -8.262  -3.838  0.00  0.00    +0.214 C 
ATOM     23  C   UNL     1      -1.014  -9.578  -4.337  0.00  0.00    +0.185 C 
ATOM     24  C   UNL     1      -2.099 -10.390  -5.051  0.00  0.00    +0.177 C 
ATOM     25  C   UNL     1      -2.684  -9.550  -6.191  0.00  0.00    +0.176 C 
ATOM     26  C   UNL     1      -3.223  -8.236  -5.620  0.00  0.00    +0.176 C 
ATOM     27  O   UNL     1      -2.172  -7.545  -4.943  0.00  0.00    -0.355 OA
BRANCH  25  28
ATOM     28  O   UNL     1      -1.663  -9.272  -7.151  0.00  0.00    -0.386 OA
ATOM     29  H   UNL     1      -1.273 -10.061  -7.551  0.00  0.00    +0.210 HD
ENDBRANCH  25  28
BRANCH  24  30
ATOM     30  O   UNL     1      -1.528 -11.588  -5.582  0.00  0.00    -0.386 OA
ATOM     31  H   UNL     1      -1.133 -12.165  -4.915  0.00  0.00    +0.210 HD
ENDBRANCH  24  30
BRANCH  23  32
ATOM     32  O   UNL     1      -0.511 -10.323  -3.227  0.00  0.00    -0.386 OA
ATOM     33  H   UNL     1       0.178  -9.866  -2.726  0.00  0.00    +0.210 HD
ENDBRANCH  23  32
BRANCH  26  34
ATOM     34  C   UNL     1      -3.755  -7.365  -6.761  0.00  0.00    +0.190 C 
BRANCH  34  35
ATOM     35  O   UNL     1      -4.363  -6.191  -6.219  0.00  0.00    -0.392 OA
ATOM     36  H   UNL     1      -4.723  -5.591  -6.887  0.00  0.00    +0.210 HD
ENDBRANCH  34  35
ENDBRANCH  26  34
ENDBRANCH  21  22
ENDBRANCH   9  21
TORSDOF 12
