REMARK  Name = ZINC04172782
REMARK  7 active torsions:
REMARK  status: ('A' for Active; 'I' for Inactive)
REMARK    1  A    between atoms: C_1  and  C_2
REMARK    2  A    between atoms: C_6  and  C_27
REMARK    3  A    between atoms: C_7  and  N_8
REMARK    4  A    between atoms: N_8  and  C_9
REMARK    5  A    between atoms: C_10  and  C_20
REMARK    6  A    between atoms: C_14  and  C_19
REMARK    7  A    between atoms: C_16  and  C_18
REMARK                            x       y       z     vdW  Elec       q    Type
REMARK                         _______ _______ _______ _____ _____    ______ ____
ROOT
ATOM      1  C   UNL     1       4.073   1.063  -1.313  0.00  0.00    +0.137 A 
ATOM      2  C   UNL     1       3.475   0.417  -0.252  0.00  0.00    +0.113 A 
ATOM      3  N   UNL     1       3.566  -0.909  -0.466  0.00  0.00    -0.208 NA
ATOM      4  C   UNL     1       4.185  -1.127  -1.615  0.00  0.00    +0.237 A 
ATOM      5  N   UNL     1       4.517   0.090  -2.166  0.00  0.00    -0.269 N 
ATOM      6  C   UNL     1       5.175   0.142  -3.365  0.00  0.00    +0.027 A 
ATOM      7  C   UNL     1       5.490  -1.015  -3.993  0.00  0.00    +0.044 A 
ATOM      8  C   UNL     1       5.137  -2.238  -3.402  0.00  0.00    +0.044 A 
ATOM      9  N   UNL     1       4.506  -2.264  -2.252  0.00  0.00    -0.217 NA
ATOM     10  C   UNL     1       5.484  -3.531  -4.094  0.00  0.00    +0.066 C 
ATOM     11  C   UNL     1       5.542   1.469  -3.977  0.00  0.00    +0.064 C 
ENDROOT
BRANCH   2  12
ATOM     12  C   UNL     1       2.849   1.068   0.922  0.00  0.00    +0.004 A 
ATOM     13  C   UNL     1       1.720   0.503   1.516  0.00  0.00    +0.013 A 
ATOM     14  C   UNL     1       1.137   1.116   2.606  0.00  0.00    +0.039 A 
ATOM     15  C   UNL     1       1.677   2.285   3.117  0.00  0.00    +0.123 A 
ATOM     16  C   UNL     1       2.798   2.850   2.531  0.00  0.00    +0.039 A 
ATOM     17  C   UNL     1       3.385   2.248   1.438  0.00  0.00    +0.013 A 
ATOM     18  F   UNL     1       1.105   2.880   4.187  0.00  0.00    -0.205 F 
ENDBRANCH   2  12
BRANCH   1  19
ATOM     19  N   UNL     1       4.200   2.442  -1.484  0.00  0.00    -0.298 N 
ATOM     20  H   UNL     1       3.409   3.002  -1.508  0.00  0.00    +0.154 HD
BRANCH  19  27
ATOM     21  C   UNL     1       6.334   1.359   0.057  0.00  0.00    +0.045 C 
ATOM     22  C   UNL     1       6.537   2.517  -0.885  0.00  0.00    -0.029 A 
ATOM     23  C   UNL     1       7.789   3.083  -1.024  0.00  0.00    +0.005 A 
ATOM     24  C   UNL     1       7.976   4.150  -1.884  0.00  0.00    +0.001 A 
ATOM     25  C   UNL     1       6.911   4.651  -2.611  0.00  0.00    +0.005 A 
ATOM     26  C   UNL     1       5.658   4.087  -2.481  0.00  0.00    -0.029 A 
ATOM     27  C   UNL     1       5.466   3.014  -1.618  0.00  0.00    +0.038 A 
ATOM     28  C   UNL     1       4.498   4.633  -3.274  0.00  0.00    +0.045 C 
ENDBRANCH  19  27
ENDBRANCH   1  19
TORSDOF 3
