REMARK  Name = ZINC32087559
REMARK  8 active torsions:
REMARK  status: ('A' for Active; 'I' for Inactive)
REMARK    1  A    between atoms: C_1  and  C_2
REMARK    2  A    between atoms: C_2  and  C_3
REMARK    3  A    between atoms: C_2  and  C_4
REMARK    4  A    between atoms: C_4  and  N_5
REMARK    5  A    between atoms: N_23  and  C_24
REMARK    6  A    between atoms: C_24  and  C_25
REMARK    7  A    between atoms: C_24  and  C_26
REMARK    8  A    between atoms: C_24  and  C_27
REMARK                            x       y       z     vdW  Elec       q    Type
REMARK                         _______ _______ _______ _____ _____    ______ ____
ROOT
ATOM      1  N   UNL     1      -1.416  -1.993  -0.116  0.00  0.00    -0.270 N 
ATOM      2  C   UNL     1      -1.448  -2.663  -1.326  0.00  0.00    +0.042 A 
ATOM      3  C   UNL     1      -1.500  -2.149  -2.622  0.00  0.00    +0.024 A 
ATOM      4  C   UNL     1      -1.521  -3.061  -3.666  0.00  0.00    +0.003 A 
ATOM      5  C   UNL     1      -1.492  -4.423  -3.448  0.00  0.00    +0.020 A 
ATOM      6  C   UNL     1      -1.440  -4.949  -2.160  0.00  0.00    +0.047 A 
ATOM      7  C   UNL     1      -1.419  -4.048  -1.116  0.00  0.00    +0.012 A 
ATOM      8  C   UNL     1      -1.366  -4.245   0.365  0.00  0.00    +0.113 C 
ATOM      9  C   UNL     1      -1.363  -2.842   0.932  0.00  0.00    +0.235 C 
ATOM     10  O   UNL     1      -1.322  -2.538   2.106  0.00  0.00    -0.274 OA
ATOM     11  C   UNL     1      -2.586  -5.016   0.865  0.00  0.00    +0.122 C 
ATOM     12  C   UNL     1      -2.421  -6.494   0.648  0.00  0.00    +0.220 C 
ATOM     13  O   UNL     1      -3.388  -7.152   0.327  0.00  0.00    -0.275 OA
ATOM     14  N   UNL     1      -1.232  -7.114   0.800  0.00  0.00    -0.270 N 
ATOM     15  C   UNL     1      -0.092  -6.328   0.971  0.00  0.00    +0.128 A 
ATOM     16  C   UNL     1      -0.116  -4.971   0.777  0.00  0.00    +0.032 A 
ATOM     17  C   UNL     1       1.158  -4.482   1.025  0.00  0.00    +0.141 A 
ATOM     18  N   UNL     1       1.929  -5.495   1.345  0.00  0.00    -0.177 NA
ATOM     19  N   UNL     1       1.160  -6.669   1.307  0.00  0.00    -0.245 N 
ATOM     20 CL   UNL     1      -1.404  -6.662  -1.881  0.00  0.00    -0.083 Cl
ATOM     21  H   UNL     1      -1.171  -8.082   0.790  0.00  0.00    +0.156 HD
ENDROOT
BRANCH  19  22
ATOM     22  C   UNL     1       1.640  -8.024   1.586  0.00  0.00    +0.057 C 
ATOM     23  C   UNL     1       1.430  -8.904   0.351  0.00  0.00    +0.036 C 
ATOM     24  C   UNL     1       3.130  -7.977   1.930  0.00  0.00    +0.036 C 
ATOM     25  C   UNL     1       0.862  -8.609   2.767  0.00  0.00    +0.036 C 
ENDBRANCH  19  22
BRANCH   1  26
ATOM     26  C   UNL     1      -1.433  -0.534   0.013  0.00  0.00    +0.116 C 
BRANCH  26  28
ATOM     27  C   UNL     1      -0.019   1.526   0.010  0.00  0.00    +0.009 C 
ATOM     28  C   UNL     1       0.002  -0.004   0.002  0.00  0.00    +0.001 C 
ATOM     29  C   UNL     1       0.742  -0.511   1.242  0.00  0.00    +0.009 C 
ENDBRANCH  26  28
ENDBRANCH   1  26
TORSDOF 3
