REMARK  Name = ZINC13630126
REMARK  8 active torsions:
REMARK  status: ('A' for Active; 'I' for Inactive)
REMARK    1  A    between atoms: C_4  and  C_7
REMARK    2  A    between atoms: C_10  and  C_13
REMARK    3  A    between atoms: N_15  and  C_16
REMARK    4  A    between atoms: C_16  and  N_18
REMARK    5  A    between atoms: N_18  and  N_19
REMARK    6  A    between atoms: C_20  and  C_22
REMARK    7  A    between atoms: N_27  and  C_29
REMARK    8  A    between atoms: C_29  and  C_30
REMARK                            x       y       z     vdW  Elec       q    Type
REMARK                         _______ _______ _______ _____ _____    ______ ____
ROOT
ATOM      1  C   UNL     1       1.536  -1.155   4.482  0.00  0.00    +0.153 C 
ATOM      2  S   UNL     1       1.534  -2.313   5.743  0.00  0.00    -0.017 S 
ENDROOT
BRANCH   1   5
ATOM      3  C   UNL     1       3.865  -1.041   4.591  0.00  0.00    +0.250 C 
ATOM      4  O   UNL     1       3.864  -1.863   5.486  0.00  0.00    -0.270 OA
ATOM      5  N   UNL     1       2.702  -0.642   4.040  0.00  0.00    -0.263 N 
ATOM      6  H   UNL     1       2.703   0.014   3.326  0.00  0.00    +0.157 HD
BRANCH   3  10
ATOM      7  C   UNL     1       7.540   0.575   3.197  0.00  0.00    -0.018 A 
ATOM      8  C   UNL     1       7.538  -0.368   4.225  0.00  0.00    +0.009 A 
ATOM      9  C   UNL     1       6.349  -0.892   4.678  0.00  0.00    +0.013 A 
ATOM     10  C   UNL     1       5.142  -0.479   4.107  0.00  0.00    +0.037 A 
ATOM     11  C   UNL     1       5.145   0.462   3.074  0.00  0.00    +0.013 A 
ATOM     12  C   UNL     1       6.335   0.988   2.626  0.00  0.00    +0.009 A 
BRANCH   7  16
ATOM     13  C   UNL     1      11.216   2.191   1.802  0.00  0.00    +0.000 A 
ATOM     14  C   UNL     1      10.023   2.602   1.234  0.00  0.00    +0.001 A 
ATOM     15  C   UNL     1       8.827   2.081   1.683  0.00  0.00    +0.008 A 
ATOM     16  C   UNL     1       8.822   1.138   2.710  0.00  0.00    -0.018 A 
ATOM     17  C   UNL     1      10.027   0.732   3.282  0.00  0.00    +0.008 A 
ATOM     18  C   UNL     1      11.217   1.256   2.821  0.00  0.00    +0.001 A 
ENDBRANCH   7  16
ENDBRANCH   3  10
ENDBRANCH   1   5
BRANCH   1  19
ATOM     19  N   UNL     1       0.372  -0.756   3.932  0.00  0.00    -0.246 N 
ATOM     20  H   UNL     1      -0.466  -1.125   4.250  0.00  0.00    +0.172 HD
BRANCH  19  21
ATOM     21  N   UNL     1       0.374   0.191   2.900  0.00  0.00    -0.235 N 
ATOM     22  C   UNL     1      -0.789   0.590   2.349  0.00  0.00    +0.234 C 
ATOM     23  O   UNL     1      -1.838   0.129   2.747  0.00  0.00    -0.274 OA
ATOM     24  H   UNL     1       1.213   0.561   2.582  0.00  0.00    +0.173 HD
BRANCH  22  25
ATOM     25  C   UNL     1      -0.787   1.610   1.239  0.00  0.00    +0.102 C 
ATOM     26  C   UNL     1      -0.013   1.086   0.008  0.00  0.00    +0.110 C 
ATOM     27  C   UNL     1      -0.793   1.611  -1.176  0.00  0.00    +0.217 C 
ATOM     28  O   UNL     1      -0.377   1.665  -2.314  0.00  0.00    -0.276 OA
ATOM     29  N   UNL     1      -2.016   2.009  -0.784  0.00  0.00    -0.293 N 
ATOM     30  C   UNL     1      -2.209   1.800   0.655  0.00  0.00    +0.121 C 
BRANCH  29  31
ATOM     31  C   UNL     1      -3.027   2.577  -1.680  0.00  0.00    +0.182 C 
BRANCH  31  32
ATOM     32  C   UNL     1      -3.879   1.469  -2.243  0.00  0.00    +0.122 A 
ATOM     33  C   UNL     1      -5.011   0.992  -1.696  0.00  0.00    +0.046 A 
ATOM     34  C   UNL     1      -5.478  -0.034  -2.550  0.00  0.00    +0.041 A 
ATOM     35  C   UNL     1      -4.603  -0.122  -3.568  0.00  0.00    +0.195 A 
ATOM     36  O   UNL     1      -3.639   0.794  -3.380  0.00  0.00    -0.466 OA
ENDBRANCH  31  32
ENDBRANCH  29  31
ENDBRANCH  22  25
ENDBRANCH  19  21
ENDBRANCH   1  19
TORSDOF 8
