REMARK  Name = ZINC02414919
REMARK  6 active torsions:
REMARK  status: ('A' for Active; 'I' for Inactive)
REMARK    1  A    between atoms: C_1  and  C_2
REMARK    2  A    between atoms: C_5  and  S_8
REMARK    3  A    between atoms: S_8  and  C_11
REMARK    4  A    between atoms: N_22  and  C_25
REMARK    5  A    between atoms: C_23  and  N_24
REMARK    6  A    between atoms: C_25  and  C_26
REMARK                            x       y       z     vdW  Elec       q    Type
REMARK                         _______ _______ _______ _____ _____    ______ ____
ROOT
ATOM      1  C   UNL     1      -2.745   5.418   3.422  0.00  0.00    +0.160 A 
ATOM      2  C   UNL     1      -3.669   4.348   3.502  0.00  0.00    +0.135 A 
ATOM      3  C   UNL     1      -3.638   3.692   2.189  0.00  0.00    +0.163 A 
ATOM      4  N   UNL     1      -4.402   2.645   1.966  0.00  0.00    -0.226 NA
ATOM      5  C   UNL     1      -5.209   2.191   2.934  0.00  0.00    +0.092 A 
ATOM      6  C   UNL     1      -6.034   1.075   2.702  0.00  0.00    +0.030 A 
ATOM      7  C   UNL     1      -6.851   0.620   3.689  0.00  0.00    +0.002 A 
ATOM      8  C   UNL     1      -6.886   1.244   4.935  0.00  0.00    +0.002 A 
ATOM      9  C   UNL     1      -6.104   2.326   5.197  0.00  0.00    +0.030 A 
ATOM     10  C   UNL     1      -5.245   2.826   4.201  0.00  0.00    +0.090 A 
ATOM     11  N   UNL     1      -4.472   3.889   4.449  0.00  0.00    -0.240 NA
ATOM     12  N   UNL     1      -2.718   4.385   1.432  0.00  0.00    -0.306 N 
ATOM     13  C   UNL     1      -2.200   5.410   2.183  0.00  0.00    +0.126 A 
ENDROOT
BRANCH   1  14
ATOM     14  S   UNL     1      -2.370   6.559   4.711  0.00  0.00    +0.030 S 
ATOM     15  O   UNL     1      -2.695   5.912   5.934  0.00  0.00    -0.164 OA
ATOM     16  O   UNL     1      -1.071   7.066   4.439  0.00  0.00    -0.164 OA
BRANCH  14  21
ATOM     17  C   UNL     1      -6.184  11.201   4.149  0.00  0.00    +0.044 C 
ATOM     18  C   UNL     1      -5.231  10.042   4.290  0.00  0.00    -0.050 A 
ATOM     19  C   UNL     1      -5.575   8.955   5.073  0.00  0.00    +0.005 A 
ATOM     20  C   UNL     1      -4.701   7.892   5.201  0.00  0.00    +0.027 A 
ATOM     21  C   UNL     1      -3.484   7.915   4.547  0.00  0.00    +0.094 A 
ATOM     22  C   UNL     1      -3.138   9.004   3.769  0.00  0.00    +0.027 A 
ATOM     23  C   UNL     1      -4.013  10.065   3.637  0.00  0.00    +0.005 A 
ENDBRANCH  14  21
ENDBRANCH   1  14
BRANCH  13  24
ATOM     24  N   UNL     1      -1.252   6.312   1.736  0.00  0.00    -0.343 N 
ATOM     25  H   UNL     1      -0.906   6.244   0.832  0.00  0.00    +0.144 HD
ATOM     26  H   UNL     1      -0.932   7.012   2.326  0.00  0.00    +0.144 HD
ENDBRANCH  13  24
BRANCH  12  27
ATOM     27  C   UNL     1      -2.355   4.080   0.046  0.00  0.00    +0.167 C 
BRANCH  27  28
ATOM     28  C   UNL     1      -1.196   3.116   0.030  0.00  0.00    +0.010 A 
ATOM     29  C   UNL     1      -1.213   1.761   0.017  0.00  0.00    +0.013 A 
ATOM     30  C   UNL     1      -0.013   1.076   0.008  0.00  0.00    +0.008 A 
ATOM     31  C   UNL     1       1.146   1.780   0.001  0.00  0.00    +0.045 A 
ATOM     32  S   UNL     1       0.555   3.464   0.015  0.00  0.00    -0.100 S 
ENDBRANCH  27  28
ENDBRANCH  12  27
TORSDOF 5
