REMARK  Name = ZINC13244726
REMARK  17 active torsions:
REMARK  status: ('A' for Active; 'I' for Inactive)
REMARK    1  A    between atoms: C_1  and  C_2
REMARK    2  A    between atoms: C_5  and  C_8
REMARK    3  A    between atoms: C_11  and  S_17
REMARK    4  A    between atoms: N_12  and  C_13
REMARK    5  A    between atoms: C_13  and  C_14
REMARK    6  A    between atoms: C_14  and  C_15
REMARK    7  A    between atoms: S_17  and  C_18
REMARK    8  A    between atoms: C_18  and  C_19
REMARK    9  A    between atoms: C_19  and  C_21
REMARK   10  A    between atoms: C_22  and  C_34
REMARK   11  A    between atoms: N_23  and  C_31
REMARK   12  A    between atoms: C_24  and  C_30
REMARK   13  A    between atoms: C_25  and  C_26
REMARK   14  A    between atoms: C_26  and  O_28
REMARK   15  A    between atoms: O_28  and  C_29
REMARK   16  A    between atoms: C_31  and  C_32
REMARK   17  A    between atoms: C_31  and  C_33
REMARK                            x       y       z     vdW  Elec       q    Type
REMARK                         _______ _______ _______ _____ _____    ______ ____
ROOT
ATOM      1  S   UNL     1       1.208   3.740   1.638  0.00  0.00    -0.078 S 
ENDROOT
BRANCH   1   5
ATOM      2  C   UNL     1      -1.512   0.934   1.648  0.00  0.00    +0.165 A 
ATOM      3  N   UNL     1      -1.917   1.732   2.609  0.00  0.00    -0.128 NA
ATOM      4  N   UNL     1      -1.109   2.724   2.725  0.00  0.00    -0.122 NA
ATOM      5  C   UNL     1      -0.135   2.619   1.848  0.00  0.00    +0.192 A 
ATOM      6  N   UNL     1      -0.360   1.480   1.129  0.00  0.00    -0.302 N 
BRANCH   2  11
ATOM      7  C   UNL     1      -4.071  -3.925  -0.071  0.00  0.00    +0.044 C 
ATOM      8  C   UNL     1      -3.401  -2.652   0.379  0.00  0.00    -0.050 A 
ATOM      9  C   UNL     1      -3.719  -2.104   1.609  0.00  0.00    +0.004 A 
ATOM     10  C   UNL     1      -3.109  -0.940   2.027  0.00  0.00    +0.012 A 
ATOM     11  C   UNL     1      -2.169  -0.314   1.206  0.00  0.00    +0.019 A 
ATOM     12  C   UNL     1      -1.857  -0.869  -0.036  0.00  0.00    +0.012 A 
ATOM     13  C   UNL     1      -2.470  -2.037  -0.439  0.00  0.00    +0.004 A 
ENDBRANCH   2  11
BRANCH   6  14
ATOM     14  C   UNL     1       0.457   0.947   0.036  0.00  0.00    +0.137 C 
BRANCH  14  15
ATOM     15  C   UNL     1      -0.003   1.557  -1.290  0.00  0.00    +0.147 C 
BRANCH  15  16
ATOM     16  C   UNL     1       0.838   1.008  -2.413  0.00  0.00    +0.358 C 
ATOM     17  O   UNL     1       1.716   0.212  -2.178  0.00  0.00    -0.246 OA
ATOM     18  O   UNL     1       0.612   1.405  -3.676  0.00  0.00    -0.246 OA
ENDBRANCH  15  16
ENDBRANCH  14  15
ENDBRANCH   6  14
ENDBRANCH   1   5
BRANCH   1  19
ATOM     19  C   UNL     1       0.811   4.950   2.924  0.00  0.00    +0.157 C 
BRANCH  19  20
ATOM     20  C   UNL     1       1.856   6.036   2.930  0.00  0.00    +0.176 C 
ATOM     21  O   UNL     1       2.779   5.996   2.143  0.00  0.00    -0.291 OA
BRANCH  20  22
ATOM     22  C   UNL     1       1.758   7.140   3.886  0.00  0.00    +0.053 A 
ATOM     23  C   UNL     1       2.622   8.192   4.023  0.00  0.00    +0.027 A 
ATOM     24  N   UNL     1       2.178   8.991   5.013  0.00  0.00    -0.344 N 
ATOM     25  C   UNL     1       1.038   8.498   5.555  0.00  0.00    +0.031 A 
ATOM     26  C   UNL     1       0.709   7.344   4.908  0.00  0.00    +0.090 A 
ATOM     27  C   UNL     1       0.263   9.123   6.686  0.00  0.00    +0.064 C 
ATOM     28  C   UNL     1       3.863   8.421   3.200  0.00  0.00    +0.064 C 
BRANCH  24  29
ATOM     29  C   UNL     1       2.842  10.222   5.448  0.00  0.00    +0.081 C 
ATOM     30  C   UNL     1       1.948  11.423   5.131  0.00  0.00    +0.030 C 
ATOM     31  C   UNL     1       3.095  10.159   6.956  0.00  0.00    +0.030 C 
ENDBRANCH  24  29
BRANCH  26  32
ATOM     32  C   UNL     1      -0.451   6.480   5.172  0.00  0.00    +0.341 C 
ATOM     33  O   UNL     1      -0.362   5.572   5.975  0.00  0.00    -0.245 OA
BRANCH  32  34
ATOM     34  O   UNL     1      -1.613   6.695   4.524  0.00  0.00    -0.464 OA
ATOM     35  C   UNL     1      -2.716   5.803   4.834  0.00  0.00    +0.280 C 
ENDBRANCH  32  34
ENDBRANCH  26  32
ENDBRANCH  20  22
ENDBRANCH  19  20
ENDBRANCH   1  19
TORSDOF 11
