REMARK  Name = ZINC66783611
REMARK  7 active torsions:
REMARK  status: ('A' for Active; 'I' for Inactive)
REMARK    1  A    between atoms: C_1  and  C_2
REMARK    2  A    between atoms: C_6  and  C_7
REMARK    3  A    between atoms: N_9  and  N_10
REMARK    4  A    between atoms: C_11  and  C_13
REMARK    5  A    between atoms: C_13  and  C_15
REMARK    6  A    between atoms: C_13  and  N_16
REMARK    7  A    between atoms: C_17  and  C_19
REMARK                            x       y       z     vdW  Elec       q    Type
REMARK                         _______ _______ _______ _____ _____    ______ ____
ROOT
ATOM      1  N   UNL     1       0.059  -0.732   4.900  0.00  0.00    -0.233 N 
ATOM      2  C   UNL     1       0.081  -1.625   5.909  0.00  0.00    +0.249 C 
ATOM      3  O   UNL     1       0.094  -2.813   5.667  0.00  0.00    -0.272 OA
ATOM      4  H   UNL     1       0.048   0.219   5.094  0.00  0.00    +0.173 HD
ENDROOT
BRANCH   1   7
ATOM      5  C   UNL     1       0.031  -0.283   2.562  0.00  0.00    +0.267 C 
ATOM      6  O   UNL     1       0.017   0.910   2.805  0.00  0.00    -0.268 OA
ATOM      7  N   UNL     1       0.052  -1.176   3.571  0.00  0.00    -0.230 N 
ATOM      8  H   UNL     1       0.063  -2.126   3.378  0.00  0.00    +0.173 HD
BRANCH   5  14
ATOM      9  C   UNL     1      -0.018   1.503   0.010  0.00  0.00    +0.045 C 
ATOM     10  C   UNL     1       0.002  -0.004   0.002  0.00  0.00    -0.031 A 
ATOM     11  C   UNL     1       0.007  -0.729  -1.166  0.00  0.00    +0.011 A 
ATOM     12  C   UNL     1       0.025  -2.083  -1.101  0.00  0.00    +0.046 A 
ATOM     13  S   UNL     1       0.037  -2.416   0.545  0.00  0.00    -0.092 S 
ATOM     14  C   UNL     1       0.023  -0.748   1.172  0.00  0.00    +0.078 A 
ENDBRANCH   5  14
ENDBRANCH   1   7
BRANCH   2  15
ATOM     15  C   UNL     1       0.088  -1.147   7.338  0.00  0.00    +0.158 C 
ATOM     16  C   UNL     1      -1.170  -0.318   7.606  0.00  0.00    +0.038 C 
BRANCH  15  17
ATOM     17  N   UNL     1       0.112  -2.302   8.239  0.00  0.00    -0.300 N 
ATOM     18  C   UNL     1       0.616  -2.176   9.483  0.00  0.00    +0.245 C 
ATOM     19  O   UNL     1       1.050  -1.104   9.857  0.00  0.00    -0.270 OA
ATOM     20  H   UNL     1      -0.234  -3.157   7.941  0.00  0.00    +0.150 HD
BRANCH  18  21
ATOM     21  C   UNL     1       0.640  -3.341  10.392  0.00  0.00    +0.037 A 
ATOM     22  C   UNL     1       0.147  -4.575   9.963  0.00  0.00    +0.014 A 
ATOM     23  C   UNL     1       0.173  -5.658  10.816  0.00  0.00    +0.021 A 
ATOM     24  C   UNL     1       0.686  -5.524  12.095  0.00  0.00    +0.041 A 
ATOM     25  C   UNL     1       1.177  -4.303  12.526  0.00  0.00    +0.021 A 
ATOM     26  C   UNL     1       1.161  -3.213  11.681  0.00  0.00    +0.014 A 
ATOM     27 CL   UNL     1       0.714  -6.893  13.163  0.00  0.00    -0.084 Cl
ENDBRANCH  18  21
ENDBRANCH  15  17
ENDBRANCH   2  15
TORSDOF 5
