REMARK  Name = ZINC59385110
REMARK  7 active torsions:
REMARK  status: ('A' for Active; 'I' for Inactive)
REMARK    1  A    between atoms: C_1  and  C_2
REMARK    2  A    between atoms: C_3  and  C_17
REMARK    3  A    between atoms: C_4  and  C_10
REMARK    4  A    between atoms: C_13  and  O_16
REMARK    5  A    between atoms: N_19  and  N_20
REMARK    6  A    between atoms: C_21  and  C_22
REMARK    7  A    between atoms: C_26  and  N_28
REMARK                            x       y       z     vdW  Elec       q    Type
REMARK                         _______ _______ _______ _____ _____    ______ ____
ROOT
ATOM      1  C   UNL     1      -0.039   1.491   0.091  0.00  0.00    +0.061 C 
ATOM      2  C   UNL     1      -0.009  -0.015   0.030  0.00  0.00    +0.017 C 
ATOM      3  C   UNL     1      -1.170  -0.703   0.033  0.00  0.00    +0.057 C 
ATOM      4  C   UNL     1      -1.094  -2.215  -0.031  0.00  0.00    +0.139 C 
ATOM      5  N   UNL     1       0.250  -2.813  -0.091  0.00  0.00    -0.315 N 
ATOM      6  C   UNL     1       1.319  -1.992  -0.086  0.00  0.00    +0.135 C 
ATOM      7  S   UNL     1       2.887  -2.674  -0.156  0.00  0.00    -0.019 S 
ATOM      8  N   UNL     1       1.193  -0.660  -0.034  0.00  0.00    -0.300 N 
ATOM      9  H   UNL     1       0.363  -3.776  -0.133  0.00  0.00    +0.149 HD
ATOM     10  H   UNL     1       2.002  -0.124  -0.037  0.00  0.00    +0.154 HD
ENDROOT
BRANCH   4  11
ATOM     11  C   UNL     1      -1.794  -2.767   1.185  0.00  0.00    -0.022 A 
ATOM     12  C   UNL     1      -1.186  -2.690   2.425  0.00  0.00    +0.009 A 
ATOM     13  C   UNL     1      -1.825  -3.196   3.540  0.00  0.00    +0.046 A 
ATOM     14  C   UNL     1      -3.078  -3.780   3.416  0.00  0.00    +0.117 A 
ATOM     15  C   UNL     1      -3.685  -3.854   2.171  0.00  0.00    +0.046 A 
ATOM     16  C   UNL     1      -3.044  -3.343   1.059  0.00  0.00    +0.009 A 
BRANCH  14  17
ATOM     17  O   UNL     1      -3.708  -4.278   4.512  0.00  0.00    -0.507 OA
ATOM     18  H   UNL     1      -4.270  -3.637   4.968  0.00  0.00    +0.292 HD
ENDBRANCH  14  17
ENDBRANCH   4  11
BRANCH   3  19
ATOM     19  C   UNL     1      -2.417  -0.034   0.094  0.00  0.00    +0.263 C 
ATOM     20  O   UNL     1      -3.077   0.116  -0.919  0.00  0.00    -0.269 OA
ATOM     21  N   UNL     1      -2.873   0.435   1.272  0.00  0.00    -0.203 N 
ATOM     22  H   UNL     1      -2.315   0.382   2.064  0.00  0.00    +0.178 HD
BRANCH  21  23
ATOM     23  N   UNL     1      -4.152   1.000   1.353  0.00  0.00    -0.187 NA
ATOM     24  C   UNL     1      -4.592   1.452   2.487  0.00  0.00    +0.138 C 
BRANCH  24  25
ATOM     25  C   UNL     1      -5.939   2.047   2.572  0.00  0.00    -0.003 A 
ATOM     26  C   UNL     1      -6.747   2.120   1.435  0.00  0.00    +0.009 A 
ATOM     27  C   UNL     1      -8.005   2.677   1.522  0.00  0.00    +0.003 A 
ATOM     28  C   UNL     1      -8.468   3.163   2.732  0.00  0.00    +0.033 A 
ATOM     29  C   UNL     1      -7.673   3.094   3.862  0.00  0.00    +0.127 A 
ATOM     30  C   UNL     1      -6.415   2.535   3.791  0.00  0.00    +0.042 A 
BRANCH  29  31
ATOM     31  N   UNL     1      -8.177   3.618   5.152  0.00  0.00    +0.056 N 
ATOM     32  O   UNL     1      -9.282   4.104   5.217  0.00  0.00    -0.126 OA
ATOM     33  O   UNL     1      -7.484   3.558   6.141  0.00  0.00    -0.126 OA
ENDBRANCH  29  31
ENDBRANCH  24  25
ENDBRANCH  21  23
ENDBRANCH   3  19
TORSDOF 6
