REMARK  Name = ZINC21230352
REMARK  7 active torsions:
REMARK  status: ('A' for Active; 'I' for Inactive)
REMARK    1  A    between atoms: C_1  and  C_2
REMARK    2  A    between atoms: C_2  and  C_3
REMARK    3  A    between atoms: C_2  and  O_4
REMARK    4  A    between atoms: O_4  and  C_5
REMARK    5  A    between atoms: C_8  and  C_11
REMARK    6  A    between atoms: C_16  and  C_26
REMARK    7  A    between atoms: C_30  and  N_32
REMARK                            x       y       z     vdW  Elec       q    Type
REMARK                         _______ _______ _______ _____ _____    ______ ____
ROOT
ATOM      1  C   UNL     1       6.412  -0.829  -1.052  0.00  0.00    +0.032 C 
ATOM      2  C   UNL     1       6.162  -0.856   0.455  0.00  0.00    +0.059 C 
ATOM      3  C   UNL     1       4.668  -0.884   0.734  0.00  0.00    +0.017 C 
ATOM      4  C   UNL     1       3.826  -1.491  -0.119  0.00  0.00    +0.036 C 
ATOM      5  C   UNL     1       2.328  -1.595   0.039  0.00  0.00    +0.136 C 
ATOM      6  N   UNL     1       1.833  -1.208   1.343  0.00  0.00    -0.331 N 
ATOM      7  C   UNL     1       1.959   0.104   1.797  0.00  0.00    +0.049 A 
ATOM      8  C   UNL     1       0.849   0.912   1.985  0.00  0.00    +0.025 A 
ATOM      9  C   UNL     1       1.025   2.229   2.373  0.00  0.00    +0.002 A 
ATOM     10  C   UNL     1       2.296   2.741   2.557  0.00  0.00    +0.002 A 
ATOM     11  C   UNL     1       3.407   1.935   2.374  0.00  0.00    +0.025 A 
ATOM     12  C   UNL     1       3.231   0.611   2.013  0.00  0.00    +0.052 A 
ATOM     13  N   UNL     1       4.296  -0.274   1.888  0.00  0.00    -0.316 N 
ATOM     14  C   UNL     1       4.321  -2.105  -1.294  0.00  0.00    +0.163 C 
ATOM     15  O   UNL     1       3.540  -2.666  -2.037  0.00  0.00    -0.292 OA
ATOM     16  C   UNL     1       5.777  -2.090  -1.652  0.00  0.00    +0.088 C 
ATOM     17  H   UNL     1       1.350  -1.954   1.992  0.00  0.00    +0.147 HD
ATOM     18  H   UNL     1       4.853  -0.467   2.817  0.00  0.00    +0.152 HD
ENDROOT
BRANCH   1  22
ATOM     19  C   UNL     1      10.615  -0.814  -1.823  0.00  0.00    +0.121 A 
ATOM     20  C   UNL     1       9.823   0.234  -2.270  0.00  0.00    +0.046 A 
ATOM     21  C   UNL     1       8.464   0.227  -2.019  0.00  0.00    +0.007 A 
ATOM     22  C   UNL     1       7.894  -0.824  -1.324  0.00  0.00    -0.043 A 
ATOM     23  C   UNL     1       8.683  -1.866  -0.873  0.00  0.00    +0.007 A 
ATOM     24  C   UNL     1      10.041  -1.866  -1.125  0.00  0.00    +0.046 A 
BRANCH  19  25
ATOM     25  O   UNL     1      11.952  -0.808  -2.068  0.00  0.00    -0.489 OA
BRANCH  25  27
ATOM     26  C   UNL     1      12.713   1.479  -1.896  0.00  0.00    +0.051 C 
ATOM     27  C   UNL     1      12.469   0.288  -2.825  0.00  0.00    +0.167 C 
ATOM     28  C   UNL     1      13.787  -0.123  -3.484  0.00  0.00    +0.051 C 
ENDBRANCH  25  27
ENDBRANCH  19  25
ENDBRANCH   1  22
BRANCH   5  29
ATOM     29  C   UNL     1       1.679  -0.716  -0.998  0.00  0.00    -0.021 A 
ATOM     30  C   UNL     1       0.882  -1.276  -1.979  0.00  0.00    +0.006 A 
ATOM     31  C   UNL     1       0.283  -0.469  -2.928  0.00  0.00    +0.003 A 
ATOM     32  C   UNL     1       0.488   0.898  -2.901  0.00  0.00    +0.033 A 
ATOM     33  C   UNL     1       1.289   1.458  -1.924  0.00  0.00    +0.127 A 
ATOM     34  C   UNL     1       1.884   0.651  -0.972  0.00  0.00    +0.038 A 
BRANCH  33  35
ATOM     35  N   UNL     1       1.509   2.921  -1.896  0.00  0.00    +0.056 N 
ATOM     36  O   UNL     1       2.214   3.415  -1.034  0.00  0.00    -0.126 OA
ATOM     37  O   UNL     1       0.985   3.632  -2.734  0.00  0.00    -0.126 OA
ENDBRANCH  33  35
ENDBRANCH   5  29
TORSDOF 5
