REMARK  Name = ZINC60361063
REMARK  8 active torsions:
REMARK  status: ('A' for Active; 'I' for Inactive)
REMARK    1  A    between atoms: C_1  and  C_2
REMARK    2  A    between atoms: C_2  and  C_3
REMARK    3  A    between atoms: C_2  and  C_4
REMARK    4  A    between atoms: N_6  and  C_7
REMARK    5  A    between atoms: C_7  and  C_8
REMARK    6  A    between atoms: N_13  and  C_15
REMARK    7  A    between atoms: C_15  and  C_16
REMARK    8  A    between atoms: N_23  and  C_26
REMARK                            x       y       z     vdW  Elec       q    Type
REMARK                         _______ _______ _______ _____ _____    ______ ____
ROOT
ATOM      1  C   UNL     1      -5.776  -6.392  -0.293  0.00  0.00    -0.001 C 
ENDROOT
BRANCH   1   2
ATOM      2  C   UNL     1      -5.745  -7.892  -0.431  0.00  0.00    +0.119 A 
ATOM      3  N   UNL     1      -5.610  -8.415  -1.638  0.00  0.00    -0.195 NA
ATOM      4  C   UNL     1      -5.576  -9.729  -1.817  0.00  0.00    +0.284 A 
ATOM      5  O   UNL     1      -5.438 -10.256  -3.057  0.00  0.00    -0.265 OA
ATOM      6  C   UNL     1      -5.687 -10.562  -0.690  0.00  0.00    +0.105 A 
ATOM      7  C   UNL     1      -5.693 -11.959  -0.483  0.00  0.00    +0.150 A 
ATOM      8  N   UNL     1      -5.826 -12.188   0.793  0.00  0.00    -0.172 NA
ATOM      9  N   UNL     1      -5.914 -10.973   1.484  0.00  0.00    -0.214 N 
ATOM     10  C   UNL     1      -5.829  -9.957   0.575  0.00  0.00    +0.170 A 
ATOM     11  N   UNL     1      -5.847  -8.628   0.653  0.00  0.00    -0.214 NA
BRANCH   9  12
ATOM     12  C   UNL     1      -6.063 -10.825   2.869  0.00  0.00    +0.068 A 
ATOM     13  C   UNL     1      -5.457  -9.762   3.525  0.00  0.00    +0.028 A 
ATOM     14  C   UNL     1      -5.606  -9.619   4.891  0.00  0.00    +0.002 A 
ATOM     15  C   UNL     1      -6.359 -10.534   5.605  0.00  0.00    +0.000 A 
ATOM     16  C   UNL     1      -6.963 -11.594   4.955  0.00  0.00    +0.002 A 
ATOM     17  C   UNL     1      -6.822 -11.739   3.588  0.00  0.00    +0.028 A 
ENDBRANCH   9  12
ENDBRANCH   1   2
BRANCH   1  22
ATOM     18  C   UNL     1      -2.994  -3.891   0.010  0.00  0.00    -0.011 C 
ATOM     19  C   UNL     1      -2.366  -4.401   1.310  0.00  0.00    +0.001 C 
ATOM     20  C   UNL     1      -2.421  -5.931   1.326  0.00  0.00    -0.018 C 
ATOM     21  C   UNL     1      -3.874  -6.386   1.166  0.00  0.00    -0.078 C 
ATOM     22  N   UNL     1      -4.408  -5.888  -0.108  0.00  0.00    +0.385 N 
ATOM     23  C   UNL     1      -4.425  -4.421  -0.103  0.00  0.00    -0.073 C 
ATOM     24  H   UNL     1      -3.826  -6.214  -0.865  0.00  0.00    -0.081 HD
BRANCH  18  25
ATOM     25  C   UNL     1      -3.014  -2.361   0.018  0.00  0.00    +0.106 C 
BRANCH  25  28
ATOM     26  C   UNL     1      -1.412  -0.526   0.013  0.00  0.00    +0.216 C 
ATOM     27  O   UNL     1      -2.344   0.250   0.026  0.00  0.00    -0.276 OA
ATOM     28  N   UNL     1      -1.640  -1.854   0.008  0.00  0.00    -0.315 N 
ATOM     29  H   UNL     1      -0.894  -2.474  -0.003  0.00  0.00    +0.149 HD
BRANCH  26  31
ATOM     30  C   UNL     1      -0.019   1.526   0.010  0.00  0.00    +0.017 C 
ATOM     31  C   UNL     1       0.002  -0.004   0.002  0.00  0.00    +0.069 C 
ATOM     32  C   UNL     1       0.742  -0.511   1.242  0.00  0.00    +0.017 C 
ENDBRANCH  26  31
ENDBRANCH  25  28
ENDBRANCH  18  25
ENDBRANCH   1  22
TORSDOF 6
