REMARK  Name = ZINC13273042
REMARK  7 active torsions:
REMARK  status: ('A' for Active; 'I' for Inactive)
REMARK    1  A    between atoms: C_1  and  N_2
REMARK    2  A    between atoms: C_6  and  S_7
REMARK    3  A    between atoms: S_7  and  C_8
REMARK    4  A    between atoms: C_11  and  S_17
REMARK    5  A    between atoms: C_13  and  N_14
REMARK    6  A    between atoms: S_17  and  N_20
REMARK    7  A    between atoms: C_23  and  C_26
REMARK                            x       y       z     vdW  Elec       q    Type
REMARK                         _______ _______ _______ _____ _____    ______ ____
ROOT
ATOM      1  C   UNL     1       0.226   5.760   0.068  0.00  0.00    +0.046 A 
ATOM      2  C   UNL     1      -1.069   5.267   0.172  0.00  0.00    +0.019 A 
ATOM      3  C   UNL     1      -2.136   6.141   0.222  0.00  0.00    +0.030 A 
ATOM      4  C   UNL     1      -1.919   7.506   0.157  0.00  0.00    +0.108 A 
ATOM      5  C   UNL     1      -0.632   8.000   0.047  0.00  0.00    +0.062 A 
ATOM      6  C   UNL     1       0.441   7.131   0.003  0.00  0.00    +0.142 A 
ENDROOT
BRANCH   6   7
ATOM      7  N   UNL     1       1.819   7.661  -0.113  0.00  0.00    +0.058 N 
ATOM      8  O   UNL     1       2.006   8.863  -0.170  0.00  0.00    -0.126 OA
ATOM      9  O   UNL     1       2.764   6.895  -0.152  0.00  0.00    -0.126 OA
ENDBRANCH   6   7
BRANCH   4  10
ATOM     10  S   UNL     1      -3.285   8.617   0.212  0.00  0.00    +0.061 S 
ATOM     11  O   UNL     1      -4.343   7.928   0.865  0.00  0.00    -0.153 OA
ATOM     12  O   UNL     1      -2.780   9.859   0.683  0.00  0.00    -0.153 OA
BRANCH  10  13
ATOM     13  N   UNL     1      -3.776   8.868  -1.349  0.00  0.00    -0.177 NA
ATOM     14  C   UNL     1      -3.209   9.965  -2.146  0.00  0.00    +0.110 C 
ATOM     15  C   UNL     1      -4.349  10.816  -2.702  0.00  0.00    +0.032 C 
ATOM     16  C   UNL     1      -5.324   9.921  -3.469  0.00  0.00    +0.105 C 
ATOM     17  C   UNL     1      -5.918   8.878  -2.520  0.00  0.00    +0.032 C 
ATOM     18  C   UNL     1      -4.792   8.001  -1.963  0.00  0.00    +0.110 C 
BRANCH  16  19
ATOM     19  C   UNL     1      -6.433  10.764  -4.045  0.00  0.00    +0.359 C 
ATOM     20  O   UNL     1      -7.580  10.553  -3.728  0.00  0.00    -0.246 OA
ATOM     21  O   UNL     1      -6.146  11.750  -4.910  0.00  0.00    -0.246 OA
ENDBRANCH  16  19
ENDBRANCH  10  13
ENDBRANCH   4  10
BRANCH   1  22
ATOM     22  S   UNL     1       1.593   4.649   0.012  0.00  0.00    -0.049 S 
BRANCH  22  28
ATOM     23  C   UNL     1       4.252   3.377   1.435  0.00  0.00    +0.151 C 
ATOM     24  N   UNL     1       3.316   4.238   2.163  0.00  0.00    -0.328 N 
ATOM     25  C   UNL     1       3.411   4.620   3.482  0.00  0.00    +0.107 A 
ATOM     26  C   UNL     1       2.348   5.400   3.742  0.00  0.00    +0.131 A 
ATOM     27  N   UNL     1       1.619   5.509   2.619  0.00  0.00    -0.230 NA
ATOM     28  C   UNL     1       2.188   4.812   1.663  0.00  0.00    +0.173 A 
ENDBRANCH  22  28
ENDBRANCH   1  22
TORSDOF 6
