REMARK  Name = ZINC21191045
REMARK  9 active torsions:
REMARK  status: ('A' for Active; 'I' for Inactive)
REMARK    1  A    between atoms: C_1  and  C_2
REMARK    2  A    between atoms: C_2  and  C_3
REMARK    3  A    between atoms: C_3  and  C_4
REMARK    4  A    between atoms: C_3  and  C_5
REMARK    5  A    between atoms: C_3  and  C_6
REMARK    6  A    between atoms: N_14  and  C_18
REMARK    7  A    between atoms: C_18  and  C_19
REMARK    8  A    between atoms: N_21  and  N_22
REMARK    9  A    between atoms: C_23  and  C_25
REMARK                            x       y       z     vdW  Elec       q    Type
REMARK                         _______ _______ _______ _____ _____    ______ ____
ROOT
ATOM      1  C   UNL     1      -3.132  11.766  -0.034  0.00  0.00    +0.215 C 
ENDROOT
BRANCH   1  10
ATOM      2  C   UNL     1      -8.857  13.518  -1.006  0.00  0.00    -0.005 C 
ATOM      3  C   UNL     1      -8.436  12.192  -0.370  0.00  0.00    +0.006 C 
ATOM      4  C   UNL     1      -7.667  12.470   0.924  0.00  0.00    +0.035 C 
ATOM      5  C   UNL     1      -6.438  13.318   0.617  0.00  0.00    +0.113 C 
ATOM      6  C   UNL     1      -6.840  14.633  -0.041  0.00  0.00    +0.035 C 
ATOM      7  C   UNL     1      -7.612  14.347  -1.331  0.00  0.00    +0.006 C 
ATOM      8  C   UNL     1      -5.478  12.561  -0.272  0.00  0.00    +0.247 C 
ATOM      9  O   UNL     1      -5.686  12.146  -1.392  0.00  0.00    -0.273 OA
ATOM     10  N   UNL     1      -4.341  12.441   0.446  0.00  0.00    -0.215 N 
ATOM     11  C   UNL     1      -4.454  13.019   1.648  0.00  0.00    +0.310 C 
ATOM     12  O   UNL     1      -3.561  13.045   2.471  0.00  0.00    -0.252 OA
ATOM     13  N   UNL     1      -5.668  13.569   1.841  0.00  0.00    -0.285 N 
ATOM     14  H   UNL     1      -6.127  14.118   2.677  0.00  0.00    +0.151 HD
BRANCH   2  15
ATOM     15  C   UNL     1      -9.636  13.242  -2.293  0.00  0.00    -0.032 C 
ATOM     16  C   UNL     1      -8.748  12.467  -3.270  0.00  0.00    +0.011 C 
ATOM     17  C   UNL     1     -10.881  12.414  -1.969  0.00  0.00    +0.011 C 
BRANCH  15  19
ATOM     18  C   UNL     1     -10.836  14.292  -4.217  0.00  0.00    +0.004 C 
ATOM     19  C   UNL     1     -10.057  14.568  -2.930  0.00  0.00    +0.003 C 
ENDBRANCH  15  19
ENDBRANCH   2  15
ENDBRANCH   1  10
BRANCH   1  20
ATOM     20  C   UNL     1      -3.186  10.309   0.348  0.00  0.00    +0.247 C 
ATOM     21  O   UNL     1      -4.139   9.877   0.960  0.00  0.00    -0.273 OA
ATOM     22  N   UNL     1      -2.173   9.486   0.009  0.00  0.00    -0.233 N 
ATOM     23  H   UNL     1      -1.308   9.879  -0.546  0.00  0.00    +0.173 HD
BRANCH  22  24
ATOM     24  N   UNL     1      -2.222   8.132   0.364  0.00  0.00    -0.231 N 
ATOM     25  C   UNL     1      -1.210   7.309   0.025  0.00  0.00    +0.273 C 
ATOM     26  O   UNL     1      -0.256   7.742  -0.587  0.00  0.00    -0.270 OA
ATOM     27  H   UNL     1      -3.087   7.740   0.919  0.00  0.00    +0.173 HD
BRANCH  25  28
ATOM     28  C   UNL     1      -1.263   5.852   0.407  0.00  0.00    +0.297 C 
ATOM     29  C   UNL     1      -2.424   5.167  -0.326  0.00  0.00    +0.283 C 
ATOM     30  O   UNL     1      -2.437   3.785   0.048  0.00  0.00    -0.484 OA
ATOM     31  C   UNL     1      -1.241   3.136   0.030  0.00  0.00    +0.162 A 
ATOM     32  C   UNL     1      -1.219   1.749   0.017  0.00  0.00    +0.049 A 
ATOM     33  C   UNL     1      -0.013   1.076   0.008  0.00  0.00    +0.004 A 
ATOM     34  C   UNL     1       1.176   1.782   0.000  0.00  0.00    +0.004 A 
ATOM     35  C   UNL     1       1.161   3.164   0.007  0.00  0.00    +0.049 A 
ATOM     36  C   UNL     1      -0.046   3.846   0.020  0.00  0.00    +0.163 A 
ATOM     37  O   UNL     1      -0.045   5.207   0.019  0.00  0.00    -0.472 OA
ENDBRANCH  25  28
ENDBRANCH  22  24
ENDBRANCH   1  20
TORSDOF 6
