REMARK  Name = ZINC15666538
REMARK  4 active torsions:
REMARK  status: ('A' for Active; 'I' for Inactive)
REMARK    1  A    between atoms: N_11  and  C_15
REMARK    2  A    between atoms: C_15  and  C_16
REMARK    3  A    between atoms: N_18  and  N_19
REMARK    4  A    between atoms: C_20  and  C_22
REMARK                            x       y       z     vdW  Elec       q    Type
REMARK                         _______ _______ _______ _____ _____    ______ ____
ROOT
ATOM      1  C   UNL     1      -0.017   1.385   0.010  0.00  0.00    +0.002 A 
ATOM      2  C   UNL     1       1.125   2.132   0.003  0.00  0.00    +0.009 A 
ATOM      3  C   UNL     1       2.365   1.473  -0.012  0.00  0.00    -0.014 A 
ATOM      4  C   UNL     1       3.596   2.151  -0.019  0.00  0.00    +0.009 A 
ATOM      5  C   UNL     1       4.760   1.440  -0.034  0.00  0.00    +0.003 A 
ATOM      6  C   UNL     1       4.758   0.040  -0.042  0.00  0.00    +0.029 A 
ATOM      7  C   UNL     1       3.590  -0.629  -0.036  0.00  0.00    +0.118 A 
ATOM      8  C   UNL     1       2.374   0.063  -0.020  0.00  0.00    +0.031 A 
ATOM      9  C   UNL     1       1.209  -0.701  -0.013  0.00  0.00    +0.061 A 
ATOM     10  C   UNL     1       0.002  -0.004   0.002  0.00  0.00    +0.025 A 
ATOM     11  N   UNL     1       1.399  -2.093  -0.022  0.00  0.00    -0.193 N 
ATOM     12  S   UNL     1       3.061  -2.318  -0.041  0.00  0.00    +0.076 S 
ATOM     13  O   UNL     1       3.409  -2.878  -1.299  0.00  0.00    -0.150 OA
ATOM     14  O   UNL     1       3.434  -2.893   1.204  0.00  0.00    -0.150 OA
ENDROOT
BRANCH  11  15
ATOM     15  C   UNL     1       0.364  -3.130  -0.017  0.00  0.00    +0.228 C 
BRANCH  15  16
ATOM     16  C   UNL     1      -0.093  -3.390  -1.430  0.00  0.00    +0.248 C 
ATOM     17  O   UNL     1       0.398  -2.771  -2.350  0.00  0.00    -0.272 OA
ATOM     18  N   UNL     1      -1.047  -4.311  -1.671  0.00  0.00    -0.233 N 
ATOM     19  H   UNL     1      -1.439  -4.806  -0.935  0.00  0.00    +0.173 HD
BRANCH  18  20
ATOM     20  N   UNL     1      -1.471  -4.553  -2.984  0.00  0.00    -0.230 N 
ATOM     21  C   UNL     1      -2.425  -5.474  -3.224  0.00  0.00    +0.267 C 
ATOM     22  O   UNL     1      -2.918  -6.096  -2.301  0.00  0.00    -0.268 OA
ATOM     23  H   UNL     1      -1.079  -4.058  -3.719  0.00  0.00    +0.173 HD
BRANCH  21  24
ATOM     24  C   UNL     1      -2.870  -5.727  -4.598  0.00  0.00    +0.075 A 
ATOM     25  C   UNL     1      -3.830  -6.617  -5.056  0.00  0.00    +0.021 A 
ATOM     26  C   UNL     1      -4.030  -6.630  -6.416  0.00  0.00    +0.008 A 
ATOM     27  C   UNL     1      -3.299  -5.799  -7.198  0.00  0.00    +0.046 A 
ATOM     28  S   UNL     1      -2.322  -4.967  -6.114  0.00  0.00    -0.092 S 
ENDBRANCH  21  24
ENDBRANCH  18  20
ENDBRANCH  15  16
ENDBRANCH  11  15
TORSDOF 4
