REMARK  Name = ZINC08664656
REMARK  5 active torsions:
REMARK  status: ('A' for Active; 'I' for Inactive)
REMARK    1  A    between atoms: C_1  and  C_2
REMARK    2  A    between atoms: N_13  and  N_14
REMARK    3  A    between atoms: C_15  and  C_17
REMARK    4  A    between atoms: C_19  and  O_24
REMARK    5  A    between atoms: C_21  and  O_23
REMARK                            x       y       z     vdW  Elec       q    Type
REMARK                         _______ _______ _______ _____ _____    ______ ____
ROOT
ATOM      1  C   UNL     1      -0.018   1.503   0.010  0.00  0.00    +0.045 C 
ATOM      2  C   UNL     1       0.002  -0.004   0.002  0.00  0.00    -0.036 A 
ATOM      3  C   UNL     1       0.006  -0.687  -1.198  0.00  0.00    +0.016 A 
ATOM      4  C   UNL     1       0.025  -2.077  -1.200  0.00  0.00    +0.028 A 
ATOM      5  C   UNL     1       0.041  -2.788   0.007  0.00  0.00    +0.044 A 
ATOM      6  C   UNL     1       0.036  -2.084   1.206  0.00  0.00    +0.039 A 
ATOM      7  C   UNL     1       0.023  -0.702   1.198  0.00  0.00    +0.023 A 
ATOM      8 BR   UNL     1       0.026   0.244   2.836  0.00  0.00    -0.050 Br
ATOM      9  N   UNL     1       0.059  -4.152  -0.263  0.00  0.00    -0.280 N 
ATOM     10  C   UNL     1       0.056  -4.391  -1.585  0.00  0.00    +0.269 C 
ATOM     11  O   UNL     1       0.069  -5.487  -2.114  0.00  0.00    -0.268 OA
ATOM     12  C   UNL     1       0.034  -3.090  -2.282  0.00  0.00    +0.153 C 
ATOM     13  N   UNL     1       0.025  -2.876  -3.575  0.00  0.00    -0.174 NA
ATOM     14  H   UNL     1       0.072  -4.843   0.418  0.00  0.00    +0.155 HD
ENDROOT
BRANCH  13  15
ATOM     15  N   UNL     1       0.036  -3.959  -4.464  0.00  0.00    -0.202 N 
ATOM     16  C   UNL     1       0.026  -3.740  -5.794  0.00  0.00    +0.264 C 
ATOM     17  O   UNL     1       0.007  -2.603  -6.222  0.00  0.00    -0.268 OA
ATOM     18  H   UNL     1       0.051  -4.867  -4.122  0.00  0.00    +0.178 HD
BRANCH  16  19
ATOM     19  C   UNL     1       0.038  -4.882  -6.731  0.00  0.00    +0.045 A 
ATOM     20  C   UNL     1       0.054  -6.189  -6.241  0.00  0.00    +0.058 A 
ATOM     21  C   UNL     1       0.065  -7.257  -7.123  0.00  0.00    +0.121 A 
ATOM     22  C   UNL     1       0.060  -7.029  -8.492  0.00  0.00    +0.090 A 
ATOM     23  C   UNL     1       0.044  -5.731  -8.983  0.00  0.00    +0.121 A 
ATOM     24  C   UNL     1       0.028  -4.658  -8.108  0.00  0.00    +0.058 A 
BRANCH  23  25
ATOM     25  O   UNL     1       0.039  -5.513 -10.325  0.00  0.00    -0.507 OA
ATOM     26  H   UNL     1      -0.846  -5.461 -10.711  0.00  0.00    +0.292 HD
ENDBRANCH  23  25
BRANCH  21  27
ATOM     27  O   UNL     1       0.080  -8.530  -6.648  0.00  0.00    -0.507 OA
ATOM     28  H   UNL     1      -0.798  -8.909  -6.508  0.00  0.00    +0.292 HD
ENDBRANCH  21  27
ENDBRANCH  16  19
ENDBRANCH  13  15
TORSDOF 4
