REMARK  Name = ZINC09282358
REMARK  9 active torsions:
REMARK  status: ('A' for Active; 'I' for Inactive)
REMARK    1  A    between atoms: C_1  and  O_2
REMARK    2  A    between atoms: O_2  and  C_3
REMARK    3  A    between atoms: C_7  and  C_9
REMARK    4  A    between atoms: C_16  and  N_32
REMARK    5  A    between atoms: C_17  and  C_30
REMARK    6  A    between atoms: C_18  and  C_20
REMARK    7  A    between atoms: C_22  and  O_28
REMARK    8  A    between atoms: C_23  and  O_27
REMARK    9  A    between atoms: O_28  and  C_29
REMARK                            x       y       z     vdW  Elec       q    Type
REMARK                         _______ _______ _______ _____ _____    ______ ____
ROOT
ATOM      1  C   UNL     1      -2.670  -4.506  -0.109  0.00  0.00    +0.074 A 
ATOM      2  C   UNL     1      -3.388  -5.117   0.864  0.00  0.00    +0.054 A 
ATOM      3  C   UNL     1      -3.260  -6.510   0.693  0.00  0.00    +0.245 A 
ATOM      4  N   UNL     1      -2.498  -6.727  -0.341  0.00  0.00    -0.135 NA
ATOM      5  N   UNL     1      -2.110  -5.489  -0.876  0.00  0.00    -0.273 N 
ATOM      6  H   UNL     1      -1.543  -5.355  -1.651  0.00  0.00    +0.189 HD
ATOM      7  O   UNL     1      -3.871  -7.396   1.525  0.00  0.00    -0.421 OA
ATOM      8  C   UNL     1      -4.380  -6.918   2.678  0.00  0.00    +0.201 C 
ATOM      9  C   UNL     1      -4.559  -5.609   2.949  0.00  0.00    +0.098 C 
ATOM     10  C   UNL     1      -4.209  -4.513   1.974  0.00  0.00    +0.102 C 
ENDROOT
BRANCH  10  11
ATOM     11  C   UNL     1      -5.470  -3.915   1.406  0.00  0.00    -0.030 A 
ATOM     12  C   UNL     1      -5.763  -2.582   1.630  0.00  0.00    +0.054 A 
ATOM     13  C   UNL     1      -6.923  -2.030   1.109  0.00  0.00    +0.163 A 
ATOM     14  C   UNL     1      -7.790  -2.820   0.360  0.00  0.00    +0.173 A 
ATOM     15  C   UNL     1      -7.490  -4.155   0.138  0.00  0.00    +0.063 A 
ATOM     16  C   UNL     1      -6.328  -4.698   0.658  0.00  0.00    +0.023 A 
ATOM     17 BR   UNL     1      -8.665  -5.232  -0.879  0.00  0.00    -0.046 Br
BRANCH  14  18
ATOM     18  O   UNL     1      -8.929  -2.283  -0.153  0.00  0.00    -0.503 OA
ATOM     19  H   UNL     1      -8.823  -1.907  -1.038  0.00  0.00    +0.292 HD
ENDBRANCH  14  18
BRANCH  13  20
ATOM     20  O   UNL     1      -7.213  -0.720   1.330  0.00  0.00    -0.491 OA
ATOM     21  C   UNL     1      -6.277   0.029   2.108  0.00  0.00    +0.277 C 
ENDBRANCH  13  20
ENDBRANCH  10  11
BRANCH   1  26
ATOM     22  C   UNL     1      -2.084  -0.857   0.580  0.00  0.00    +0.121 A 
ATOM     23  C   UNL     1      -2.252  -0.314  -0.687  0.00  0.00    +0.045 A 
ATOM     24  C   UNL     1      -2.554  -1.133  -1.760  0.00  0.00    +0.004 A 
ATOM     25  C   UNL     1      -2.691  -2.494  -1.577  0.00  0.00    +0.010 A 
ATOM     26  C   UNL     1      -2.524  -3.047  -0.308  0.00  0.00    +0.004 A 
ATOM     27  C   UNL     1      -2.213  -2.222   0.772  0.00  0.00    +0.055 A 
BRANCH  22  29
ATOM     28  C   UNL     1      -1.667   1.350   1.360  0.00  0.00    +0.277 C 
ATOM     29  O   UNL     1      -1.786  -0.048   1.631  0.00  0.00    -0.495 OA
ENDBRANCH  22  29
ENDBRANCH   1  26
BRANCH   8  30
ATOM     30  N   UNL     1      -4.740  -7.826   3.642  0.00  0.00    -0.328 N 
ATOM     31  H   UNL     1      -4.625  -8.776   3.481  0.00  0.00    +0.145 HD
ATOM     32  H   UNL     1      -5.109  -7.518   4.484  0.00  0.00    +0.145 HD
ENDBRANCH   8  30
BRANCH   9  33
ATOM     33  C   UNL     1      -5.108  -5.243   4.220  0.00  0.00    +0.101 C 
ATOM     34  N   UNL     1      -5.543  -4.953   5.229  0.00  0.00    -0.191 NA
ENDBRANCH   9  33
TORSDOF 7
