REMARK  Name = ZINC10762551
REMARK  9 active torsions:
REMARK  status: ('A' for Active; 'I' for Inactive)
REMARK    1  A    between atoms: C_1  and  C_2
REMARK    2  A    between atoms: N_11  and  C_15
REMARK    3  A    between atoms: C_15  and  C_16
REMARK    4  A    between atoms: C_16  and  O_18
REMARK    5  A    between atoms: O_18  and  C_19
REMARK    6  A    between atoms: C_19  and  C_20
REMARK    7  A    between atoms: N_22  and  C_23
REMARK    8  A    between atoms: C_27  and  S_29
REMARK    9  A    between atoms: S_29  and  C_30
REMARK                            x       y       z     vdW  Elec       q    Type
REMARK                         _______ _______ _______ _____ _____    ______ ____
ROOT
ATOM      1  C   UNL     1      -2.969   0.338   5.573  0.00  0.00    +0.326 C 
ATOM      2  O   UNL     1      -1.783   0.360   5.345  0.00  0.00    -0.249 OA
ENDROOT
BRANCH   1   3
ATOM      3  C   UNL     1      -3.956   0.337   4.434  0.00  0.00    +0.238 C 
BRANCH   3  13
ATOM      4  C   UNL     1       0.004   1.017   2.505  0.00  0.00    +0.010 C 
ATOM      5  C   UNL     1      -0.720   1.542   1.264  0.00  0.00    +0.018 C 
ATOM      6  C   UNL     1      -0.006   1.039   0.006  0.00  0.00    +0.006 C 
ATOM      7  C   UNL     1      -0.743   1.548  -1.235  0.00  0.00    +0.000 C 
ATOM      8  C   UNL     1      -2.180   1.021  -1.230  0.00  0.00    +0.003 C 
ATOM      9  C   UNL     1      -2.901   1.524   0.024  0.00  0.00    +0.035 C 
ATOM     10  C   UNL     1      -2.161   1.042   1.266  0.00  0.00    +0.115 C 
ATOM     11  C   UNL     1      -2.876   1.498   2.517  0.00  0.00    +0.247 C 
ATOM     12  O   UNL     1      -3.084   2.639   2.868  0.00  0.00    -0.273 OA
ATOM     13  N   UNL     1      -3.232   0.367   3.161  0.00  0.00    -0.213 N 
ATOM     14  C   UNL     1      -2.842  -0.725   2.491  0.00  0.00    +0.310 C 
ATOM     15  O   UNL     1      -3.049  -1.861   2.872  0.00  0.00    -0.252 OA
ATOM     16  N   UNL     1      -2.196  -0.424   1.349  0.00  0.00    -0.285 N 
ATOM     17  H   UNL     1      -1.826  -1.051   0.708  0.00  0.00    +0.151 HD
ENDBRANCH   3  13
ENDBRANCH   1   3
BRANCH   1  18
ATOM     18  O   UNL     1      -3.409   0.313   6.841  0.00  0.00    -0.454 OA
BRANCH  18  19
ATOM     19  C   UNL     1      -2.402   0.316   7.888  0.00  0.00    +0.328 C 
BRANCH  19  20
ATOM     20  C   UNL     1      -3.077   0.286   9.234  0.00  0.00    +0.255 C 
ATOM     21  O   UNL     1      -4.288   0.265   9.306  0.00  0.00    -0.272 OA
ATOM     22  N   UNL     1      -2.336   0.283  10.360  0.00  0.00    -0.283 N 
ATOM     23  H   UNL     1      -1.369   0.232  10.304  0.00  0.00    +0.155 HD
BRANCH  22  24
ATOM     24  C   UNL     1      -2.961   0.353  11.610  0.00  0.00    +0.035 A 
ATOM     25  C   UNL     1      -2.354   1.042  12.653  0.00  0.00    +0.023 A 
ATOM     26  C   UNL     1      -2.973   1.116  13.886  0.00  0.00    +0.003 A 
ATOM     27  C   UNL     1      -4.191   0.497  14.090  0.00  0.00    +0.015 A 
ATOM     28  C   UNL     1      -4.801  -0.199  13.052  0.00  0.00    +0.009 A 
ATOM     29  C   UNL     1      -4.184  -0.270  11.810  0.00  0.00    +0.038 A 
BRANCH  28  30
ATOM     30  S   UNL     1      -6.354  -0.989  13.312  0.00  0.00    -0.129 S 
ATOM     31  C   UNL     1      -6.747  -0.624  15.046  0.00  0.00    +0.090 C 
ENDBRANCH  28  30
ENDBRANCH  22  24
ENDBRANCH  19  20
ENDBRANCH  18  19
ENDBRANCH   1  18
TORSDOF 7
