REMARK  Name = ZINC23300115
REMARK  8 active torsions:
REMARK  status: ('A' for Active; 'I' for Inactive)
REMARK    1  A    between atoms: C_1  and  C_2
REMARK    2  A    between atoms: C_2  and  N_3
REMARK    3  A    between atoms: N_3  and  C_4
REMARK    4  A    between atoms: C_11  and  C_13
REMARK    5  A    between atoms: C_13  and  N_14
REMARK    6  A    between atoms: C_19  and  C_26
REMARK    7  A    between atoms: C_22  and  C_24
REMARK    8  A    between atoms: C_22  and  C_25
REMARK                            x       y       z     vdW  Elec       q    Type
REMARK                         _______ _______ _______ _____ _____    ______ ____
ROOT
ATOM      1  N   UNL     1       2.095   1.414  -0.091  0.00  0.00    -0.215 N 
ATOM      2  C   UNL     1       1.208   0.410  -0.262  0.00  0.00    +0.247 C 
ATOM      3  O   UNL     1       1.470  -0.725  -0.599  0.00  0.00    -0.273 OA
ATOM      4  C   UNL     1      -0.148   1.010   0.021  0.00  0.00    +0.113 C 
ATOM      5  C   UNL     1      -1.095   0.783  -1.149  0.00  0.00    +0.038 C 
ATOM      6  C   UNL     1      -1.538  -0.680  -1.188  0.00  0.00    -0.011 C 
ATOM      7  C   UNL     1      -2.295  -0.997   0.099  0.00  0.00    +0.009 C 
ATOM      8  C   UNL     1      -1.399  -0.818   1.319  0.00  0.00    -0.032 C 
ATOM      9  C   UNL     1      -0.715   0.538   1.345  0.00  0.00    +0.041 C 
ATOM     10  C   UNL     1      -2.288  -0.929   2.576  0.00  0.00    +0.011 C 
ATOM     11  C   UNL     1      -0.367  -1.947   1.385  0.00  0.00    +0.011 C 
ATOM     12  C   UNL     1      -2.464  -0.896  -2.389  0.00  0.00    +0.007 C 
ATOM     13  N   UNL     1       0.140   2.459   0.123  0.00  0.00    -0.285 N 
ATOM     14  C   UNL     1       1.478   2.583   0.112  0.00  0.00    +0.310 C 
ATOM     15  O   UNL     1       2.063   3.638   0.269  0.00  0.00    -0.252 OA
ATOM     16  H   UNL     1      -0.687   3.181   0.188  0.00  0.00    +0.151 HD
ENDROOT
BRANCH   1  17
ATOM     17  C   UNL     1       3.549   1.246  -0.145  0.00  0.00    +0.214 C 
BRANCH  17  19
ATOM     18  N   UNL     1       5.337   1.339  -1.853  0.00  0.00    -0.270 N 
ATOM     19  C   UNL     1       4.025   1.446  -1.561  0.00  0.00    +0.238 C 
ATOM     20  O   UNL     1       3.228   1.705  -2.438  0.00  0.00    -0.274 OA
BRANCH  18  21
ATOM     21  C   UNL     1       5.768   1.425  -3.182  0.00  0.00    +0.036 A 
ATOM     22  C   UNL     1       5.440   0.423  -4.085  0.00  0.00    +0.026 A 
ATOM     23  C   UNL     1       5.862   0.513  -5.398  0.00  0.00    +0.040 A 
ATOM     24  C   UNL     1       6.620   1.595  -5.810  0.00  0.00    +0.124 A 
ATOM     25  C   UNL     1       6.952   2.593  -4.909  0.00  0.00    +0.040 A 
ATOM     26  C   UNL     1       6.528   2.510  -3.598  0.00  0.00    +0.026 A 
ATOM     27  F   UNL     1       7.035   1.679  -7.093  0.00  0.00    -0.205 F 
ENDBRANCH  18  21
BRANCH  18  29
ATOM     28  C   UNL     1       6.503  -0.367  -0.545  0.00  0.00    +0.025 C 
ATOM     29  C   UNL     1       6.311   1.133  -0.778  0.00  0.00    +0.110 C 
ENDBRANCH  18  29
ENDBRANCH  17  19
ENDBRANCH   1  17
TORSDOF 4
