REMARK  Name = ZINC39324531
REMARK  15 active torsions:
REMARK  status: ('A' for Active; 'I' for Inactive)
REMARK    1  A    between atoms: C_1  and  C_2
REMARK    2  A    between atoms: C_2  and  C_3
REMARK    3  A    between atoms: C_3  and  N_4
REMARK    4  A    between atoms: C_7  and  C_8
REMARK    5  A    between atoms: C_13  and  O_14
REMARK    6  A    between atoms: O_14  and  C_15
REMARK    7  A    between atoms: C_15  and  C_16
REMARK    8  A    between atoms: C_15  and  C_17
REMARK    9  A    between atoms: C_21  and  C_29
REMARK   10  A    between atoms: C_23  and  C_27
REMARK   11  A    between atoms: C_24  and  N_26
REMARK   12  A    between atoms: C_34  and  O_35
REMARK   13  A    between atoms: O_35  and  C_36
REMARK   14  A    between atoms: C_36  and  C_37
REMARK   15  A    between atoms: C_36  and  C_38
REMARK                            x       y       z     vdW  Elec       q    Type
REMARK                         _______ _______ _______ _____ _____    ______ ____
ROOT
ATOM      1  N   UNL     1      -0.741  -1.947   0.288  0.00  0.00    -0.294 NA
ATOM      2  C   UNL     1      -0.413  -2.580  -1.002  0.00  0.00    +0.123 C 
ATOM      3  C   UNL     1      -0.487  -4.078  -0.791  0.00  0.00    +0.010 C 
ATOM      4  C   UNL     1       0.423  -4.905  -1.336  0.00  0.00    +0.020 C 
ATOM      5  C   UNL     1      -1.596  -4.597   0.036  0.00  0.00    +0.136 C 
ATOM      6  C   UNL     1      -2.356  -3.747   0.730  0.00  0.00    -0.000 C 
ATOM      7  C   UNL     1      -2.116  -2.260   0.683  0.00  0.00    +0.120 C 
ATOM      8  C   UNL     1      -3.487  -4.262   1.588  0.00  0.00    +0.099 C 
ATOM      9  C   UNL     1      -3.858  -5.660   1.181  0.00  0.00    +0.098 C 
ATOM     10  C   UNL     1      -3.005  -6.417   0.447  0.00  0.00    +0.199 C 
ATOM     11  O   UNL     1      -1.810  -5.935   0.065  0.00  0.00    -0.441 OA
ENDROOT
BRANCH   4  12
ATOM     12  C   UNL     1       1.431  -4.378  -2.271  0.00  0.00    +0.017 A 
ATOM     13  C   UNL     1       1.106  -3.330  -3.137  0.00  0.00    +0.011 A 
ATOM     14  C   UNL     1       2.055  -2.841  -4.009  0.00  0.00    +0.001 A 
ATOM     15  C   UNL     1       3.328  -3.384  -4.032  0.00  0.00    +0.004 A 
ATOM     16  C   UNL     1       3.662  -4.420  -3.181  0.00  0.00    +0.046 A 
ATOM     17  C   UNL     1       2.724  -4.920  -2.294  0.00  0.00    +0.128 A 
BRANCH  17  18
ATOM     18  O   UNL     1       3.053  -5.935  -1.453  0.00  0.00    -0.489 OA
BRANCH  18  19
ATOM     19  C   UNL     1       4.418  -6.357  -1.448  0.00  0.00    +0.167 C 
ATOM     20  C   UNL     1       4.756  -6.974  -0.090  0.00  0.00    +0.051 C 
ATOM     21  C   UNL     1       4.634  -7.398  -2.549  0.00  0.00    +0.051 C 
ENDBRANCH  18  19
ENDBRANCH  17  18
ENDBRANCH   4  12
BRANCH   8  22
ATOM     22  C   UNL     1      -3.056  -4.265   3.032  0.00  0.00    +0.007 A 
ATOM     23  C   UNL     1      -1.962  -5.012   3.425  0.00  0.00    +0.008 A 
ATOM     24  C   UNL     1      -1.567  -5.015   4.750  0.00  0.00    +0.001 A 
ATOM     25  C   UNL     1      -2.264  -4.271   5.684  0.00  0.00    +0.004 A 
ATOM     26  C   UNL     1      -3.357  -3.521   5.295  0.00  0.00    +0.046 A 
ATOM     27  C   UNL     1      -3.753  -3.512   3.966  0.00  0.00    +0.125 A 
BRANCH  27  28
ATOM     28  O   UNL     1      -4.825  -2.771   3.580  0.00  0.00    -0.489 OA
BRANCH  28  29
ATOM     29  C   UNL     1      -5.446  -1.960   4.578  0.00  0.00    +0.167 C 
ATOM     30  C   UNL     1      -6.162  -0.786   3.909  0.00  0.00    +0.051 C 
ATOM     31  C   UNL     1      -6.461  -2.799   5.358  0.00  0.00    +0.051 C 
ENDBRANCH  28  29
ENDBRANCH  27  28
ENDBRANCH   8  22
BRANCH  10  32
ATOM     32  N   UNL     1      -3.368  -7.691   0.089  0.00  0.00    -0.328 N 
ATOM     33  H   UNL     1      -4.229  -8.045   0.361  0.00  0.00    +0.145 HD
ATOM     34  H   UNL     1      -2.763  -8.238  -0.436  0.00  0.00    +0.145 HD
ENDBRANCH  10  32
BRANCH   9  35
ATOM     35  C   UNL     1      -5.126  -6.198   1.574  0.00  0.00    +0.101 C 
ATOM     36  N   UNL     1      -6.131  -6.626   1.885  0.00  0.00    -0.191 NA
ENDBRANCH   9  35
BRANCH   1  37
ATOM     37  C   UNL     1      -0.527  -0.495   0.232  0.00  0.00    +0.085 C 
BRANCH  37  39
ATOM     38  C   UNL     1       1.189   1.306   0.005  0.00  0.00    +0.005 C 
ATOM     39  C   UNL     1       0.966  -0.206   0.064  0.00  0.00    +0.012 C 
ENDBRANCH  37  39
ENDBRANCH   1  37
TORSDOF 10
