REMARK  Name = ZINC13233602
REMARK  8 active torsions:
REMARK  status: ('A' for Active; 'I' for Inactive)
REMARK    1  A    between atoms: C_1  and  C_2
REMARK    2  A    between atoms: C_2  and  C_4
REMARK    3  A    between atoms: C_2  and  N_6
REMARK    4  A    between atoms: C_16  and  S_17
REMARK    5  A    between atoms: S_17  and  C_18
REMARK    6  A    between atoms: C_18  and  C_19
REMARK    7  A    between atoms: N_24  and  C_25
REMARK    8  A    between atoms: C_25  and  C_26
REMARK                            x       y       z     vdW  Elec       q    Type
REMARK                         _______ _______ _______ _____ _____    ______ ____
ROOT
ATOM      1  C   UNL     1      -5.290   3.253   0.072  0.00  0.00    +0.231 C 
ATOM      2  O   UNL     1      -5.538   4.439   0.081  0.00  0.00    -0.274 OA
ATOM      3  N   UNL     1      -6.295   2.355   0.076  0.00  0.00    -0.240 N 
ATOM      4  C   UNL     1      -7.575   2.776   0.091  0.00  0.00    +0.306 C 
ATOM      5  O   UNL     1      -7.823   3.966   0.101  0.00  0.00    -0.252 OA
ATOM      6  N   UNL     1      -8.580   1.878   0.096  0.00  0.00    -0.295 N 
ATOM      7  H   UNL     1      -6.097   1.405   0.069  0.00  0.00    +0.159 HD
ATOM      8  H   UNL     1      -8.382   0.928   0.089  0.00  0.00    +0.150 HD
ENDROOT
BRANCH   1   9
ATOM      9  C   UNL     1      -3.859   2.781   0.055  0.00  0.00    +0.173 C 
BRANCH   9  10
ATOM     10  S   UNL     1      -2.752   4.214   0.052  0.00  0.00    -0.078 S 
BRANCH  10  21
ATOM     11  N   UNL     1      -0.058   4.156   0.026  0.00  0.00    -0.273 N 
ATOM     12  C   UNL     1       1.162   3.569   0.011  0.00  0.00    +0.263 A 
ATOM     13  O   UNL     1       2.182   4.232   0.004  0.00  0.00    -0.267 OA
ATOM     14  C   UNL     1       1.208   2.100   0.002  0.00  0.00    +0.065 A 
ATOM     15  C   UNL     1       2.414   1.401  -0.013  0.00  0.00    +0.015 A 
ATOM     16  C   UNL     1       2.400   0.034  -0.021  0.00  0.00    +0.001 A 
ATOM     17  C   UNL     1       1.198  -0.664  -0.013  0.00  0.00    +0.002 A 
ATOM     18  C   UNL     1       0.002  -0.004   0.002  0.00  0.00    +0.028 A 
ATOM     19  C   UNL     1      -0.017   1.394   0.010  0.00  0.00    +0.079 A 
ATOM     20  N   UNL     1      -1.174   2.085   0.030  0.00  0.00    -0.223 NA
ATOM     21  C   UNL     1      -1.192   3.395   0.033  0.00  0.00    +0.173 A 
BRANCH  11  23
ATOM     22  C   UNL     1       0.533   6.169   1.282  0.00  0.00    +0.043 C 
ATOM     23  C   UNL     1      -0.162   5.617   0.036  0.00  0.00    +0.202 C 
BRANCH  23  24
ATOM     24  C   UNL     1       0.499   6.176  -1.198  0.00  0.00    +0.378 C 
ATOM     25  O   UNL     1       1.302   5.509  -1.808  0.00  0.00    -0.244 OA
ATOM     26  O   UNL     1       0.197   7.414  -1.619  0.00  0.00    -0.244 OA
ENDBRANCH  23  24
ENDBRANCH  11  23
ENDBRANCH  10  21
ENDBRANCH   9  10
ENDBRANCH   1   9
BRANCH   6  27
ATOM     27  C   UNL     1      -9.972   2.336   0.112  0.00  0.00    +0.153 C 
BRANCH  27  28
ATOM     28  C   UNL     1     -10.907   1.125   0.114  0.00  0.00    +0.228 C 
ATOM     29  C   UNL     1     -12.364   1.597   0.020  0.00  0.00    +0.275 C 
ATOM     30  O   UNL     1     -13.211   0.443   0.039  0.00  0.00    -0.485 OA
ATOM     31  C   UNL     1     -12.938  -0.502   0.981  0.00  0.00    +0.162 A 
ATOM     32  C   UNL     1     -13.901  -1.450   1.294  0.00  0.00    +0.049 A 
ATOM     33  C   UNL     1     -13.636  -2.418   2.243  0.00  0.00    +0.004 A 
ATOM     34  C   UNL     1     -12.410  -2.445   2.883  0.00  0.00    +0.004 A 
ATOM     35  C   UNL     1     -11.447  -1.503   2.576  0.00  0.00    +0.049 A 
ATOM     36  C   UNL     1     -11.707  -0.527   1.625  0.00  0.00    +0.163 A 
ATOM     37  O   UNL     1     -10.749   0.396   1.336  0.00  0.00    -0.480 OA
ENDBRANCH  27  28
ENDBRANCH   6  27
TORSDOF 7
