REMARK  Name = ZINC36353967
REMARK  6 active torsions:
REMARK  status: ('A' for Active; 'I' for Inactive)
REMARK    1  A    between atoms: C_1  and  C_2
REMARK    2  A    between atoms: C_6  and  C_11
REMARK    3  A    between atoms: C_12  and  O_14
REMARK    4  A    between atoms: O_14  and  C_15
REMARK    5  A    between atoms: C_15  and  C_16
REMARK    6  A    between atoms: N_18  and  C_19
REMARK                            x       y       z     vdW  Elec       q    Type
REMARK                         _______ _______ _______ _____ _____    ______ ____
ROOT
ATOM      1  C   UNL     1       0.066  -1.992   3.370  0.00  0.00    +0.324 C 
ENDROOT
BRANCH   1   2
ATOM      2  C   UNL     1       0.071  -2.853   4.607  0.00  0.00    +0.255 C 
ATOM      3  O   UNL     1       0.083  -4.062   4.504  0.00  0.00    -0.272 OA
ATOM      4  N   UNL     1       0.062  -2.281   5.827  0.00  0.00    -0.283 N 
ATOM      5  H   UNL     1      -0.025  -1.319   5.911  0.00  0.00    +0.155 HD
BRANCH   4   6
ATOM      6  C   UNL     1       0.180  -3.076   6.974  0.00  0.00    +0.037 A 
ATOM      7  C   UNL     1       0.980  -4.211   6.953  0.00  0.00    +0.027 A 
ATOM      8  C   UNL     1       1.099  -4.998   8.084  0.00  0.00    +0.051 A 
ATOM      9  C   UNL     1       0.418  -4.651   9.239  0.00  0.00    +0.162 A 
ATOM     10  C   UNL     1      -0.382  -3.518   9.263  0.00  0.00    +0.164 A 
ATOM     11  C   UNL     1      -0.500  -2.726   8.134  0.00  0.00    +0.072 A 
ATOM     12  O   UNL     1      -1.048  -3.187  10.408  0.00  0.00    -0.488 OA
ATOM     13  C   UNL     1      -2.104  -4.069  10.794  0.00  0.00    +0.232 C 
ATOM     14  C   UNL     1      -1.560  -5.248  11.585  0.00  0.00    +0.082 C 
ATOM     15  C   UNL     1      -0.647  -6.133  10.750  0.00  0.00    +0.232 C 
ATOM     16  O   UNL     1       0.530  -5.422  10.360  0.00  0.00    -0.488 OA
ENDBRANCH   4   6
ENDBRANCH   1   2
BRANCH   1  17
ATOM     17  O   UNL     1       0.077  -2.825   2.209  0.00  0.00    -0.482 OA
BRANCH  17  29
ATOM     18  C   UNL     1       0.044   1.322  -0.356  0.00  0.00    +0.044 C 
ATOM     19  C   UNL     1       0.058  -0.183  -0.297  0.00  0.00    -0.043 A 
ATOM     20  C   UNL     1       0.068  -0.913  -1.469  0.00  0.00    +0.050 A 
ATOM     21  C   UNL     1       0.081  -2.299  -1.427  0.00  0.00    +0.143 A 
ATOM     22  C   UNL     1       0.084  -2.953  -0.181  0.00  0.00    +0.062 A 
ATOM     23  C   UNL     1       0.098  -4.416  -0.147  0.00  0.00    -0.030 A 
ATOM     24  C   UNL     1       0.107  -5.086  -1.329  0.00  0.00    +0.096 A 
ATOM     25  C   UNL     1       0.103  -4.366  -2.542  0.00  0.00    +0.337 A 
ATOM     26  O   UNL     1       0.110  -4.978  -3.595  0.00  0.00    -0.245 OA
ATOM     27  O   UNL     1       0.090  -3.025  -2.566  0.00  0.00    -0.422 OA
ATOM     28  C   UNL     1       0.102  -5.160   1.163  0.00  0.00    +0.045 C 
ATOM     29  C   UNL     1       0.074  -2.202   1.004  0.00  0.00    +0.132 A 
ATOM     30  C   UNL     1       0.067  -0.820   0.933  0.00  0.00    +0.050 A 
ENDBRANCH  17  29
ENDBRANCH   1  17
TORSDOF 4
