REMARK  Name = ZINC46055455
REMARK  6 active torsions:
REMARK  status: ('A' for Active; 'I' for Inactive)
REMARK    1  A    between atoms: C_4  and  C_7
REMARK    2  A    between atoms: C_7  and  N_8
REMARK    3  A    between atoms: C_16  and  C_17
REMARK    4  A    between atoms: C_17  and  N_18
REMARK    5  A    between atoms: C_21  and  C_24
REMARK    6  A    between atoms: N_26  and  C_27
REMARK                            x       y       z     vdW  Elec       q    Type
REMARK                         _______ _______ _______ _____ _____    ______ ____
ROOT
ATOM      1  N   UNL     1       1.598  -2.485   1.690  0.00  0.00    +0.383 N 
ATOM      2  C   UNL     1       1.412  -1.221   0.968  0.00  0.00    -0.078 C 
ATOM      3  C   UNL     1      -0.022  -0.724   1.163  0.00  0.00    -0.006 C 
ATOM      4  C   UNL     1      -0.998  -1.772   0.620  0.00  0.00    +0.071 C 
ATOM      5  C   UNL     1      -0.745  -3.106   1.329  0.00  0.00    -0.006 C 
ATOM      6  C   UNL     1       0.716  -3.515   1.128  0.00  0.00    -0.078 C 
ATOM      7  H   UNL     1       1.375  -2.349   2.665  0.00  0.00    -0.081 HD
ENDROOT
BRANCH   4   8
ATOM      8  C   UNL     1      -2.413  -1.325   0.879  0.00  0.00    +0.216 C 
ATOM      9  O   UNL     1      -2.623  -0.271   1.442  0.00  0.00    -0.276 OA
ATOM     10  N   UNL     1      -3.447  -2.095   0.486  0.00  0.00    -0.308 N 
ATOM     11  H   UNL     1      -3.279  -2.938   0.035  0.00  0.00    +0.149 HD
BRANCH  10  12
ATOM     12  C   UNL     1      -4.823  -1.660   0.738  0.00  0.00    +0.103 C 
ATOM     13  C   UNL     1      -5.734  -2.884   0.805  0.00  0.00    +0.027 C 
ATOM     14  C   UNL     1      -7.189  -2.403   0.850  0.00  0.00    +0.007 C 
ATOM     15  C   UNL     1      -7.543  -1.814  -0.514  0.00  0.00    +0.035 C 
ATOM     16  C   UNL     1      -6.511  -0.802  -0.939  0.00  0.00    -0.042 A 
ATOM     17  C   UNL     1      -5.261  -0.735  -0.367  0.00  0.00    -0.024 A 
ATOM     18  C   UNL     1      -4.354   0.219  -0.810  0.00  0.00    +0.006 A 
ATOM     19  C   UNL     1      -4.697   1.099  -1.816  0.00  0.00    +0.000 A 
ATOM     20  C   UNL     1      -5.953   1.033  -2.387  0.00  0.00    +0.000 A 
ATOM     21  C   UNL     1      -6.855   0.087  -1.949  0.00  0.00    +0.004 A 
ENDBRANCH  10  12
ENDBRANCH   4   8
BRANCH   1  22
ATOM     22  C   UNL     1       2.996  -2.918   1.565  0.00  0.00    -0.024 C 
BRANCH  22  31
ATOM     23  N   UNL     1       4.175  -1.947   3.610  0.00  0.00    -0.341 N 
ATOM     24  C   UNL     1       5.030  -0.913   3.919  0.00  0.00    +0.049 A 
ATOM     25  C   UNL     1       5.623  -0.482   5.101  0.00  0.00    +0.026 A 
ATOM     26  C   UNL     1       6.455   0.616   5.088  0.00  0.00    +0.002 A 
ATOM     27  C   UNL     1       6.707   1.299   3.906  0.00  0.00    +0.001 A 
ATOM     28  C   UNL     1       6.135   0.893   2.734  0.00  0.00    +0.010 A 
ATOM     29  C   UNL     1       5.289  -0.218   2.724  0.00  0.00    +0.000 A 
ATOM     30  C   UNL     1       4.529  -0.910   1.680  0.00  0.00    +0.029 A 
ATOM     31  C   UNL     1       3.892  -1.933   2.271  0.00  0.00    +0.004 A 
BRANCH  23  32
ATOM     32  C   UNL     1       3.650  -2.922   4.570  0.00  0.00    +0.157 C 
BRANCH  32  36
ATOM     33  C   UNL     1       6.451  -6.113   5.036  0.00  0.00    +0.000 A 
ATOM     34  C   UNL     1       6.589  -4.958   5.783  0.00  0.00    +0.000 A 
ATOM     35  C   UNL     1       5.683  -3.925   5.632  0.00  0.00    +0.005 A 
ATOM     36  C   UNL     1       4.639  -4.047   4.734  0.00  0.00    -0.028 A 
ATOM     37  C   UNL     1       4.502  -5.202   3.986  0.00  0.00    +0.005 A 
ATOM     38  C   UNL     1       5.407  -6.235   4.138  0.00  0.00    +0.000 A 
ENDBRANCH  32  36
ENDBRANCH  23  32
ENDBRANCH  22  31
ENDBRANCH   1  22
TORSDOF 6
