REMARK  Name = ZINC64426273
REMARK  12 active torsions:
REMARK  status: ('A' for Active; 'I' for Inactive)
REMARK    1  A    between atoms: C_1  and  C_2
REMARK    2  A    between atoms: C_2  and  C_3
REMARK    3  A    between atoms: C_3  and  C_4
REMARK    4  A    between atoms: C_4  and  N_5
REMARK    5  A    between atoms: N_8  and  N_9
REMARK    6  A    between atoms: C_10  and  C_12
REMARK    7  A    between atoms: C_12  and  C_13
REMARK    8  A    between atoms: C_12  and  N_16
REMARK    9  A    between atoms: C_13  and  C_14
REMARK   10  A    between atoms: C_13  and  C_15
REMARK   11  A    between atoms: C_17  and  C_19
REMARK   12  A    between atoms: C_24  and  C_25
REMARK                            x       y       z     vdW  Elec       q    Type
REMARK                         _______ _______ _______ _____ _____    ______ ____
ROOT
ATOM      1  C   UNL     1       3.982  -2.331  -6.990  0.00  0.00    +0.163 C 
ENDROOT
BRANCH   1   3
ATOM      2  N   UNL     1       2.598  -2.475  -4.944  0.00  0.00    -0.232 N 
ATOM      3  C   UNL     1       3.385  -3.102  -5.841  0.00  0.00    +0.250 C 
ATOM      4  O   UNL     1       3.612  -4.288  -5.724  0.00  0.00    -0.272 OA
ATOM      5  H   UNL     1       2.483  -1.513  -4.990  0.00  0.00    +0.173 HD
BRANCH   2   9
ATOM      6  N   UNL     1       1.001  -1.248  -3.112  0.00  0.00    -0.298 N 
ATOM      7  C   UNL     1       1.162  -2.585  -3.049  0.00  0.00    +0.316 C 
ATOM      8  O   UNL     1       0.597  -3.224  -2.183  0.00  0.00    -0.251 OA
ATOM      9  N   UNL     1       1.948  -3.212  -3.946  0.00  0.00    -0.218 N 
ATOM     10  H   UNL     1       1.452  -0.738  -3.804  0.00  0.00    +0.150 HD
ATOM     11  H   UNL     1       2.063  -4.174  -3.901  0.00  0.00    +0.174 HD
BRANCH   6  12
ATOM     12  C   UNL     1       0.146  -0.566  -2.138  0.00  0.00    +0.106 C 
BRANCH  12  13
ATOM     13  C   UNL     1       0.137   0.936  -2.430  0.00  0.00    +0.018 C 
BRANCH  13  15
ATOM     14  C   UNL     1      -0.766   3.150  -1.705  0.00  0.00    +0.004 C 
ATOM     15  C   UNL     1      -0.756   1.648  -1.412  0.00  0.00    -0.002 C 
ENDBRANCH  13  15
ENDBRANCH  12  13
ENDBRANCH   6  12
ENDBRANCH   2   9
ENDBRANCH   1   3
BRANCH   1  16
ATOM     16  N   UNL     1       4.119  -3.212  -8.152  0.00  0.00    -0.300 N 
ATOM     17  C   UNL     1       4.139  -2.691  -9.395  0.00  0.00    +0.245 C 
ATOM     18  O   UNL     1       4.043  -1.490  -9.551  0.00  0.00    -0.270 OA
ATOM     19  H   UNL     1       4.195  -4.171  -8.027  0.00  0.00    +0.150 HD
BRANCH  17  20
ATOM     20  C   UNL     1       4.277  -3.581 -10.567  0.00  0.00    +0.040 A 
ATOM     21  C   UNL     1       4.517  -4.945 -10.388  0.00  0.00    +0.013 A 
ATOM     22  C   UNL     1       4.645  -5.769 -11.486  0.00  0.00    +0.001 A 
ATOM     23  C   UNL     1       4.536  -5.248 -12.763  0.00  0.00    +0.000 A 
ATOM     24  C   UNL     1       4.298  -3.898 -12.948  0.00  0.00    +0.004 A 
ATOM     25  C   UNL     1       4.162  -3.063 -11.858  0.00  0.00    -0.038 A 
ATOM     26  C   UNL     1       3.898  -1.593 -12.060  0.00  0.00    +0.044 C 
ENDBRANCH  17  20
ENDBRANCH   1  16
BRANCH   1  27
ATOM     27  C   UNL     1       5.359  -1.800  -6.587  0.00  0.00    +0.012 C 
ATOM     28  C   UNL     1       5.937  -0.962  -7.729  0.00  0.00    +0.009 C 
ATOM     29  C   UNL     1       5.225  -0.933  -5.334  0.00  0.00    +0.009 C 
ENDBRANCH   1  27
TORSDOF 8
