REMARK  Name = ZINC35636909
REMARK  10 active torsions:
REMARK  status: ('A' for Active; 'I' for Inactive)
REMARK    1  A    between atoms: C_1  and  C_2
REMARK    2  A    between atoms: C_2  and  N_3
REMARK    3  A    between atoms: C_9  and  C_11
REMARK    4  A    between atoms: C_11  and  C_13
REMARK    5  A    between atoms: C_11  and  N_19
REMARK    6  A    between atoms: C_25  and  C_34
REMARK    7  A    between atoms: N_30  and  C_31
REMARK    8  A    between atoms: C_31  and  C_32
REMARK    9  A    between atoms: C_37  and  C_41
REMARK   10  A    between atoms: C_39  and  C_40
REMARK                            x       y       z     vdW  Elec       q    Type
REMARK                         _______ _______ _______ _____ _____    ______ ____
ROOT
ATOM      1  N   UNL     1       0.577  -5.077   5.288  0.00  0.00    -0.277 N 
ATOM      2  C   UNL     1       1.509  -5.901   6.073  0.00  0.00    +0.160 C 
ATOM      3  C   UNL     1       0.690  -6.415   7.235  0.00  0.00    +0.043 C 
ATOM      4  C   UNL     1      -0.551  -5.912   7.077  0.00  0.00    +0.058 C 
ATOM      5  C   UNL     1      -0.611  -5.111   5.918  0.00  0.00    +0.247 C 
ATOM      6  O   UNL     1      -1.609  -4.529   5.535  0.00  0.00    -0.270 OA
ATOM      7  C   UNL     1      -1.595  -6.272   8.114  0.00  0.00    +0.142 C 
ATOM      8  N   UNL     1      -1.165  -7.148   9.217  0.00  0.00    -0.288 N 
ATOM      9  C   UNL     1       0.114  -7.572   9.239  0.00  0.00    +0.307 C 
ATOM     10  O   UNL     1       0.479  -8.296  10.145  0.00  0.00    -0.252 OA
ATOM     11  N   UNL     1       0.997  -7.222   8.294  0.00  0.00    -0.253 N 
ATOM     12  H   UNL     1      -1.788  -7.413   9.912  0.00  0.00    +0.151 HD
ENDROOT
BRANCH   7  13
ATOM     13  C   UNL     1      -2.115  -4.991   8.715  0.00  0.00    -0.020 A 
ATOM     14  C   UNL     1      -1.395  -3.819   8.572  0.00  0.00    +0.006 A 
ATOM     15  C   UNL     1      -1.872  -2.644   9.122  0.00  0.00    +0.004 A 
ATOM     16  C   UNL     1      -3.068  -2.641   9.816  0.00  0.00    -0.050 A 
ATOM     17  C   UNL     1      -3.787  -3.813   9.958  0.00  0.00    +0.007 A 
ATOM     18  C   UNL     1      -3.313  -4.987   9.403  0.00  0.00    -0.045 A 
ATOM     19  C   UNL     1      -4.100  -6.263   9.554  0.00  0.00    +0.044 C 
ATOM     20  C   UNL     1      -3.587  -1.361  10.417  0.00  0.00    +0.044 C 
ENDBRANCH   7  13
BRANCH   1  21
ATOM     21  C   UNL     1       0.887  -4.351   4.055  0.00  0.00    +0.193 C 
BRANCH  21  28
ATOM     22  N   UNL     1       1.580  -0.351   1.202  0.00  0.00    -0.300 NA
ATOM     23  C   UNL     1       0.660   0.040   2.279  0.00  0.00    +0.103 C 
ATOM     24  C   UNL     1       1.154  -0.547   3.606  0.00  0.00    +0.123 C 
ATOM     25  N   UNL     1       1.333  -1.997   3.437  0.00  0.00    -0.297 N 
ATOM     26  C   UNL     1       2.131  -2.471   2.296  0.00  0.00    +0.123 C 
ATOM     27  C   UNL     1       1.599  -1.808   1.021  0.00  0.00    +0.103 C 
ATOM     28  C   UNL     1       0.781  -2.868   4.305  0.00  0.00    +0.241 C 
ATOM     29  O   UNL     1       0.200  -2.459   5.287  0.00  0.00    -0.273 OA
BRANCH  22  31
ATOM     30  C   UNL     1       1.471   1.836   0.105  0.00  0.00    +0.020 C 
ATOM     31  C   UNL     1       1.240   0.332  -0.053  0.00  0.00    +0.081 C 
ENDBRANCH  22  31
ENDBRANCH  21  28
BRANCH  21  32
ATOM     32  C   UNL     1      -0.089  -4.749   2.978  0.00  0.00    -0.018 A 
ATOM     33  C   UNL     1      -1.235  -4.003   2.773  0.00  0.00    +0.006 A 
ATOM     34  C   UNL     1      -2.131  -4.369   1.786  0.00  0.00    +0.000 A 
ATOM     35  C   UNL     1      -1.881  -5.480   1.003  0.00  0.00    +0.000 A 
ATOM     36  C   UNL     1      -0.735  -6.226   1.207  0.00  0.00    +0.000 A 
ATOM     37  C   UNL     1       0.163  -5.857   2.192  0.00  0.00    +0.006 A 
ENDBRANCH  21  32
ENDBRANCH   1  21
BRANCH  11  38
ATOM     38  C   UNL     1       2.365  -7.733   8.401  0.00  0.00    +0.141 C 
BRANCH  38  39
ATOM     39  C   UNL     1       3.201  -6.767   9.201  0.00  0.00    -0.015 C 
ATOM     40  C   UNL     1       3.852  -7.184  10.258  0.00  0.00    +0.005 C 
ENDBRANCH  38  39
ENDBRANCH  11  38
TORSDOF 7
