REMARK  Name = ZINC40064059
REMARK  8 active torsions:
REMARK  status: ('A' for Active; 'I' for Inactive)
REMARK    1  A    between atoms: C_1  and  C_2
REMARK    2  A    between atoms: C_12  and  C_13
REMARK    3  A    between atoms: N_16  and  C_28
REMARK    4  A    between atoms: C_17  and  C_19
REMARK    5  A    between atoms: C_22  and  O_27
REMARK    6  A    between atoms: C_23  and  O_25
REMARK    7  A    between atoms: O_25  and  C_26
REMARK    8  A    between atoms: C_28  and  C_29
REMARK                            x       y       z     vdW  Elec       q    Type
REMARK                         _______ _______ _______ _____ _____    ______ ____
ROOT
ATOM      1  C   UNL     1      -0.018   1.503   0.010  0.00  0.00    +0.044 C 
ATOM      2  C   UNL     1       0.002  -0.004   0.002  0.00  0.00    -0.044 A 
ATOM      3  C   UNL     1       0.005  -0.683  -1.209  0.00  0.00    +0.004 A 
ATOM      4  C   UNL     1       0.021  -2.050  -1.232  0.00  0.00    +0.015 A 
ATOM      5  C   UNL     1       0.033  -2.761  -0.032  0.00  0.00    +0.065 A 
ATOM      6  C   UNL     1       0.036  -4.246  -0.038  0.00  0.00    +0.199 A 
ATOM      7  O   UNL     1       0.200  -4.908  -1.047  0.00  0.00    -0.287 OA
ATOM      8  C   UNL     1      -0.176  -4.839   1.286  0.00  0.00    +0.072 A 
ATOM      9  C   UNL     1      -0.158  -4.068   2.414  0.00  0.00    +0.199 A 
ATOM     10  O   UNL     1       0.060  -2.739   2.383  0.00  0.00    -0.449 OA
ATOM     11  C   UNL     1       0.036  -2.085   1.199  0.00  0.00    +0.143 A 
ATOM     12  C   UNL     1       0.023  -0.690   1.195  0.00  0.00    -0.005 A 
ATOM     13  C   UNL     1       0.025   0.066   2.499  0.00  0.00    +0.048 C 
ATOM     14  C   UNL     1      -0.408  -4.941   3.575  0.00  0.00    +0.283 C 
ATOM     15  O   UNL     1      -0.459  -4.566   4.729  0.00  0.00    -0.267 OA
ATOM     16  N   UNL     1      -0.571  -6.217   3.168  0.00  0.00    -0.281 N 
ATOM     17  C   UNL     1      -0.436  -6.249   1.703  0.00  0.00    +0.145 C 
ENDROOT
BRANCH  17  18
ATOM     18  C   UNL     1      -1.711  -6.750   1.075  0.00  0.00    -0.019 A 
ATOM     19  C   UNL     1      -2.933  -6.378   1.604  0.00  0.00    +0.009 A 
ATOM     20  C   UNL     1      -4.106  -6.835   1.032  0.00  0.00    +0.049 A 
ATOM     21  C   UNL     1      -4.058  -7.667  -0.075  0.00  0.00    +0.158 A 
ATOM     22  C   UNL     1      -2.828  -8.041  -0.609  0.00  0.00    +0.162 A 
ATOM     23  C   UNL     1      -1.657  -7.575  -0.033  0.00  0.00    +0.055 A 
BRANCH  22  24
ATOM     24  O   UNL     1      -2.776  -8.857  -1.695  0.00  0.00    -0.491 OA
ATOM     25  C   UNL     1      -1.479  -9.199  -2.188  0.00  0.00    +0.277 C 
ENDBRANCH  22  24
BRANCH  21  26
ATOM     26  O   UNL     1      -5.210  -8.118  -0.639  0.00  0.00    -0.503 OA
ATOM     27  H   UNL     1      -5.560  -7.542  -1.334  0.00  0.00    +0.292 HD
ENDBRANCH  21  26
ENDBRANCH  17  18
BRANCH  16  28
ATOM     28  C   UNL     1      -0.834  -7.369   4.034  0.00  0.00    +0.140 C 
BRANCH  28  29
ATOM     29  C   UNL     1      -2.345  -7.546   4.201  0.00  0.00    +0.136 C 
ATOM     30  C   UNL     1      -2.646  -8.740   5.142  0.00  0.00    +0.035 C 
ATOM     31  C   UNL     1      -4.053  -8.351   5.671  0.00  0.00    +0.031 C 
ATOM     32  C   UNL     1      -3.965  -6.811   5.736  0.00  0.00    +0.160 C 
ATOM     33  O   UNL     1      -2.913  -6.399   4.853  0.00  0.00    -0.375 OA
ENDBRANCH  28  29
ENDBRANCH  16  28
TORSDOF 5
