REMARK  Name = ZINC22520291
REMARK  4 active torsions:
REMARK  status: ('A' for Active; 'I' for Inactive)
REMARK    1  A    between atoms: C_2  and  C_12
REMARK    2  A    between atoms: C_12  and  C_13
REMARK    3  A    between atoms: C_13  and  N_14
REMARK    4  A    between atoms: C_15  and  C_17
REMARK                            x       y       z     vdW  Elec       q    Type
REMARK                         _______ _______ _______ _____ _____    ______ ____
ROOT
ATOM      1  N   UNL     1       5.620  -3.829   3.724  0.00  0.00    -0.311 N 
ATOM      2  C   UNL     1       6.731  -4.431   3.257  0.00  0.00    +0.244 C 
ATOM      3  O   UNL     1       6.974  -4.419   2.066  0.00  0.00    -0.270 OA
ATOM      4  H   UNL     1       5.400  -3.839   4.802  0.00  0.00    +0.149 HD
ENDROOT
BRANCH   2   5
ATOM      5  C   UNL     1       7.654  -5.106   4.192  0.00  0.00    +0.042 A 
ATOM      6  C   UNL     1       8.806  -5.731   3.709  0.00  0.00    +0.062 A 
ATOM      7  C   UNL     1       9.667  -6.361   4.586  0.00  0.00    +0.168 A 
ATOM      8  C   UNL     1       9.385  -6.372   5.953  0.00  0.00    +0.184 A 
ATOM      9  C   UNL     1       8.239  -5.751   6.432  0.00  0.00    +0.087 A 
ATOM     10  C   UNL     1       7.379  -5.116   5.561  0.00  0.00    +0.037 A 
ATOM     11 CL   UNL     1       7.892  -5.768   8.133  0.00  0.00    -0.080 Cl
ATOM     12  O   UNL     1      10.378  -7.051   6.596  0.00  0.00    -0.451 OA
ATOM     13  C   UNL     1      11.476  -7.100   5.666  0.00  0.00    +0.466 C 
ATOM     14  O   UNL     1      10.838  -7.033   4.378  0.00  0.00    -0.453 OA
ENDBRANCH   2   5
BRANCH   1  15
ATOM     15  C   UNL     1       4.705  -3.159   2.797  0.00  0.00    +0.109 C 
BRANCH  15  16
ATOM     16  C   UNL     1       3.533  -2.562   3.579  0.00  0.00    +0.054 C 
BRANCH  16  18
ATOM     17  C   UNL     1       2.771  -0.536   2.323  0.00  0.00    +0.053 A 
ATOM     18  C   UNL     1       2.591  -1.873   2.625  0.00  0.00    -0.041 A 
ATOM     19  C   UNL     1       1.550  -2.579   2.053  0.00  0.00    +0.027 A 
ATOM     20  C   UNL     1       0.685  -1.951   1.176  0.00  0.00    +0.086 A 
ATOM     21  C   UNL     1       0.860  -0.609   0.869  0.00  0.00    +0.180 A 
ATOM     22  C   UNL     1       1.906   0.101   1.446  0.00  0.00    +0.164 A 
ATOM     23  O   UNL     1       2.092   1.420   1.164  0.00  0.00    -0.485 OA
ATOM     24  C   UNL     1       1.433   1.928  -0.001  0.00  0.00    +0.270 C 
ATOM     25  C   UNL     1      -0.017   1.428   0.010  0.00  0.00    +0.270 C 
ATOM     26  O   UNL     1       0.002  -0.004   0.002  0.00  0.00    -0.483 OA
ATOM     27 CL   UNL     1      -0.622  -2.841   0.460  0.00  0.00    -0.080 Cl
ENDBRANCH  16  18
ENDBRANCH  15  16
ENDBRANCH   1  15
TORSDOF 4
