REMARK  Name = ZINC13108080
REMARK  7 active torsions:
REMARK  status: ('A' for Active; 'I' for Inactive)
REMARK    1  A    between atoms: C_1  and  C_2
REMARK    2  A    between atoms: C_4  and  C_29
REMARK    3  A    between atoms: C_6  and  N_13
REMARK    4  A    between atoms: C_14  and  C_16
REMARK    5  A    between atoms: C_16  and  O_17
REMARK    6  A    between atoms: O_17  and  C_18
REMARK    7  A    between atoms: C_18  and  C_20
REMARK                            x       y       z     vdW  Elec       q    Type
REMARK                         _______ _______ _______ _____ _____    ______ ____
ROOT
ATOM      1  N   UNL     1      -2.880  -4.005  -0.006  0.00  0.00    -0.253 N 
ATOM      2  C   UNL     1      -4.194  -4.305  -0.001  0.00  0.00    +0.257 C 
ATOM      3  O   UNL     1      -5.019  -3.416   0.008  0.00  0.00    -0.272 OA
ATOM      4  H   UNL     1      -2.220  -4.715  -0.013  0.00  0.00    +0.158 HD
ENDROOT
BRANCH   1  10
ATOM      5  C   UNL     1      -0.018   1.503   0.010  0.00  0.00    +0.068 C 
ATOM      6  C   UNL     1       0.002  -0.004   0.002  0.00  0.00    +0.070 A 
ATOM      7  C   UNL     1      -1.255  -0.757   0.004  0.00  0.00    +0.053 A 
ATOM      8  C   UNL     1      -2.573  -0.464   0.012  0.00  0.00    +0.114 A 
ATOM      9  O   UNL     1      -3.280  -1.609   0.009  0.00  0.00    -0.445 OA
ATOM     10  C   UNL     1      -2.473  -2.681  -0.001  0.00  0.00    +0.206 A 
ATOM     11  C   UNL     1      -1.172  -2.239  -0.005  0.00  0.00    +0.110 A 
ATOM     12  C   UNL     1       0.157  -2.841  -0.015  0.00  0.00    +0.277 A 
ATOM     13  O   UNL     1       0.291  -4.051  -0.023  0.00  0.00    -0.266 OA
ATOM     14  N   UNL     1       1.236  -2.029  -0.016  0.00  0.00    -0.242 N 
ATOM     15  H   UNL     1       2.119  -2.430  -0.023  0.00  0.00    +0.192 HD
ATOM     16  N   UNL     1       1.133  -0.640  -0.012  0.00  0.00    -0.175 NA
ATOM     17  C   UNL     1      -3.158   0.924   0.023  0.00  0.00    +0.087 C 
ENDBRANCH   1  10
BRANCH   2  18
ATOM     18  C   UNL     1      -4.638  -5.745  -0.007  0.00  0.00    +0.328 C 
BRANCH  18  19
ATOM     19  O   UNL     1      -6.066  -5.804   0.000  0.00  0.00    -0.451 OA
BRANCH  19  20
ATOM     20  C   UNL     1      -6.627  -7.028  -0.004  0.00  0.00    +0.360 C 
ATOM     21  O   UNL     1      -5.925  -8.018  -0.012  0.00  0.00    -0.243 OA
BRANCH  20  22
ATOM     22  C   UNL     1      -8.100  -7.166   0.003  0.00  0.00    +0.167 A 
ATOM     23  C   UNL     1      -8.676  -8.437   0.005  0.00  0.00    +0.093 A 
ATOM     24  C   UNL     1     -10.059  -8.549   0.011  0.00  0.00    +0.081 A 
ATOM     25  C   UNL     1     -10.818  -7.386   0.015  0.00  0.00    +0.079 A 
ATOM     26  C   UNL     1     -10.176  -6.156   0.013  0.00  0.00    +0.133 A 
ATOM     27  N   UNL     1      -8.863  -6.079   0.013  0.00  0.00    -0.246 NA
ATOM     28 CL   UNL     1     -12.552  -7.470   0.023  0.00  0.00    -0.080 Cl
ATOM     29 CL   UNL     1     -10.824 -10.108   0.013  0.00  0.00    -0.080 Cl
ATOM     30 CL   UNL     1      -7.676  -9.856  -0.001  0.00  0.00    -0.080 Cl
ENDBRANCH  20  22
ENDBRANCH  19  20
ENDBRANCH  18  19
ENDBRANCH   2  18
TORSDOF 5
