REMARK  Name = ZINC66331841
REMARK  7 active torsions:
REMARK  status: ('A' for Active; 'I' for Inactive)
REMARK    1  A    between atoms: C_1  and  C_2
REMARK    2  A    between atoms: C_13  and  C_15
REMARK    3  A    between atoms: N_17  and  C_18
REMARK    4  A    between atoms: C_18  and  C_19
REMARK    5  A    between atoms: C_18  and  C_20
REMARK    6  A    between atoms: C_18  and  C_21
REMARK    7  A    between atoms: C_25  and  C_31
REMARK                            x       y       z     vdW  Elec       q    Type
REMARK                         _______ _______ _______ _____ _____    ______ ____
ROOT
ATOM      1  C   UNL     1       0.654   1.405  -0.180  0.00  0.00    +0.012 C 
ATOM      2  C   UNL     1       0.692  -0.106  -0.420  0.00  0.00    -0.018 C 
ATOM      3  C   UNL     1      -0.702  -0.688  -0.271  0.00  0.00    +0.008 C 
ATOM      4  C   UNL     1      -1.225  -0.256   1.106  0.00  0.00    +0.005 C 
ATOM      5  C   UNL     1      -0.308  -0.713   2.238  0.00  0.00    +0.004 C 
ATOM      6  C   UNL     1       1.147  -0.260   2.012  0.00  0.00    +0.000 C 
ATOM      7  C   UNL     1       1.581  -0.789   0.653  0.00  0.00    -0.001 C 
ATOM      8  C   UNL     1       2.986  -0.371   0.207  0.00  0.00    +0.005 C 
ATOM      9  C   UNL     1       2.920  -0.524  -1.338  0.00  0.00    +0.013 C 
ATOM     10  C   UNL     1       1.425  -0.406  -1.724  0.00  0.00    +0.081 C 
ATOM     11  C   UNL     1       2.017  -0.890   3.105  0.00  0.00    +0.033 C 
ATOM     12  C   UNL     1       1.413  -0.660   4.456  0.00  0.00    -0.007 C 
ATOM     13  C   UNL     1       0.168  -0.315   4.655  0.00  0.00    +0.013 C 
ATOM     14  C   UNL     1      -0.803  -0.093   3.549  0.00  0.00    +0.009 C 
ATOM     15  C   UNL     1      -2.179  -0.652   3.886  0.00  0.00    +0.022 C 
ATOM     16  C   UNL     1      -2.165  -1.476   5.168  0.00  0.00    +0.097 C 
ATOM     17  C   UNL     1      -1.473  -0.712   6.271  0.00  0.00    +0.217 C 
ATOM     18  O   UNL     1      -1.975  -0.593   7.369  0.00  0.00    -0.275 OA
ATOM     19  N   UNL     1      -0.280  -0.136   5.977  0.00  0.00    -0.289 N 
ATOM     20  C   UNL     1      -0.943   1.417   3.348  0.00  0.00    +0.018 C 
ATOM     21  H   UNL     1       0.240   0.348   6.638  0.00  0.00    +0.155 HD
ENDROOT
BRANCH  10  22
ATOM     22  C   UNL     1       0.933  -1.704  -2.312  0.00  0.00    +0.217 C 
ATOM     23  O   UNL     1       1.409  -2.756  -1.940  0.00  0.00    -0.275 OA
ATOM     24  N   UNL     1      -0.034  -1.696  -3.250  0.00  0.00    -0.310 N 
ATOM     25  H   UNL     1      -0.414  -0.855  -3.548  0.00  0.00    +0.149 HD
BRANCH  24  26
ATOM     26  C   UNL     1      -0.511  -2.958  -3.821  0.00  0.00    +0.026 C 
ATOM     27  C   UNL     1      -1.084  -3.837  -2.708  0.00  0.00    +0.031 C 
ATOM     28  C   UNL     1      -1.601  -2.670  -4.855  0.00  0.00    +0.031 C 
ATOM     29  C   UNL     1       0.654  -3.685  -4.497  0.00  0.00    +0.031 C 
ENDBRANCH  24  26
ENDBRANCH  10  22
TORSDOF 2
