REMARK  Name = ZINC21725376
REMARK  3 active torsions:
REMARK  status: ('A' for Active; 'I' for Inactive)
REMARK    1  A    between atoms: C_1  and  O_2
REMARK    2  A    between atoms: O_2  and  C_3
REMARK    3  A    between atoms: C_7  and  C_9
REMARK                            x       y       z     vdW  Elec       q    Type
REMARK                         _______ _______ _______ _____ _____    ______ ____
ROOT
ATOM      1  C   UNL     1       1.224  -2.188  -0.022  0.00  0.00    +0.063 C 
ATOM      2  C   UNL     1       0.497  -2.720   1.216  0.00  0.00    +0.109 C 
ATOM      3  C   UNL     1      -0.993  -2.603   1.071  0.00  0.00    +0.219 C 
ATOM      4  O   UNL     1      -1.657  -2.326   2.048  0.00  0.00    -0.275 OA
ATOM      5  N   UNL     1      -1.619  -2.795  -0.110  0.00  0.00    -0.270 N 
ATOM      6  C   UNL     1      -0.833  -2.974  -1.247  0.00  0.00    +0.134 A 
ATOM      7  C   UNL     1       0.508  -2.697  -1.247  0.00  0.00    +0.020 A 
ATOM      8  C   UNL     1       1.001  -2.969  -2.515  0.00  0.00    +0.141 A 
ATOM      9  N   UNL     1       0.009  -3.396  -3.261  0.00  0.00    -0.171 NA
ATOM     10  N   UNL     1      -1.160  -3.409  -2.483  0.00  0.00    -0.194 N 
ATOM     11  C   UNL     1      -2.425  -3.800  -2.908  0.00  0.00    +0.196 A 
ATOM     12  N   UNL     1      -2.799  -4.229  -4.090  0.00  0.00    -0.221 NA
ATOM     13  C   UNL     1      -4.074  -4.577  -4.365  0.00  0.00    +0.081 A 
ATOM     14  C   UNL     1      -4.605  -5.051  -5.587  0.00  0.00    +0.029 A 
ATOM     15  C   UNL     1      -5.935  -5.363  -5.699  0.00  0.00    +0.002 A 
ATOM     16  C   UNL     1      -6.804  -5.227  -4.625  0.00  0.00    +0.001 A 
ATOM     17  C   UNL     1      -6.319  -4.766  -3.415  0.00  0.00    +0.017 A 
ATOM     18  C   UNL     1      -4.988  -4.452  -3.294  0.00  0.00    +0.041 A 
ATOM     19  S   UNL     1      -3.952  -3.854  -1.981  0.00  0.00    -0.048 S 
ATOM     20  H   UNL     1      -2.719  -2.806  -0.154  0.00  0.00    +0.156 HD
ENDROOT
BRANCH   1  25
ATOM     21  C   UNL     1       2.380   1.409  -0.013  0.00  0.00    +0.120 A 
ATOM     22  C   UNL     1       1.169   2.087   0.002  0.00  0.00    +0.045 A 
ATOM     23  C   UNL     1      -0.017   1.379   0.010  0.00  0.00    +0.004 A 
ATOM     24  C   UNL     1       0.002  -0.004   0.002  0.00  0.00    +0.004 A 
ATOM     25  C   UNL     1       1.207  -0.681  -0.014  0.00  0.00    -0.036 A 
ATOM     26  C   UNL     1       2.396   0.022  -0.022  0.00  0.00    +0.050 A 
BRANCH  21  28
ATOM     27  C   UNL     1       3.456   3.530  -0.013  0.00  0.00    +0.277 C 
ATOM     28  O   UNL     1       3.548   2.104  -0.022  0.00  0.00    -0.495 OA
ENDBRANCH  21  28
ENDBRANCH   1  25
TORSDOF 2
