REMARK  Name = ZINC44464946
REMARK  7 active torsions:
REMARK  status: ('A' for Active; 'I' for Inactive)
REMARK    1  A    between atoms: C_3  and  C_15
REMARK    2  A    between atoms: C_4  and  S_7
REMARK    3  A    between atoms: S_7  and  C_8
REMARK    4  A    between atoms: C_15  and  CA_16
REMARK    5  A    between atoms: CA_16  and  C_18
REMARK    6  A    between atoms: CA_16  and  N_20
REMARK    7  A    between atoms: C_18  and  O_19
REMARK                            x       y       z     vdW  Elec       q    Type
REMARK                         _______ _______ _______ _____ _____    ______ ____
ROOT
ATOM      1  C   UNL     1      -0.017   1.376   0.001  0.00  0.00    +0.020 A 
ATOM      2  C   UNL     1       1.184   2.073  -0.002  0.00  0.00    +0.007 A 
ATOM      3  C   UNL     1       2.365   1.353  -0.014  0.00  0.00    -0.017 A 
ATOM      4  C   UNL     1       2.310  -0.038  -0.024  0.00  0.00    +0.105 A 
ATOM      5  N   UNL     1       1.144  -0.666  -0.021  0.00  0.00    -0.248 NA
ATOM      6  C   UNL     1       0.002  -0.005  -0.008  0.00  0.00    +0.112 A 
ENDROOT
BRANCH   4   7
ATOM      7  S   UNL     1       3.804  -0.971  -0.040  0.00  0.00    -0.070 S 
BRANCH   7   8
ATOM      8  C   UNL     1       3.265  -2.642   0.106  0.00  0.00    +0.014 A 
ATOM      9  C   UNL     1       3.090  -3.418  -1.033  0.00  0.00    +0.016 A 
ATOM     10  C   UNL     1       2.667  -4.728  -0.916  0.00  0.00    +0.016 A 
ATOM     11  C   UNL     1       2.417  -5.266   0.334  0.00  0.00    +0.018 A 
ATOM     12  C   UNL     1       2.591  -4.496   1.470  0.00  0.00    +0.016 A 
ATOM     13  C   UNL     1       3.019  -3.188   1.360  0.00  0.00    +0.016 A 
ATOM     14 BR   UNL     1       1.837  -7.060   0.489  0.00  0.00    -0.050 Br
ENDBRANCH   7   8
ENDBRANCH   4   7
BRANCH   3  15
ATOM     15  C   UNL     1       3.693   2.065  -0.019  0.00  0.00    +0.024 C 
BRANCH  15  16
ATOM     16  CA  UNL     1       4.193   2.204  -1.458  0.00  0.00    -0.045 C 
BRANCH  16  17
ATOM     17  N   UNL     1       3.281   3.077  -2.210  0.00  0.00    +0.382 N 
ATOM     18  H1  UNL     1       3.252   3.987  -1.775  0.00  0.00    -0.090 HD
ATOM     19  H2  UNL     1       3.611   3.169  -3.160  0.00  0.00    -0.090 HD
ATOM     20  H3  UNL     1       2.356   2.675  -2.213  0.00  0.00    -0.090 HD
ENDBRANCH  16  17
BRANCH  16  21
ATOM     21  C   UNL     1       5.596   2.814  -1.455  0.00  0.00    +0.140 C 
BRANCH  21  22
ATOM     22  O   UNL     1       6.109   2.836  -2.788  0.00  0.00    -0.397 OA
ATOM     23  H   UNL     1       6.997   3.211  -2.861  0.00  0.00    +0.209 HD
ENDBRANCH  21  22
ENDBRANCH  16  21
ENDBRANCH  15  16
ENDBRANCH   3  15
TORSDOF 7
