REMARK  Name = ZINC19973739
REMARK  4 active torsions:
REMARK  status: ('A' for Active; 'I' for Inactive)
REMARK    1  A    between atoms: C_3  and  O_23
REMARK    2  A    between atoms: C_6  and  C_7
REMARK    3  A    between atoms: O_23  and  C_24
REMARK    4  A    between atoms: C_24  and  C_25
REMARK                            x       y       z     vdW  Elec       q    Type
REMARK                         _______ _______ _______ _____ _____    ______ ____
ROOT
ATOM      1  C   UNL     1       0.060  -4.277  -0.021  0.00  0.00    +0.089 C 
ATOM      2  C   UNL     1       0.772  -4.768   1.212  0.00  0.00    +0.024 C 
ATOM      3  C   UNL     1       2.056  -5.177   1.146  0.00  0.00    +0.015 C 
ATOM      4  C   UNL     1       2.786  -5.652   2.376  0.00  0.00    +0.051 C 
ATOM      5  C   UNL     1       1.793  -6.306   3.341  0.00  0.00    +0.014 C 
ATOM      6  C   UNL     1       0.712  -5.281   3.695  0.00  0.00    +0.080 C 
ATOM      7  C   UNL     1       0.065  -4.791   2.428  0.00  0.00    +0.162 C 
ATOM      8  O   UNL     1      -1.088  -4.410   2.455  0.00  0.00    -0.292 OA
ATOM      9  N   UNL     1       2.720  -5.163  -0.050  0.00  0.00    -0.320 N 
ATOM     10  C   UNL     1       2.031  -5.173  -1.232  0.00  0.00    +0.015 C 
ATOM     11  C   UNL     1       0.749  -4.755  -1.273  0.00  0.00    +0.024 C 
ATOM     12  C   UNL     1       0.025  -4.752  -2.478  0.00  0.00    +0.162 C 
ATOM     13  O   UNL     1      -1.131  -4.377  -2.480  0.00  0.00    -0.292 OA
ATOM     14  C   UNL     1       0.656  -5.205  -3.766  0.00  0.00    +0.080 C 
ATOM     15  C   UNL     1       2.165  -4.946  -3.701  0.00  0.00    +0.014 C 
ATOM     16  C   UNL     1       2.731  -5.665  -2.475  0.00  0.00    +0.051 C 
ATOM     17  H   UNL     1       3.820  -5.143  -0.068  0.00  0.00    +0.152 HD
ENDROOT
BRANCH   1  23
ATOM     18  C   UNL     1      -1.168  -2.096   0.002  0.00  0.00    +0.008 A 
ATOM     19  C   UNL     1      -1.189  -0.715   0.010  0.00  0.00    +0.046 A 
ATOM     20  C   UNL     1       0.002  -0.004   0.002  0.00  0.00    +0.121 A 
ATOM     21  C   UNL     1       1.212  -0.682  -0.019  0.00  0.00    +0.046 A 
ATOM     22  C   UNL     1       1.228  -2.064  -0.021  0.00  0.00    +0.008 A 
ATOM     23  C   UNL     1       0.040  -2.770  -0.013  0.00  0.00    -0.035 A 
BRANCH  20  24
ATOM     24  O   UNL     1      -0.016   1.355   0.009  0.00  0.00    -0.481 OA
BRANCH  24  25
ATOM     25  C   UNL     1       1.248   2.021   0.001  0.00  0.00    +0.353 C 
BRANCH  25  26
ATOM     26  C   UNL     1       1.030   3.512   0.011  0.00  0.00    +0.393 C 
ATOM     27  O   UNL     1      -0.092   3.958   0.024  0.00  0.00    -0.243 OA
ATOM     28  O   UNL     1       2.083   4.344   0.005  0.00  0.00    -0.243 OA
ENDBRANCH  25  26
ENDBRANCH  24  25
ENDBRANCH  20  24
ENDBRANCH   1  23
TORSDOF 4
