REMARK  Name = ZINC65321242
REMARK  2 active torsions:
REMARK  status: ('A' for Active; 'I' for Inactive)
REMARK    1  A    between atoms: C_8  and  C_13
REMARK    2  A    between atoms: N_17  and  C_21
REMARK                            x       y       z     vdW  Elec       q    Type
REMARK                         _______ _______ _______ _____ _____    ______ ____
ROOT
ATOM      1  C   UNL     1       4.038  -3.740   0.842  0.00  0.00    +0.010 C 
ATOM      2  C   UNL     1       3.552  -4.986   0.850  0.00  0.00    +0.075 C 
ATOM      3  C   UNL     1       3.708  -6.050   1.871  0.00  0.00    +0.263 C 
ATOM      4  O   UNL     1       4.352  -5.868   2.886  0.00  0.00    -0.269 OA
ATOM      5  N   UNL     1       3.113  -7.205   1.625  0.00  0.00    -0.215 N 
ATOM      6  C   UNL     1       2.386  -7.388   0.463  0.00  0.00    +0.165 C 
ATOM      7  N   UNL     1       1.744  -8.452   0.069  0.00  0.00    -0.279 NA
ATOM      8  S   UNL     1       2.533  -5.812  -0.363  0.00  0.00    -0.049 S 
ATOM      9  H   UNL     1       1.269  -8.447  -0.776  0.00  0.00    +0.189 HD
ENDROOT
BRANCH   1  17
ATOM     10  C   UNL     1       2.975   1.960   0.346  0.00  0.00    +0.001 A 
ATOM     11  C   UNL     1       4.215   2.187  -0.253  0.00  0.00    +0.002 A 
ATOM     12  C   UNL     1       5.006   1.179  -0.704  0.00  0.00    +0.024 A 
ATOM     13  C   UNL     1       4.596  -0.161  -0.581  0.00  0.00    +0.040 A 
ATOM     14  N   UNL     1       5.380  -1.142  -1.026  0.00  0.00    -0.284 N 
ATOM     15  C   UNL     1       5.056  -2.421  -0.942  0.00  0.00    +0.228 C 
ATOM     16  O   UNL     1       5.814  -3.273  -1.366  0.00  0.00    -0.274 OA
ATOM     17  C   UNL     1       3.739  -2.821  -0.315  0.00  0.00    +0.122 C 
ATOM     18  C   UNL     1       2.843  -1.710   0.194  0.00  0.00    -0.001 C 
ATOM     19  C   UNL     1       3.291  -0.430   0.049  0.00  0.00    -0.007 A 
ATOM     20  C   UNL     1       2.489   0.703   0.512  0.00  0.00    +0.009 A 
ATOM     21  H   UNL     1       6.230  -0.907  -1.431  0.00  0.00    +0.155 HD
ENDBRANCH   1  17
BRANCH   5  22
ATOM     22  C   UNL     1       3.222  -8.254   2.550  0.00  0.00    +0.047 A 
ATOM     23  C   UNL     1       2.284  -8.384   3.564  0.00  0.00    +0.028 A 
ATOM     24  C   UNL     1       2.389  -9.417   4.476  0.00  0.00    +0.051 A 
ATOM     25  C   UNL     1       3.431 -10.325   4.381  0.00  0.00    +0.166 A 
ATOM     26  C   UNL     1       4.374 -10.197   3.364  0.00  0.00    +0.168 A 
ATOM     27  C   UNL     1       4.264  -9.164   2.447  0.00  0.00    +0.073 A 
ATOM     28  O   UNL     1       5.288 -11.203   3.486  0.00  0.00    -0.453 OA
ATOM     29  C   UNL     1       5.129 -11.706   4.826  0.00  0.00    +0.466 C 
ATOM     30  O   UNL     1       3.755 -11.413   5.141  0.00  0.00    -0.453 OA
ENDBRANCH   5  22
TORSDOF 2
