REMARK  Name = ZINC43526826
REMARK  11 active torsions:
REMARK  status: ('A' for Active; 'I' for Inactive)
REMARK    1  A    between atoms: C_1  and  N_2
REMARK    2  A    between atoms: N_2  and  C_3
REMARK    3  A    between atoms: N_2  and  C_10
REMARK    4  A    between atoms: C_3  and  C_4
REMARK    5  A    between atoms: C_10  and  C_11
REMARK    6  A    between atoms: C_20  and  C_22
REMARK    7  A    between atoms: C_22  and  N_23
REMARK    8  A    between atoms: N_23  and  C_24
REMARK    9  A    between atoms: C_24  and  N_26
REMARK   10  A    between atoms: N_26  and  C_27
REMARK   11  A    between atoms: C_30  and  N_33
REMARK                            x       y       z     vdW  Elec       q    Type
REMARK                         _______ _______ _______ _____ _____    ______ ____
ROOT
ATOM      1  C   UNL     1       1.493   0.499   1.311  0.00  0.00    -0.041 C 
ATOM      2  C   UNL     1       1.764   2.005   1.322  0.00  0.00    -0.076 C 
ATOM      3  N   UNL     1       2.450   2.382   2.561  0.00  0.00    +0.383 N 
ATOM      4  C   UNL     1       1.616   2.077   3.725  0.00  0.00    -0.078 C 
ATOM      5  C   UNL     1       1.340   0.573   3.794  0.00  0.00    -0.015 C 
ATOM      6  C   UNL     1       2.036  -0.115   2.608  0.00  0.00    -0.015 C 
ATOM      7  C   UNL     1       3.539   0.183   2.693  0.00  0.00    -0.010 C 
ATOM      8  C   UNL     1       3.744   1.702   2.661  0.00  0.00    -0.051 C 
ATOM      9  H   UNL     1       2.613   3.377   2.545  0.00  0.00    -0.081 HD
ENDROOT
BRANCH   1  10
ATOM     10  C   UNL     1      -0.013   0.249   1.217  0.00  0.00    -0.077 C 
BRANCH  10  12
ATOM     11  C   UNL     1      -1.982   0.660  -0.092  0.00  0.00    -0.096 C 
ATOM     12  N   UNL     1      -0.517   0.770  -0.061  0.00  0.00    +0.381 N 
ATOM     13  H   UNL     1      -0.251   1.739  -0.158  0.00  0.00    -0.082 HD
BRANCH  12  14
ATOM     14  C   UNL     1       0.056  -0.008  -1.167  0.00  0.00    -0.043 C 
BRANCH  14  15
ATOM     15  C   UNL     1      -0.362   0.602  -2.480  0.00  0.00    -0.064 A 
ATOM     16  C   UNL     1      -1.530   0.189  -3.093  0.00  0.00    +0.002 A 
ATOM     17  C   UNL     1      -1.914   0.748  -4.298  0.00  0.00    +0.000 A 
ATOM     18  C   UNL     1      -1.130   1.721  -4.889  0.00  0.00    +0.000 A 
ATOM     19  C   UNL     1       0.037   2.135  -4.275  0.00  0.00    +0.000 A 
ATOM     20  C   UNL     1       0.419   1.579  -3.069  0.00  0.00    +0.002 A 
ENDBRANCH  14  15
ENDBRANCH  12  14
ENDBRANCH  10  12
ENDBRANCH   1  10
BRANCH   8  21
ATOM     21  C   UNL     1       4.453   2.146   3.942  0.00  0.00    +0.088 C 
BRANCH  21  22
ATOM     22  N   UNL     1       4.556   3.608   3.961  0.00  0.00    -0.328 N 
ATOM     23  H   UNL     1       4.198   4.129   3.225  0.00  0.00    +0.148 HD
BRANCH  22  24
ATOM     24  C   UNL     1       5.148   4.228   5.001  0.00  0.00    +0.134 C 
ATOM     25  S   UNL     1       5.780   3.308   6.299  0.00  0.00    -0.019 S 
BRANCH  24  26
ATOM     26  N   UNL     1       5.243   5.572   5.018  0.00  0.00    -0.297 N 
ATOM     27  H   UNL     1       4.956   6.089   4.249  0.00  0.00    +0.154 HD
BRANCH  26  28
ATOM     28  C   UNL     1       5.757   6.223   6.146  0.00  0.00    +0.033 A 
ATOM     29  C   UNL     1       6.614   7.305   5.994  0.00  0.00    +0.025 A 
ATOM     30  C   UNL     1       7.120   7.947   7.106  0.00  0.00    +0.029 A 
ATOM     31  C   UNL     1       6.773   7.510   8.377  0.00  0.00    +0.065 A 
ATOM     32  C   UNL     1       5.916   6.428   8.530  0.00  0.00    +0.029 A 
ATOM     33  C   UNL     1       5.405   5.790   7.418  0.00  0.00    +0.025 A 
BRANCH  31  34
ATOM     34  N   UNL     1       7.288   8.162   9.508  0.00  0.00    -0.240 N 
ATOM     35  C   UNL     1       7.037   7.838  10.796  0.00  0.00    +0.114 A 
ATOM     36  C   UNL     1       7.720   8.705  11.579  0.00  0.00    +0.041 A 
ATOM     37  C   UNL     1       8.412   9.587  10.743  0.00  0.00    +0.135 A 
ATOM     38  N   UNL     1       8.158   9.259   9.502  0.00  0.00    -0.175 NA
ENDBRANCH  31  34
ENDBRANCH  26  28
ENDBRANCH  24  26
ENDBRANCH  22  24
ENDBRANCH  21  22
ENDBRANCH   8  21
TORSDOF 10
