REMARK  Name = ZINC08016732
REMARK  4 active torsions:
REMARK  status: ('A' for Active; 'I' for Inactive)
REMARK    1  A    between atoms: C_1  and  C_2
REMARK    2  A    between atoms: C_9  and  N_14
REMARK    3  A    between atoms: C_15  and  C_17
REMARK    4  A    between atoms: C_23  and  C_25
REMARK                            x       y       z     vdW  Elec       q    Type
REMARK                         _______ _______ _______ _____ _____    ______ ____
ROOT
ATOM      1  N   UNL     1      -6.353   2.166   1.899  0.00  0.00    -0.285 N 
ATOM      2  C   UNL     1      -5.968   0.877   1.816  0.00  0.00    +0.220 C 
ATOM      3  O   UNL     1      -6.429   0.056   2.581  0.00  0.00    -0.275 OA
ATOM      4  H   UNL     1      -6.051   2.806   1.235  0.00  0.00    +0.155 HD
ENDROOT
BRANCH   1  12
ATOM      5  C   UNL     1     -11.138   5.431   7.029  0.00  0.00    +0.062 C 
ATOM      6  C   UNL     1      -9.974   5.204   6.063  0.00  0.00    +0.256 C 
ATOM      7  C   UNL     1     -10.368   5.667   4.684  0.00  0.00    +0.258 C 
ATOM      8  O   UNL     1     -11.180   6.559   4.550  0.00  0.00    -0.271 OA
ATOM      9  N   UNL     1      -9.814   5.086   3.598  0.00  0.00    -0.279 N 
ATOM     10  C   UNL     1      -8.905   4.034   3.779  0.00  0.00    +0.077 A 
ATOM     11  C   UNL     1      -8.078   3.630   2.745  0.00  0.00    +0.050 A 
ATOM     12  C   UNL     1      -7.188   2.582   2.943  0.00  0.00    +0.035 A 
ATOM     13  C   UNL     1      -7.123   1.950   4.178  0.00  0.00    +0.027 A 
ATOM     14  C   UNL     1      -7.945   2.357   5.212  0.00  0.00    +0.049 A 
ATOM     15  C   UNL     1      -8.836   3.398   5.018  0.00  0.00    +0.143 A 
ATOM     16  O   UNL     1      -9.650   3.811   6.027  0.00  0.00    -0.478 OA
ATOM     17  H   UNL     1     -10.042   5.392   2.706  0.00  0.00    +0.155 HD
ENDBRANCH   1  12
BRANCH   2  18
ATOM     18  C   UNL     1      -4.966   0.455   0.772  0.00  0.00    +0.078 C 
ATOM     19  C   UNL     1      -4.706  -1.048   0.894  0.00  0.00    +0.032 C 
ATOM     20  C   UNL     1      -3.713  -1.480  -0.190  0.00  0.00    +0.109 C 
ATOM     21  N   UNL     1      -2.507  -0.648  -0.085  0.00  0.00    -0.297 N 
ATOM     22  C   UNL     1      -2.654   0.814  -0.094  0.00  0.00    +0.109 C 
ATOM     23  C   UNL     1      -3.658   1.220   0.983  0.00  0.00    +0.032 C 
ATOM     24  C   UNL     1      -1.289  -1.215   0.023  0.00  0.00    +0.253 C 
ATOM     25  O   UNL     1      -0.321  -0.530   0.298  0.00  0.00    -0.269 OA
BRANCH  24  26
ATOM     26  C   UNL     1      -1.130  -2.656  -0.190  0.00  0.00    +0.074 A 
ATOM     27  C   UNL     1      -0.016  -3.453   0.023  0.00  0.00    +0.021 A 
ATOM     28  C   UNL     1      -0.140  -4.790  -0.263  0.00  0.00    +0.008 A 
ATOM     29  C   UNL     1      -1.326  -5.261  -0.731  0.00  0.00    +0.046 A 
ATOM     30  S   UNL     1      -2.320  -3.842  -0.790  0.00  0.00    -0.092 S 
ENDBRANCH  24  26
ENDBRANCH   2  18
TORSDOF 3
