REMARK  Name = ZINC64349184
REMARK  3 active torsions:
REMARK  status: ('A' for Active; 'I' for Inactive)
REMARK    1  A    between atoms: C_1  and  C_2
REMARK    2  A    between atoms: C_2  and  N_3
REMARK    3  A    between atoms: C_6  and  C_12
REMARK                            x       y       z     vdW  Elec       q    Type
REMARK                         _______ _______ _______ _____ _____    ______ ____
ROOT
ATOM      1  C   UNL     1      -4.021  -1.498   2.493  0.00  0.00    -0.003 C 
ATOM      2  C   UNL     1      -3.311  -2.626   3.246  0.00  0.00    +0.097 C 
ATOM      3  C   UNL     1      -3.997  -2.727   4.604  0.00  0.00    -0.041 C 
ATOM      4  C   UNL     1      -4.367  -3.992   4.744  0.00  0.00    -0.001 A 
ATOM      5  C   UNL     1      -4.987  -4.716   5.865  0.00  0.00    +0.010 A 
ATOM      6  C   UNL     1      -5.251  -6.033   5.656  0.00  0.00    +0.001 A 
ATOM      7  C   UNL     1      -4.963  -6.695   4.458  0.00  0.00    +0.002 A 
ATOM      8  C   UNL     1      -4.388  -6.109   3.378  0.00  0.00    +0.026 A 
ATOM      9  C   UNL     1      -4.059  -4.726   3.478  0.00  0.00    +0.043 A 
ATOM     10  N   UNL     1      -3.478  -3.928   2.604  0.00  0.00    -0.379 N 
ATOM     11  C   UNL     1      -4.229  -1.507   5.463  0.00  0.00    +0.014 C 
ATOM     12  C   UNL     1      -4.822  -0.435   4.530  0.00  0.00    -0.077 C 
ATOM     13  N   UNL     1      -3.993  -0.290   3.331  0.00  0.00    +0.386 N 
ATOM     14  H   UNL     1      -3.041  -0.107   3.611  0.00  0.00    -0.085 HD
ATOM     15  H   UNL     1      -3.211  -4.153   1.699  0.00  0.00    +0.160 HD
ATOM     16  H   UNL     1      -4.330   0.492   2.791  0.00  0.00    -0.085 HD
ENDROOT
BRANCH   1  20
ATOM     17  N   UNL     1      -1.372  -0.511   0.012  0.00  0.00    -0.289 N 
ATOM     18  C   UNL     1      -1.991  -0.744   1.187  0.00  0.00    +0.260 A 
ATOM     19  O   UNL     1      -1.411  -0.533   2.238  0.00  0.00    -0.267 OA
ATOM     20  C   UNL     1      -3.310  -1.231   1.192  0.00  0.00    +0.070 A 
ATOM     21  C   UNL     1      -3.937  -1.457   0.002  0.00  0.00    +0.257 A 
ATOM     22  N   UNL     1      -3.270  -1.207  -1.170  0.00  0.00    -0.302 N 
ATOM     23  C   UNL     1      -2.010  -0.736  -1.151  0.00  0.00    +0.163 A 
ATOM     24  S   UNL     1      -1.203  -0.425  -2.629  0.00  0.00    -0.013 S 
ATOM     25  O   UNL     1      -5.203  -1.925  -0.021  0.00  0.00    -0.267 OA
ATOM     26  H   UNL     1      -3.712  -1.367  -2.019  0.00  0.00    +0.171 HD
BRANCH  17  28
ATOM     27  C   UNL     1      -0.019   1.526   0.010  0.00  0.00    +0.027 C 
ATOM     28  C   UNL     1       0.002  -0.004   0.002  0.00  0.00    +0.124 C 
ENDBRANCH  17  28
ENDBRANCH   1  20
TORSDOF 2
