REMARK  Name = ZINC39876190
REMARK  7 active torsions:
REMARK  status: ('A' for Active; 'I' for Inactive)
REMARK    1  A    between atoms: C_1  and  O_2
REMARK    2  A    between atoms: O_2  and  C_3
REMARK    3  A    between atoms: C_7  and  N_9
REMARK    4  A    between atoms: C_10  and  C_26
REMARK    5  A    between atoms: C_29  and  O_34
REMARK    6  A    between atoms: C_30  and  O_32
REMARK    7  A    between atoms: O_32  and  C_33
REMARK                            x       y       z     vdW  Elec       q    Type
REMARK                         _______ _______ _______ _____ _____    ______ ____
ROOT
ATOM      1  N   UNL     1      -2.543  -4.062   0.018  0.00  0.00    -0.253 N 
ATOM      2  C   UNL     1      -3.770  -4.876   0.020  0.00  0.00    +0.150 C 
ATOM      3  C   UNL     1      -3.314  -6.299   0.021  0.00  0.00    +0.072 A 
ATOM      4  C   UNL     1      -4.070  -7.555   0.033  0.00  0.00    +0.199 A 
ATOM      5  O   UNL     1      -5.276  -7.610  -0.132  0.00  0.00    -0.287 OA
ATOM      6  C   UNL     1      -3.226  -8.754   0.265  0.00  0.00    +0.067 A 
ATOM      7  C   UNL     1      -3.815  -9.996   0.502  0.00  0.00    +0.053 A 
ATOM      8  C   UNL     1      -3.015 -11.099   0.720  0.00  0.00    +0.124 A 
ATOM      9  C   UNL     1      -1.631 -10.968   0.704  0.00  0.00    +0.042 A 
ATOM     10  C   UNL     1      -1.041  -9.748   0.470  0.00  0.00    +0.050 A 
ATOM     11  C   UNL     1      -1.828  -8.619   0.243  0.00  0.00    +0.140 A 
ATOM     12  O   UNL     1      -1.221  -7.433   0.005  0.00  0.00    -0.450 OA
ATOM     13  C   UNL     1      -1.948  -6.298   0.014  0.00  0.00    +0.199 A 
ATOM     14  C   UNL     1      -1.486  -4.900   0.009  0.00  0.00    +0.287 C 
ATOM     15  O   UNL     1      -0.322  -4.552   0.001  0.00  0.00    -0.266 OA
ATOM     16  F   UNL     1      -3.577 -12.305   0.951  0.00  0.00    -0.205 F 
ENDROOT
BRANCH   1  21
ATOM     17  C   UNL     1      -1.200  -0.637   0.010  0.00  0.00    +0.122 A 
ATOM     18  C   UNL     1      -2.375   0.102   0.020  0.00  0.00    +0.046 A 
ATOM     19  C   UNL     1      -3.598  -0.540   0.028  0.00  0.00    +0.005 A 
ATOM     20  C   UNL     1      -3.657  -1.920   0.027  0.00  0.00    +0.024 A 
ATOM     21  C   UNL     1      -2.484  -2.666   0.018  0.00  0.00    +0.041 A 
ATOM     22  C   UNL     1      -1.254  -2.022   0.003  0.00  0.00    +0.069 A 
BRANCH  17  24
ATOM     23  C   UNL     1      -0.017   1.425   0.010  0.00  0.00    +0.277 C 
ATOM     24  O   UNL     1       0.002  -0.004   0.002  0.00  0.00    -0.495 OA
ENDBRANCH  17  24
ENDBRANCH   1  21
BRANCH   2  25
ATOM     25  C   UNL     1      -4.586  -4.591  -1.214  0.00  0.00    -0.018 A 
ATOM     26  C   UNL     1      -3.957  -4.422  -2.433  0.00  0.00    +0.009 A 
ATOM     27  C   UNL     1      -4.701  -4.160  -3.568  0.00  0.00    +0.049 A 
ATOM     28  C   UNL     1      -6.081  -4.066  -3.486  0.00  0.00    +0.158 A 
ATOM     29  C   UNL     1      -6.715  -4.237  -2.259  0.00  0.00    +0.162 A 
ATOM     30  C   UNL     1      -5.963  -4.504  -1.125  0.00  0.00    +0.055 A 
BRANCH  29  31
ATOM     31  O   UNL     1      -8.069  -4.146  -2.172  0.00  0.00    -0.491 OA
ATOM     32  C   UNL     1      -8.650  -4.332  -0.880  0.00  0.00    +0.277 C 
ENDBRANCH  29  31
BRANCH  28  33
ATOM     33  O   UNL     1      -6.815  -3.808  -4.601  0.00  0.00    -0.503 OA
ATOM     34  H   UNL     1      -7.095  -4.600  -5.080  0.00  0.00    +0.292 HD
ENDBRANCH  28  33
ENDBRANCH   2  25
TORSDOF 5
