REMARK  Name = ZINC67103605
REMARK  8 active torsions:
REMARK  status: ('A' for Active; 'I' for Inactive)
REMARK    1  A    between atoms: C_6  and  C_7
REMARK    2  A    between atoms: C_7  and  C_8
REMARK    3  A    between atoms: N_10  and  C_11
REMARK    4  A    between atoms: C_11  and  C_12
REMARK    5  A    between atoms: C_12  and  N_13
REMARK    6  A    between atoms: N_16  and  N_17
REMARK    7  A    between atoms: C_18  and  C_20
REMARK    8  A    between atoms: C_20  and  C_21
REMARK                            x       y       z     vdW  Elec       q    Type
REMARK                         _______ _______ _______ _____ _____    ______ ____
ROOT
ATOM      1  N   UNL     1      -5.060  -2.967  -4.395  0.00  0.00    -0.297 N 
ATOM      2  C   UNL     1      -6.201  -3.643  -4.634  0.00  0.00    +0.316 C 
ATOM      3  O   UNL     1      -6.871  -4.052  -3.706  0.00  0.00    -0.251 OA
ATOM      4  N   UNL     1      -6.599  -3.866  -5.902  0.00  0.00    -0.218 N 
ATOM      5  H   UNL     1      -4.525  -2.641  -5.136  0.00  0.00    +0.150 HD
ATOM      6  H   UNL     1      -7.420  -4.353  -6.074  0.00  0.00    +0.174 HD
ENDROOT
BRANCH   4   7
ATOM      7  N   UNL     1      -5.827  -3.395  -6.972  0.00  0.00    -0.233 N 
ATOM      8  C   UNL     1      -6.225  -3.618  -8.240  0.00  0.00    +0.229 C 
ATOM      9  O   UNL     1      -7.252  -4.226  -8.455  0.00  0.00    -0.274 OA
ATOM     10  H   UNL     1      -5.006  -2.908  -6.800  0.00  0.00    +0.173 HD
BRANCH   8  11
ATOM     11  C   UNL     1      -5.395  -3.111  -9.391  0.00  0.00    +0.101 C 
BRANCH  11  12
ATOM     12  C   UNL     1      -6.065  -3.495 -10.712  0.00  0.00    -0.002 C 
ATOM     13  C   UNL     1      -7.407  -2.771 -10.832  0.00  0.00    +0.004 C 
ATOM     14  C   UNL     1      -8.077  -3.155 -12.153  0.00  0.00    +0.000 C 
ATOM     15  C   UNL     1      -7.174  -2.751 -13.319  0.00  0.00    +0.000 C 
ATOM     16  C   UNL     1      -5.831  -3.475 -13.199  0.00  0.00    +0.000 C 
ATOM     17  C   UNL     1      -5.161  -3.091 -11.879  0.00  0.00    +0.004 C 
ENDBRANCH  11  12
ENDBRANCH   8  11
ENDBRANCH   4   7
BRANCH   1  18
ATOM     18  C   UNL     1      -4.627  -2.725  -3.017  0.00  0.00    +0.124 C 
BRANCH  18  19
ATOM     19  C   UNL     1      -3.312  -1.942  -3.025  0.00  0.00    +0.123 C 
BRANCH  19  22
ATOM     20  C   UNL     1      -1.738  -1.024  -1.408  0.00  0.00    +0.217 C 
ATOM     21  O   UNL     1      -1.070  -0.616  -2.334  0.00  0.00    -0.275 OA
ATOM     22  N   UNL     1      -2.879  -1.700  -1.647  0.00  0.00    -0.314 N 
ATOM     23  H   UNL     1      -3.414  -2.026  -0.906  0.00  0.00    +0.149 HD
BRANCH  20  24
ATOM     24  C   UNL     1      -1.293  -0.775   0.010  0.00  0.00    +0.130 C 
BRANCH  24  30
ATOM     25  C   UNL     1      -0.017   1.378   0.010  0.00  0.00    +0.007 A 
ATOM     26  C   UNL     1       1.170   2.086   0.002  0.00  0.00    +0.038 A 
ATOM     27  C   UNL     1       2.379   1.410  -0.013  0.00  0.00    +0.123 A 
ATOM     28  C   UNL     1       2.396   0.026  -0.021  0.00  0.00    +0.038 A 
ATOM     29  C   UNL     1       1.208  -0.680  -0.013  0.00  0.00    +0.007 A 
ATOM     30  C   UNL     1       0.002  -0.004   0.002  0.00  0.00    -0.038 A 
ATOM     31  F   UNL     1       3.540   2.101  -0.021  0.00  0.00    -0.205 F 
ENDBRANCH  24  30
ENDBRANCH  20  24
ENDBRANCH  19  22
ENDBRANCH  18  19
ENDBRANCH   1  18
TORSDOF 8
