REMARK  Name = ZINC13062895
REMARK  13 active torsions:
REMARK  status: ('A' for Active; 'I' for Inactive)
REMARK    1  A    between atoms: C_1  and  C_2
REMARK    2  A    between atoms: C_2  and  C_3
REMARK    3  A    between atoms: C_2  and  C_4
REMARK    4  A    between atoms: C_4  and  N_5
REMARK    5  A    between atoms: C_6  and  N_37
REMARK    6  A    between atoms: C_7  and  N_14
REMARK    7  A    between atoms: N_14  and  C_15
REMARK    8  A    between atoms: C_15  and  C_16
REMARK    9  A    between atoms: C_16  and  C_17
REMARK   10  A    between atoms: C_16  and  C_18
REMARK   11  A    between atoms: C_19  and  C_21
REMARK   12  A    between atoms: C_21  and  N_73
REMARK   13  A    between atoms: C_25  and  C_27
REMARK                            x       y       z     vdW  Elec       q    Type
REMARK                         _______ _______ _______ _____ _____    ______ ____
ROOT
ATOM      1  N   UNL     1      -3.094   3.984  -3.931  0.00  0.00    -0.266 N 
ATOM      2  C   UNL     1      -3.041   3.041  -2.967  0.00  0.00    +0.203 C 
ATOM      3  O   UNL     1      -2.717   3.345  -1.838  0.00  0.00    -0.277 OA
ENDROOT
BRANCH   1   6
ATOM      4  N   UNL     1      -5.210   3.814  -6.930  0.00  0.00    -0.280 N 
ATOM      5  C   UNL     1      -4.773   4.155  -5.671  0.00  0.00    +0.127 A 
ATOM      6  C   UNL     1      -3.571   3.653  -5.217  0.00  0.00    +0.140 A 
ATOM      7  C   UNL     1      -2.825   2.809  -6.061  0.00  0.00    +0.277 A 
ATOM      8  O   UNL     1      -1.756   2.355  -5.686  0.00  0.00    -0.266 OA
ATOM      9  N   UNL     1      -3.301   2.502  -7.283  0.00  0.00    -0.273 N 
ATOM     10  H   UNL     1      -2.776   1.895  -7.880  0.00  0.00    +0.173 HD
ATOM     11  C   UNL     1      -4.475   3.001  -7.709  0.00  0.00    +0.331 A 
ATOM     12  O   UNL     1      -4.879   2.711  -8.819  0.00  0.00    -0.246 OA
BRANCH   5  13
ATOM     13  N   UNL     1      -5.524   4.987  -4.876  0.00  0.00    -0.343 N 
ATOM     14  H   UNL     1      -5.181   5.274  -4.014  0.00  0.00    +0.144 HD
ATOM     15  H   UNL     1      -6.396   5.287  -5.175  0.00  0.00    +0.144 HD
ENDBRANCH   5  13
BRANCH   4  16
ATOM     16  C   UNL     1      -6.485   4.340  -7.425  0.00  0.00    +0.131 C 
BRANCH  16  18
ATOM     17  C   UNL     1      -5.394   5.424  -9.394  0.00  0.00    +0.009 C 
ATOM     18  C   UNL     1      -6.243   5.668  -8.146  0.00  0.00    +0.003 C 
ATOM     19  C   UNL     1      -7.586   6.279  -8.553  0.00  0.00    +0.009 C 
ENDBRANCH  16  18
ENDBRANCH   4  16
ENDBRANCH   1   6
BRANCH   1  20
ATOM     20  C   UNL     1      -2.659   5.353  -3.641  0.00  0.00    +0.117 C 
BRANCH  20  21
ATOM     21  C   UNL     1      -1.208   5.532  -4.094  0.00  0.00    +0.001 C 
ATOM     22  C   UNL     1      -0.796   6.995  -3.917  0.00  0.00    +0.009 C 
ATOM     23  C   UNL     1      -0.296   4.640  -3.250  0.00  0.00    +0.009 C 
ENDBRANCH  20  21
ENDBRANCH   1  20
BRANCH   2  24
ATOM     24  C   UNL     1      -3.382   1.610  -3.294  0.00  0.00    +0.020 C 
BRANCH  24  29
ATOM     25  C   UNL     1      -4.247   1.083  -1.086  0.00  0.00    -0.077 C 
ATOM     26  C   UNL     1      -4.572  -0.237  -0.361  0.00  0.00    -0.020 C 
ATOM     27  C   UNL     1      -3.683  -1.303  -1.042  0.00  0.00    -0.013 C 
ATOM     28  C   UNL     1      -3.367  -0.662  -2.418  0.00  0.00    -0.037 C 
ATOM     29  N   UNL     1      -3.218   0.761  -2.076  0.00  0.00    +0.390 N 
ATOM     30  H   UNL     1      -2.287   0.926  -1.674  0.00  0.00    -0.080 HD
BRANCH  28  31
ATOM     31  C   UNL     1      -2.089  -1.223  -2.986  0.00  0.00    -0.057 A 
ATOM     32  C   UNL     1      -0.871  -0.838  -2.458  0.00  0.00    +0.006 A 
ATOM     33  C   UNL     1       0.303  -1.353  -2.974  0.00  0.00    +0.049 A 
ATOM     34  C   UNL     1       0.262  -2.250  -4.031  0.00  0.00    +0.162 A 
ATOM     35  C   UNL     1      -0.962  -2.635  -4.564  0.00  0.00    +0.162 A 
ATOM     36  C   UNL     1      -2.136  -2.117  -4.039  0.00  0.00    +0.051 A 
ATOM     37  O   UNL     1      -1.024  -3.520  -5.596  0.00  0.00    -0.485 OA
ATOM     38  C   UNL     1       0.182  -3.730  -6.338  0.00  0.00    +0.270 C 
ATOM     39  C   UNL     1       1.333  -3.920  -5.341  0.00  0.00    +0.270 C 
ATOM     40  O   UNL     1       1.427  -2.740  -4.536  0.00  0.00    -0.485 OA
ENDBRANCH  28  31
ENDBRANCH  24  29
ENDBRANCH   2  24
TORSDOF 9
