REMARK  Name = ZINC08568294
REMARK  9 active torsions:
REMARK  status: ('A' for Active; 'I' for Inactive)
REMARK    1  A    between atoms: C_1  and  C_2
REMARK    2  A    between atoms: C_2  and  C_3
REMARK    3  A    between atoms: C_3  and  C_4
REMARK    4  A    between atoms: C_11  and  N_35
REMARK    5  A    between atoms: C_12  and  C_31
REMARK    6  A    between atoms: N_20  and  C_23
REMARK    7  A    between atoms: C_23  and  C_24
REMARK    8  A    between atoms: C_31  and  O_33
REMARK    9  A    between atoms: O_33  and  C_34
REMARK                            x       y       z     vdW  Elec       q    Type
REMARK                         _______ _______ _______ _____ _____    ______ ____
ROOT
ATOM      1  C   UNL     1       0.674  -1.974  -1.075  0.00  0.00    +0.071 A 
ATOM      2  C   UNL     1       1.690  -2.796  -0.607  0.00  0.00    +0.061 A 
ATOM      3  C   UNL     1       1.387  -4.084  -0.958  0.00  0.00    +0.223 A 
ATOM      4  N   UNL     1       0.220  -4.059  -1.620  0.00  0.00    -0.246 N 
ATOM      5  H   UNL     1      -0.243  -4.828  -1.990  0.00  0.00    +0.192 HD
ATOM      6  N   UNL     1      -0.214  -2.726  -1.679  0.00  0.00    -0.176 NA
ATOM      7  O   UNL     1       2.187  -5.133  -0.646  0.00  0.00    -0.424 OA
ATOM      8  C   UNL     1       3.434  -4.869  -0.210  0.00  0.00    +0.198 C 
ATOM      9  C   UNL     1       3.850  -3.637   0.178  0.00  0.00    +0.117 C 
ATOM     10  C   UNL     1       2.936  -2.443   0.155  0.00  0.00    +0.142 C 
ATOM     11  C   UNL     1       2.614  -1.977   1.538  0.00  0.00    -0.002 A 
ATOM     12  C   UNL     1       1.988  -2.605   2.593  0.00  0.00    +0.007 A 
ATOM     13  C   UNL     1       1.843  -1.874   3.767  0.00  0.00    +0.000 A 
ATOM     14  C   UNL     1       2.305  -0.577   3.867  0.00  0.00    +0.002 A 
ATOM     15  C   UNL     1       2.936   0.061   2.811  0.00  0.00    +0.024 A 
ATOM     16  C   UNL     1       3.089  -0.662   1.627  0.00  0.00    +0.041 A 
ATOM     17  N   UNL     1       3.674  -0.280   0.433  0.00  0.00    -0.265 N 
ATOM     18  C   UNL     1       3.630  -1.264  -0.490  0.00  0.00    +0.240 C 
ATOM     19  O   UNL     1       4.065  -1.212  -1.621  0.00  0.00    -0.274 OA
ENDROOT
BRANCH   8  20
ATOM     20  N   UNL     1       4.332  -5.902  -0.154  0.00  0.00    -0.329 N 
ATOM     21  H   UNL     1       4.042  -6.808  -0.345  0.00  0.00    +0.145 HD
ATOM     22  H   UNL     1       5.258  -5.728   0.076  0.00  0.00    +0.145 HD
ENDBRANCH   8  20
BRANCH   9  23
ATOM     23  C   UNL     1       5.173  -3.473   0.615  0.00  0.00    +0.341 C 
ATOM     24  O   UNL     1       5.418  -3.414   1.807  0.00  0.00    -0.245 OA
BRANCH  23  25
ATOM     25  O   UNL     1       6.175  -3.379  -0.286  0.00  0.00    -0.465 OA
ATOM     26  C   UNL     1       7.497  -3.212   0.230  0.00  0.00    +0.280 C 
ENDBRANCH  23  25
ENDBRANCH   9  23
BRANCH   1  27
ATOM     27  C   UNL     1       0.601  -0.477  -0.910  0.00  0.00    +0.057 C 
BRANCH  27  29
ATOM     28  C   UNL     1      -0.202   1.377   0.559  0.00  0.00    +0.004 C 
ATOM     29  C   UNL     1      -0.128  -0.142   0.392  0.00  0.00    +0.003 C 
ENDBRANCH  27  29
ENDBRANCH   1  27
BRANCH  17  30
ATOM     30  C   UNL     1       4.269   1.038   0.198  0.00  0.00    +0.148 C 
BRANCH  30  31
ATOM     31  C   UNL     1       5.728   1.005   0.575  0.00  0.00    -0.030 A 
ATOM     32  C   UNL     1       6.114   1.311   1.867  0.00  0.00    +0.008 A 
ATOM     33  C   UNL     1       7.451   1.280   2.214  0.00  0.00    +0.038 A 
ATOM     34  C   UNL     1       8.404   0.943   1.268  0.00  0.00    +0.123 A 
ATOM     35  C   UNL     1       8.016   0.637  -0.025  0.00  0.00    +0.038 A 
ATOM     36  C   UNL     1       6.678   0.663  -0.369  0.00  0.00    +0.008 A 
ATOM     37  F   UNL     1       9.712   0.914   1.607  0.00  0.00    -0.205 F 
ENDBRANCH  30  31
ENDBRANCH  17  30
TORSDOF 7
