REMARK  Name = ZINC36796416
REMARK  8 active torsions:
REMARK  status: ('A' for Active; 'I' for Inactive)
REMARK    1  A    between atoms: C_1  and  C_2
REMARK    2  A    between atoms: C_2  and  C_4
REMARK    3  A    between atoms: C_2  and  S_11
REMARK    4  A    between atoms: N_9  and  C_10
REMARK    5  A    between atoms: S_11  and  C_12
REMARK    6  A    between atoms: C_15  and  C_24
REMARK    7  A    between atoms: N_16  and  C_17
REMARK    8  A    between atoms: C_17  and  C_18
REMARK                            x       y       z     vdW  Elec       q    Type
REMARK                         _______ _______ _______ _____ _____    ______ ____
ROOT
ATOM      1  C   UNL     1      -0.229  -0.235  -2.872  0.00  0.00    +0.193 A 
ATOM      2  N   UNL     1      -1.330   0.447  -2.661  0.00  0.00    -0.122 NA
ATOM      3  N   UNL     1      -1.788   0.903  -3.772  0.00  0.00    -0.128 NA
ATOM      4  C   UNL     1      -1.006   0.540  -4.762  0.00  0.00    +0.167 A 
ATOM      5  N   UNL     1       0.021  -0.195  -4.216  0.00  0.00    -0.300 N 
ENDROOT
BRANCH   4   6
ATOM      6  C   UNL     1      -1.191   0.864  -6.191  0.00  0.00    +0.044 A 
ATOM      7  C   UNL     1      -0.243   1.327  -7.047  0.00  0.00    +0.095 A 
ATOM      8  N   UNL     1      -0.790   1.509  -8.284  0.00  0.00    -0.360 N 
ATOM      9  H   UNL     1      -0.308   1.833  -9.061  0.00  0.00    +0.165 HD
ATOM     10  C   UNL     1      -2.125   1.167  -8.270  0.00  0.00    +0.047 A 
ATOM     11  C   UNL     1      -2.437   0.744  -6.967  0.00  0.00    +0.010 A 
ATOM     12  C   UNL     1      -3.731   0.329  -6.659  0.00  0.00    +0.011 A 
ATOM     13  C   UNL     1      -4.700   0.333  -7.638  0.00  0.00    +0.001 A 
ATOM     14  C   UNL     1      -4.392   0.748  -8.926  0.00  0.00    +0.002 A 
ATOM     15  C   UNL     1      -3.119   1.168  -9.243  0.00  0.00    +0.026 A 
ENDBRANCH   4   6
BRANCH   1  16
ATOM     16  S   UNL     1       0.750  -1.044  -1.651  0.00  0.00    -0.074 S 
BRANCH  16  18
ATOM     17  C   UNL     1      -0.094   0.789   0.197  0.00  0.00    +0.029 C 
ATOM     18  C   UNL     1      -0.125  -0.713  -0.097  0.00  0.00    +0.137 C 
BRANCH  18  19
ATOM     19  C   UNL     1       0.547  -1.458   1.027  0.00  0.00    +0.233 C 
ATOM     20  O   UNL     1       1.718  -1.760   0.940  0.00  0.00    -0.274 OA
ATOM     21  N   UNL     1      -0.154  -1.790   2.130  0.00  0.00    -0.239 N 
ATOM     22  C   UNL     1       0.447  -2.457   3.135  0.00  0.00    +0.306 C 
ATOM     23  O   UNL     1       1.621  -2.759   3.047  0.00  0.00    -0.252 OA
ATOM     24  N   UNL     1      -0.253  -2.789   4.237  0.00  0.00    -0.302 N 
ATOM     25  C   UNL     1       0.400  -3.514   5.330  0.00  0.00    +0.129 C 
ATOM     26  H   UNL     1      -1.091  -1.549   2.200  0.00  0.00    +0.159 HD
ATOM     27  H   UNL     1      -1.190  -2.548   4.307  0.00  0.00    +0.150 HD
ENDBRANCH  18  19
ENDBRANCH  16  18
ENDBRANCH   1  16
BRANCH   5  28
ATOM     28  C   UNL     1       1.145  -0.810  -4.927  0.00  0.00    +0.157 C 
BRANCH  28  29
ATOM     29  C   UNL     1       0.814  -2.271  -5.239  0.00  0.00    +0.138 C 
ATOM     30  C   UNL     1       2.038  -2.960  -5.879  0.00  0.00    +0.035 C 
ATOM     31  C   UNL     1       1.382  -3.857  -6.964  0.00  0.00    +0.031 C 
ATOM     32  C   UNL     1       0.183  -2.972  -7.391  0.00  0.00    +0.160 C 
ATOM     33  O   UNL     1      -0.263  -2.335  -6.181  0.00  0.00    -0.375 OA
ENDBRANCH  28  29
ENDBRANCH   5  28
TORSDOF 6
