REMARK  Name = ZINC53448635
REMARK  9 active torsions:
REMARK  status: ('A' for Active; 'I' for Inactive)
REMARK    1  A    between atoms: C_1  and  C_2
REMARK    2  A    between atoms: C_4  and  C_7
REMARK    3  A    between atoms: C_13  and  C_15
REMARK    4  A    between atoms: C_15  and  C_17
REMARK    5  A    between atoms: C_15  and  N_21
REMARK    6  A    between atoms: C_17  and  C_18
REMARK    7  A    between atoms: C_18  and  C_19
REMARK    8  A    between atoms: C_18  and  C_20
REMARK    9  A    between atoms: C_22  and  C_24
REMARK                            x       y       z     vdW  Elec       q    Type
REMARK                         _______ _______ _______ _____ _____    ______ ____
ROOT
ATOM      1  C   UNL     1      -1.196  -8.036  -1.858  0.00  0.00    +0.160 C 
ENDROOT
BRANCH   1   8
ATOM      2  C   UNL     1       0.596  -3.506  -0.791  0.00  0.00    +0.081 C 
ATOM      3  C   UNL     1       1.774  -4.469  -0.955  0.00  0.00    +0.032 C 
ATOM      4  C   UNL     1       1.534  -5.361  -2.177  0.00  0.00    +0.108 C 
ATOM      5  N   UNL     1       0.230  -6.022  -2.030  0.00  0.00    -0.300 N 
ATOM      6  C   UNL     1      -0.958  -5.195  -1.778  0.00  0.00    +0.108 C 
ATOM      7  C   UNL     1      -0.689  -4.305  -0.561  0.00  0.00    +0.032 C 
ATOM      8  C   UNL     1       0.125  -7.363  -2.126  0.00  0.00    +0.236 C 
ATOM      9  O   UNL     1       1.094  -8.027  -2.427  0.00  0.00    -0.274 OA
BRANCH   2  13
ATOM     10  C   UNL     1       1.310   0.632   1.940  0.00  0.00    +0.091 C 
ATOM     11  C   UNL     1       1.155  -0.824   1.583  0.00  0.00    +0.169 A 
ATOM     12  N   UNL     1       0.927  -1.303   0.355  0.00  0.00    -0.196 NA
ATOM     13  C   UNL     1       0.845  -2.604   0.390  0.00  0.00    +0.231 A 
ATOM     14  O   UNL     1       1.020  -3.001   1.657  0.00  0.00    -0.338 OA
ATOM     15  N   UNL     1       1.227  -1.820   2.418  0.00  0.00    -0.062 NA
ENDBRANCH   2  13
ENDBRANCH   1   8
BRANCH   1  16
ATOM     16  N   UNL     1      -0.964  -9.434  -1.483  0.00  0.00    -0.300 N 
ATOM     17  C   UNL     1      -1.872 -10.089  -0.733  0.00  0.00    +0.245 C 
ATOM     18  O   UNL     1      -2.882  -9.521  -0.366  0.00  0.00    -0.270 OA
ATOM     19  H   UNL     1      -0.158  -9.887  -1.776  0.00  0.00    +0.150 HD
BRANCH  17  20
ATOM     20  C   UNL     1      -1.638 -11.499  -0.355  0.00  0.00    +0.037 A 
ATOM     21  C   UNL     1      -0.476 -12.152  -0.770  0.00  0.00    +0.014 A 
ATOM     22  C   UNL     1      -0.264 -13.467  -0.414  0.00  0.00    +0.021 A 
ATOM     23  C   UNL     1      -1.200 -14.140   0.353  0.00  0.00    +0.041 A 
ATOM     24  C   UNL     1      -2.355 -13.498   0.767  0.00  0.00    +0.021 A 
ATOM     25  C   UNL     1      -2.576 -12.181   0.422  0.00  0.00    +0.014 A 
ATOM     26 CL   UNL     1      -0.926 -15.796   0.796  0.00  0.00    -0.084 Cl
ENDBRANCH  17  20
ENDBRANCH   1  16
BRANCH   1  27
ATOM     27  C   UNL     1      -2.061  -7.983  -3.119  0.00  0.00    +0.034 C 
BRANCH  27  28
ATOM     28  C   UNL     1      -3.460  -8.513  -2.800  0.00  0.00    -0.015 C 
ATOM     29  C   UNL     1      -4.144  -7.579  -1.800  0.00  0.00    +0.007 C 
ATOM     30  C   UNL     1      -4.286  -8.577  -4.086  0.00  0.00    +0.007 C 
ENDBRANCH  27  28
ENDBRANCH   1  27
TORSDOF 6
