REMARK  Name = ZINC15050022
REMARK  6 active torsions:
REMARK  status: ('A' for Active; 'I' for Inactive)
REMARK    1  A    between atoms: C_3  and  C_9
REMARK    2  A    between atoms: N_13  and  C_17
REMARK    3  A    between atoms: C_17  and  C_18
REMARK    4  A    between atoms: N_20  and  C_21
REMARK    5  A    between atoms: C_24  and  S_27
REMARK    6  A    between atoms: S_27  and  N_30
REMARK                            x       y       z     vdW  Elec       q    Type
REMARK                         _______ _______ _______ _____ _____    ______ ____
ROOT
ATOM      1  C   UNL     1       5.822  -5.048   0.365  0.00  0.00    +0.213 C 
ENDROOT
BRANCH   1   6
ATOM      2  C   UNL     1       4.580  -0.268  -0.101  0.00  0.00    +0.029 C 
ATOM      3  C   UNL     1       4.383  -1.602   0.037  0.00  0.00    +0.080 C 
ATOM      4  C   UNL     1       5.373  -2.695   0.133  0.00  0.00    +0.261 C 
ATOM      5  O   UNL     1       6.570  -2.479   0.092  0.00  0.00    -0.269 OA
ATOM      6  N   UNL     1       4.892  -3.920   0.265  0.00  0.00    -0.219 N 
ATOM      7  C   UNL     1       3.565  -4.154   0.310  0.00  0.00    +0.286 C 
ATOM      8  O   UNL     1       2.990  -5.220   0.428  0.00  0.00    -0.262 OA
ATOM      9  S   UNL     1       2.856  -2.522   0.162  0.00  0.00    -0.026 S 
BRANCH   2  12
ATOM     10  C   UNL     1       1.202   0.964  -1.165  0.00  0.00    +0.002 A 
ATOM     11  C   UNL     1       2.271   0.124  -0.940  0.00  0.00    +0.009 A 
ATOM     12  C   UNL     1       3.436   0.622  -0.345  0.00  0.00    -0.004 A 
ATOM     13  C   UNL     1       3.505   1.973   0.016  0.00  0.00    +0.066 A 
ATOM     14  C   UNL     1       2.424   2.802  -0.216  0.00  0.00    +0.060 A 
ATOM     15  C   UNL     1       1.276   2.299  -0.805  0.00  0.00    +0.021 A 
ATOM     16 CL   UNL     1       2.505   4.477   0.231  0.00  0.00    -0.082 Cl
ATOM     17 CL   UNL     1       4.944   2.605   0.754  0.00  0.00    -0.081 Cl
ENDBRANCH   2  12
ENDBRANCH   1   6
BRANCH   1  18
ATOM     18  C   UNL     1       6.163  -5.290   1.813  0.00  0.00    +0.235 C 
ATOM     19  O   UNL     1       5.678  -4.590   2.676  0.00  0.00    -0.274 OA
ATOM     20  N   UNL     1       7.008  -6.285   2.148  0.00  0.00    -0.284 N 
ATOM     21  H   UNL     1       7.453  -6.798   1.455  0.00  0.00    +0.155 HD
BRANCH  20  22
ATOM     22  C   UNL     1       7.244  -6.579   3.496  0.00  0.00    +0.034 A 
ATOM     23  C   UNL     1       8.500  -7.004   3.906  0.00  0.00    +0.025 A 
ATOM     24  C   UNL     1       8.731  -7.288   5.238  0.00  0.00    +0.030 A 
ATOM     25  C   UNL     1       7.710  -7.159   6.161  0.00  0.00    +0.105 A 
ATOM     26  C   UNL     1       6.456  -6.740   5.755  0.00  0.00    +0.030 A 
ATOM     27  C   UNL     1       6.220  -6.450   4.425  0.00  0.00    +0.025 A 
BRANCH  25  28
ATOM     28  S   UNL     1       8.006  -7.529   7.858  0.00  0.00    +0.056 S 
ATOM     29  O   UNL     1       9.403  -7.375   8.069  0.00  0.00    -0.153 OA
ATOM     30  O   UNL     1       7.038  -6.806   8.606  0.00  0.00    -0.153 OA
BRANCH  28  31
ATOM     31  N   UNL     1       7.669  -9.136   8.075  0.00  0.00    -0.204 NA
ATOM     32  H   UNL     1       8.143  -9.643   8.752  0.00  0.00    +0.144 HD
ATOM     33  H   UNL     1       6.997  -9.569   7.525  0.00  0.00    +0.144 HD
ENDBRANCH  28  31
ENDBRANCH  25  28
ENDBRANCH  20  22
ENDBRANCH   1  18
TORSDOF 6
