REMARK  Name = ZINC28103574
REMARK  5 active torsions:
REMARK  status: ('A' for Active; 'I' for Inactive)
REMARK    1  A    between atoms: C_1  and  C_2
REMARK    2  A    between atoms: C_2  and  C_4
REMARK    3  A    between atoms: C_2  and  N_19
REMARK    4  A    between atoms: N_6  and  C_7
REMARK    5  A    between atoms: C_7  and  C_8
REMARK                            x       y       z     vdW  Elec       q    Type
REMARK                         _______ _______ _______ _____ _____    ______ ____
ROOT
ATOM      1  C   UNL     1       2.387   9.286   2.334  0.00  0.00    +0.199 C 
ATOM      2  O   UNL     1       2.647   8.373   3.090  0.00  0.00    -0.278 OA
ATOM      3  N   UNL     1       2.829  10.530   2.603  0.00  0.00    -0.313 N 
ATOM      4  H   UNL     1       2.594  11.358   1.917  0.00  0.00    +0.149 HD
ENDROOT
BRANCH   1   6
ATOM      5  C   UNL     1       2.504   8.742  -0.083  0.00  0.00    -0.004 C 
ATOM      6  C   UNL     1       1.569   9.028   1.095  0.00  0.00    +0.016 C 
BRANCH   6   7
ATOM      7  N   UNL     1       0.693   7.870   1.318  0.00  0.00    +0.389 N 
ATOM      8  C   UNL     1      -0.275   8.141   2.389  0.00  0.00    -0.059 C 
ATOM      9  C   UNL     1      -1.113   6.886   2.644  0.00  0.00    +0.088 C 
ATOM     10  N   UNL     1      -1.800   6.498   1.404  0.00  0.00    -0.313 N 
ATOM     11  C   UNL     1      -0.831   6.227   0.333  0.00  0.00    +0.088 C 
ATOM     12  C   UNL     1       0.007   7.482   0.077  0.00  0.00    -0.059 C 
ATOM     13  C   UNL     1      -2.626   5.405   1.615  0.00  0.00    +0.160 A 
ATOM     14  N   UNL     1      -2.841   4.731   2.728  0.00  0.00    -0.233 NA
ATOM     15  C   UNL     1      -3.672   3.706   2.756  0.00  0.00    +0.120 A 
ATOM     16  C   UNL     1      -4.298   3.350   1.608  0.00  0.00    +0.068 A 
ATOM     17  S   UNL     1      -3.643   4.572   0.480  0.00  0.00    -0.061 S 
ATOM     18  H   UNL     1       1.324   7.027   1.635  0.00  0.00    -0.081 HD
ENDBRANCH   6   7
ENDBRANCH   1   6
BRANCH   3  19
ATOM     19  C   UNL     1       3.624  10.781   3.808  0.00  0.00    +0.152 C 
BRANCH  19  20
ATOM     20  C   UNL     1       3.996  12.263   3.874  0.00  0.00    +0.228 C 
ATOM     21  C   UNL     1       4.854  12.526   5.119  0.00  0.00    +0.275 C 
ATOM     22  O   UNL     1       5.194  13.917   5.143  0.00  0.00    -0.485 OA
ATOM     23  C   UNL     1       5.636  14.458   3.976  0.00  0.00    +0.162 A 
ATOM     24  C   UNL     1       6.312  15.669   4.000  0.00  0.00    +0.049 A 
ATOM     25  C   UNL     1       6.763  16.234   2.822  0.00  0.00    +0.004 A 
ATOM     26  C   UNL     1       6.543  15.593   1.617  0.00  0.00    +0.004 A 
ATOM     27  C   UNL     1       5.872  14.386   1.586  0.00  0.00    +0.049 A 
ATOM     28  C   UNL     1       5.417  13.813   2.764  0.00  0.00    +0.163 A 
ATOM     29  O   UNL     1       4.761  12.622   2.719  0.00  0.00    -0.480 OA
ENDBRANCH  19  20
ENDBRANCH   3  19
TORSDOF 4
