REMARK  Name = ZINC63985640
REMARK  10 active torsions:
REMARK  status: ('A' for Active; 'I' for Inactive)
REMARK    1  A    between atoms: C_1  and  C_2
REMARK    2  A    between atoms: C_2  and  N_3
REMARK    3  A    between atoms: C_7  and  C_9
REMARK    4  A    between atoms: C_9  and  N_10
REMARK    5  A    between atoms: C_11  and  C_13
REMARK    6  A    between atoms: N_16  and  C_18
REMARK    7  A    between atoms: C_18  and  C_19
REMARK    8  A    between atoms: C_19  and  O_20
REMARK    9  A    between atoms: O_20  and  C_21
REMARK   10  A    between atoms: C_26  and  C_28
REMARK                            x       y       z     vdW  Elec       q    Type
REMARK                         _______ _______ _______ _____ _____    ______ ____
ROOT
ATOM      1  C   UNL     1       5.108  -1.165  -1.105  0.00  0.00    +0.152 A 
ATOM      2  C   UNL     1       6.479  -1.270  -1.388  0.00  0.00    +0.023 A 
ATOM      3  C   UNL     1       6.707  -0.461  -2.452  0.00  0.00    +0.046 A 
ATOM      4  N   UNL     1       5.530   0.100  -2.780  0.00  0.00    -0.265 N 
ATOM      5  N   UNL     1       4.603  -0.324  -1.992  0.00  0.00    -0.166 NA
ATOM      6  C   UNL     1       8.053  -0.274  -3.103  0.00  0.00    +0.074 C 
ATOM      7  C   UNL     1       9.141  -0.751  -2.132  0.00  0.00    +0.114 C 
ATOM      8  N   UNL     1       8.744  -2.042  -1.552  0.00  0.00    -0.295 N 
ATOM      9  C   UNL     1       7.540  -2.086  -0.699  0.00  0.00    +0.147 C 
ATOM     10  C   UNL     1       9.460  -3.158  -1.793  0.00  0.00    +0.242 C 
ATOM     11  O   UNL     1       9.119  -4.215  -1.307  0.00  0.00    -0.273 OA
ENDROOT
BRANCH  10  12
ATOM     12  C   UNL     1      10.686  -3.092  -2.667  0.00  0.00    +0.190 C 
ATOM     13  C   UNL     1      10.306  -2.660  -4.066  0.00  0.00    +0.016 C 
ATOM     14  C   UNL     1      10.668  -3.676  -4.882  0.00  0.00    -0.004 A 
ATOM     15  C   UNL     1      10.567  -3.869  -6.334  0.00  0.00    +0.010 A 
ATOM     16  C   UNL     1      11.026  -5.020  -6.876  0.00  0.00    +0.001 A 
ATOM     17  C   UNL     1      11.593  -6.031  -6.088  0.00  0.00    +0.002 A 
ATOM     18  C   UNL     1      11.720  -5.927  -4.748  0.00  0.00    +0.026 A 
ATOM     19  C   UNL     1      11.271  -4.759  -4.073  0.00  0.00    +0.043 A 
ATOM     20  N   UNL     1      11.283  -4.425  -2.804  0.00  0.00    -0.370 N 
ATOM     21  H   UNL     1      11.627  -4.968  -2.077  0.00  0.00    +0.161 HD
ENDBRANCH  10  12
BRANCH   1  23
ATOM     22  N   UNL     1       3.047  -1.664   0.116  0.00  0.00    -0.312 N 
ATOM     23  C   UNL     1       4.372  -1.862  -0.031  0.00  0.00    +0.264 C 
ATOM     24  O   UNL     1       4.961  -2.614   0.721  0.00  0.00    -0.268 OA
ATOM     25  H   UNL     1       2.577  -1.064  -0.484  0.00  0.00    +0.149 HD
BRANCH  22  26
ATOM     26  C   UNL     1       2.317  -2.355   1.181  0.00  0.00    +0.089 C 
BRANCH  26  31
ATOM     27  N   UNL     1       0.713  -0.491   1.192  0.00  0.00    +0.382 N 
ATOM     28  C   UNL     1      -0.052  -0.137   2.407  0.00  0.00    -0.078 C 
ATOM     29  C   UNL     1      -0.890  -1.399   2.729  0.00  0.00    -0.020 C 
ATOM     30  C   UNL     1       0.097  -2.535   2.352  0.00  0.00    -0.016 C 
ATOM     31  C   UNL     1       0.840  -1.958   1.128  0.00  0.00    -0.051 C 
ATOM     32  H   UNL     1       1.629  -0.072   1.236  0.00  0.00    -0.081 HD
BRANCH  27  34
ATOM     33  C   UNL     1      -0.019   1.526   0.010  0.00  0.00    -0.017 C 
ATOM     34  C   UNL     1       0.002  -0.004   0.002  0.00  0.00    -0.082 C 
ENDBRANCH  27  34
ENDBRANCH  26  31
ENDBRANCH  22  26
ENDBRANCH   1  23
BRANCH   4  35
ATOM     35  C   UNL     1       5.330   1.050  -3.877  0.00  0.00    +0.171 C 
BRANCH  35  36
ATOM     36  C   UNL     1       4.989   0.286  -5.158  0.00  0.00    +0.182 C 
BRANCH  36  37
ATOM     37  O   UNL     1       4.794   1.212  -6.228  0.00  0.00    -0.381 OA
ATOM     38  C   UNL     1       4.469   0.598  -7.476  0.00  0.00    +0.194 C 
ENDBRANCH  36  37
ENDBRANCH  35  36
ENDBRANCH   4  35
TORSDOF 8
