REMARK  Name = ZINC66977375
REMARK  6 active torsions:
REMARK  status: ('A' for Active; 'I' for Inactive)
REMARK    1  A    between atoms: C_1  and  C_2
REMARK    2  A    between atoms: C_7  and  C_11
REMARK    3  A    between atoms: C_11  and  N_12
REMARK    4  A    between atoms: N_15  and  N_16
REMARK    5  A    between atoms: C_17  and  C_19
REMARK    6  A    between atoms: C_19  and  C_20
REMARK                            x       y       z     vdW  Elec       q    Type
REMARK                         _______ _______ _______ _____ _____    ______ ____
ROOT
ATOM      1  N   UNL     1       1.471  -5.968   2.492  0.00  0.00    -0.293 N 
ATOM      2  C   UNL     1       1.735  -7.130   3.123  0.00  0.00    +0.316 C 
ATOM      3  O   UNL     1       0.825  -7.792   3.584  0.00  0.00    -0.251 OA
ATOM      4  N   UNL     1       3.007  -7.559   3.241  0.00  0.00    -0.218 N 
ATOM      5  H   UNL     1       2.197  -5.441   2.124  0.00  0.00    +0.151 HD
ATOM      6  H   UNL     1       3.197  -8.395   3.695  0.00  0.00    +0.174 HD
ENDROOT
BRANCH   4   7
ATOM      7  N   UNL     1       4.056  -6.796   2.709  0.00  0.00    -0.233 N 
ATOM      8  C   UNL     1       5.328  -7.225   2.828  0.00  0.00    +0.234 C 
ATOM      9  O   UNL     1       5.565  -8.270   3.395  0.00  0.00    -0.274 OA
ATOM     10  H   UNL     1       3.866  -5.960   2.256  0.00  0.00    +0.173 HD
BRANCH   8  11
ATOM     11  C   UNL     1       6.455  -6.405   2.256  0.00  0.00    +0.135 C 
BRANCH  11  12
ATOM     12  C   UNL     1       7.766  -7.100   2.521  0.00  0.00    -0.003 A 
ATOM     13  C   UNL     1       8.516  -6.761   3.631  0.00  0.00    +0.007 A 
ATOM     14  C   UNL     1       9.718  -7.398   3.875  0.00  0.00    +0.000 A 
ATOM     15  C   UNL     1      10.172  -8.374   3.007  0.00  0.00    +0.003 A 
ATOM     16  C   UNL     1       9.425  -8.715   1.897  0.00  0.00    +0.038 A 
ATOM     17  C   UNL     1       8.217  -8.081   1.655  0.00  0.00    +0.127 A 
ATOM     18  F   UNL     1       7.483  -8.416   0.571  0.00  0.00    -0.205 F 
ENDBRANCH  11  12
ENDBRANCH   8  11
ENDBRANCH   4   7
BRANCH   1  19
ATOM     19  C   UNL     1       0.088  -5.503   2.364  0.00  0.00    +0.160 C 
BRANCH  19  26
ATOM     20  C   UNL     1      -0.018   1.503   0.010  0.00  0.00    +0.045 C 
ATOM     21  C   UNL     1       0.002  -0.004   0.002  0.00  0.00    -0.034 A 
ATOM     22  C   UNL     1       0.006  -0.697  -1.220  0.00  0.00    +0.008 A 
ATOM     23  C   UNL     1       0.025  -2.057  -1.224  0.00  0.00    +0.045 A 
ATOM     24  C   UNL     1       0.040  -2.750   0.003  0.00  0.00    +0.115 A 
ATOM     25  N   UNL     1       0.059  -4.043   0.297  0.00  0.00    -0.342 N 
ATOM     26  C   UNL     1       0.067  -4.189   1.625  0.00  0.00    +0.051 A 
ATOM     27  C   UNL     1       0.053  -2.964   2.194  0.00  0.00    +0.115 A 
ATOM     28  N   UNL     1       0.036  -2.047   1.179  0.00  0.00    -0.308 N 
ATOM     29  C   UNL     1       0.022  -0.682   1.169  0.00  0.00    +0.096 A 
ATOM     30  H   UNL     1       0.066  -4.766  -0.348  0.00  0.00    +0.167 HD
ENDBRANCH  19  26
ENDBRANCH   1  19
TORSDOF 5
