REMARK  Name = ZINC38581872
REMARK  3 active torsions:
REMARK  status: ('A' for Active; 'I' for Inactive)
REMARK    1  A    between atoms: C_1  and  C_2
REMARK    2  A    between atoms: C_4  and  C_25
REMARK    3  A    between atoms: C_30  and  C_31
REMARK                            x       y       z     vdW  Elec       q    Type
REMARK                         _______ _______ _______ _____ _____    ______ ____
ROOT
ATOM      1  C   UNL     1      -0.053   1.573  -0.091  0.00  0.00    +0.062 C 
ATOM      2  C   UNL     1       0.008   0.067  -0.095  0.00  0.00    +0.023 C 
ATOM      3  C   UNL     1      -1.042  -0.713  -0.052  0.00  0.00    +0.005 C 
ATOM      4  C   UNL     1      -2.507  -0.305  -0.049  0.00  0.00    +0.108 C 
ATOM      5  S   UNL     1      -3.437  -1.627   0.795  0.00  0.00    -0.139 S 
ATOM      6  C   UNL     1      -3.555  -2.958  -0.418  0.00  0.00    +0.165 C 
ATOM      7  C   UNL     1      -2.423  -3.118  -1.331  0.00  0.00    +0.225 C 
ATOM      8  O   UNL     1      -2.709  -3.618  -2.398  0.00  0.00    -0.275 OA
ATOM      9  N   UNL     1      -1.152  -2.815  -1.197  0.00  0.00    -0.291 N 
ATOM     10  C   UNL     1      -0.565  -2.144  -0.044  0.00  0.00    +0.210 C 
ATOM     11  N   UNL     1       0.896  -2.040  -0.183  0.00  0.00    -0.213 N 
ATOM     12  N   UNL     1       1.181  -0.666  -0.151  0.00  0.00    -0.265 N 
ATOM     13  C   UNL     1       1.776  -3.052  -0.318  0.00  0.00    +0.150 C 
ATOM     14  N   UNL     1       1.375  -4.311  -0.345  0.00  0.00    -0.221 NA
ATOM     15  C   UNL     1       2.201  -5.349  -0.412  0.00  0.00    +0.225 C 
ATOM     16  N   UNL     1       3.497  -5.247  -0.139  0.00  0.00    -0.218 NA
ATOM     17  C   UNL     1       3.939  -4.025   0.140  0.00  0.00    +0.164 C 
ATOM     18  N   UNL     1       4.876  -3.550   0.905  0.00  0.00    -0.219 NA
ATOM     19  C   UNL     1       4.703  -2.241   1.130  0.00  0.00    +0.218 C 
ATOM     20  N   UNL     1       3.751  -1.717   0.409  0.00  0.00    -0.253 NA
ATOM     21  C   UNL     1       3.252  -2.792  -0.451  0.00  0.00    +0.239 C 
ATOM     22  H   UNL     1      -0.556  -3.058  -1.923  0.00  0.00    +0.151 HD
ATOM     23  H   UNL     1       2.073  -0.285  -0.163  0.00  0.00    +0.170 HD
ENDROOT
BRANCH   4  24
ATOM     24  C   UNL     1      -2.676   0.996   0.693  0.00  0.00    -0.019 A 
ATOM     25  C   UNL     1      -2.454   1.048   2.057  0.00  0.00    +0.005 A 
ATOM     26  C   UNL     1      -2.609   2.241   2.737  0.00  0.00    +0.000 A 
ATOM     27  C   UNL     1      -2.984   3.383   2.054  0.00  0.00    +0.001 A 
ATOM     28  C   UNL     1      -3.205   3.331   0.690  0.00  0.00    +0.013 A 
ATOM     29  C   UNL     1      -3.046   2.139   0.009  0.00  0.00    +0.059 A 
BRANCH  29  30
ATOM     30  C   UNL     1      -3.281   2.084  -1.478  0.00  0.00    +0.418 C 
ATOM     31  F   UNL     1      -3.524   3.374  -1.960  0.00  0.00    -0.166 F 
ATOM     32  F   UNL     1      -2.151   1.555  -2.110  0.00  0.00    -0.166 F 
ATOM     33  F   UNL     1      -4.388   1.271  -1.746  0.00  0.00    -0.166 F 
ENDBRANCH  29  30
ENDBRANCH   4  24
TORSDOF 2
