REMARK  Name = ZINC10013814
REMARK  7 active torsions:
REMARK  status: ('A' for Active; 'I' for Inactive)
REMARK    1  A    between atoms: C_1  and  C_2
REMARK    2  A    between atoms: C_2  and  O_3
REMARK    3  A    between atoms: O_3  and  C_4
REMARK    4  A    between atoms: C_9  and  C_10
REMARK    5  A    between atoms: C_14  and  C_24
REMARK    6  A    between atoms: C_19  and  N_23
REMARK    7  A    between atoms: C_20  and  C_21
REMARK                            x       y       z     vdW  Elec       q    Type
REMARK                         _______ _______ _______ _____ _____    ______ ____
ROOT
ATOM      1  C   UNL     1      -4.062  -1.893   0.145  0.00  0.00    +0.086 C 
ATOM      2  C   UNL     1      -4.894  -1.911   1.433  0.00  0.00    +0.140 C 
ATOM      3  C   UNL     1      -4.323  -0.955   2.455  0.00  0.00    +0.084 C 
ATOM      4  N   UNL     1      -5.235  -0.041   2.646  0.00  0.00    -0.150 NA
ATOM      5  N   UNL     1      -6.358  -0.238   1.842  0.00  0.00    -0.115 NA
ATOM      6  C   UNL     1      -6.235  -1.278   1.072  0.00  0.00    +0.227 C 
ATOM      7  O   UNL     1      -6.994  -1.769   0.069  0.00  0.00    -0.425 OA
ATOM      8  C   UNL     1      -6.287  -2.199  -1.008  0.00  0.00    +0.200 C 
ATOM      9  C   UNL     1      -4.940  -2.279  -1.015  0.00  0.00    +0.095 C 
ENDROOT
BRANCH   3  10
ATOM     10  C   UNL     1      -3.005  -1.038   3.105  0.00  0.00    +0.000 A 
ATOM     11  C   UNL     1      -2.355  -2.272   3.220  0.00  0.00    +0.011 A 
ATOM     12  C   UNL     1      -1.121  -2.343   3.829  0.00  0.00    +0.022 A 
ATOM     13  C   UNL     1      -0.523  -1.197   4.327  0.00  0.00    +0.059 A 
ATOM     14  C   UNL     1      -1.160   0.029   4.216  0.00  0.00    +0.060 A 
ATOM     15  C   UNL     1      -2.394   0.116   3.604  0.00  0.00    +0.031 A 
ATOM     16 CL   UNL     1      -0.402   1.459   4.843  0.00  0.00    -0.082 Cl
ATOM     17 CL   UNL     1       1.032  -1.296   5.093  0.00  0.00    -0.082 Cl
ENDBRANCH   3  10
BRANCH   1  23
ATOM     18  C   UNL     1      -1.614  -2.436   0.166  0.00  0.00    +0.124 A 
ATOM     19  C   UNL     1      -0.570  -3.343   0.283  0.00  0.00    +0.046 A 
ATOM     20  C   UNL     1      -0.839  -4.681   0.493  0.00  0.00    +0.004 A 
ATOM     21  C   UNL     1      -2.148  -5.118   0.587  0.00  0.00    +0.001 A 
ATOM     22  C   UNL     1      -3.190  -4.217   0.471  0.00  0.00    +0.008 A 
ATOM     23  C   UNL     1      -2.926  -2.876   0.266  0.00  0.00    +0.004 A 
BRANCH  18  24
ATOM     24  O   UNL     1      -1.352  -1.119  -0.041  0.00  0.00    -0.492 OA
BRANCH  24  26
ATOM     25  C   UNL     1       0.118   0.772  -0.365  0.00  0.00    +0.048 C 
ATOM     26  C   UNL     1       0.022  -0.738  -0.133  0.00  0.00    +0.225 C 
ENDBRANCH  24  26
ENDBRANCH  18  24
ENDBRANCH   1  23
BRANCH   8  27
ATOM     27  N   UNL     1      -6.973  -2.567  -2.139  0.00  0.00    -0.328 N 
ATOM     28  H   UNL     1      -7.941  -2.516  -2.158  0.00  0.00    +0.145 HD
ATOM     29  H   UNL     1      -6.488  -2.877  -2.921  0.00  0.00    +0.145 HD
ENDBRANCH   8  27
BRANCH   9  30
ATOM     30  C   UNL     1      -4.303  -2.764  -2.203  0.00  0.00    +0.100 C 
ATOM     31  N   UNL     1      -3.799  -3.149  -3.144  0.00  0.00    -0.191 NA
ENDBRANCH   9  30
TORSDOF 6
