REMARK  Name = ZINC05626469
REMARK  5 active torsions:
REMARK  status: ('A' for Active; 'I' for Inactive)
REMARK    1  A    between atoms: C_9  and  C_11
REMARK    2  A    between atoms: C_16  and  C_17
REMARK    3  A    between atoms: C_16  and  N_48
REMARK    4  A    between atoms: N_21  and  C_22
REMARK    5  A    between atoms: C_22  and  C_23
REMARK                            x       y       z     vdW  Elec       q    Type
REMARK                         _______ _______ _______ _____ _____    ______ ____
ROOT
ATOM      1  C   UNL     1       2.190   6.684   0.017  0.00  0.00    +0.052 C 
ATOM      2  C   UNL     1       3.469   6.599  -0.820  0.00  0.00    -0.008 C 
ATOM      3  C   UNL     1       4.199   7.942  -0.765  0.00  0.00    -0.078 C 
ATOM      4  C   UNL     1       3.309   8.402   1.442  0.00  0.00    -0.078 C 
ATOM      5  C   UNL     1       2.553   7.072   1.453  0.00  0.00    -0.008 C 
ATOM      6  N   UNL     1       4.542   8.246   0.641  0.00  0.00    +0.384 N 
ATOM      7  H   UNL     1       5.092   7.469   1.025  0.00  0.00    -0.081 HD
ENDROOT
BRANCH   1  16
ATOM      8  C   UNL     1      -0.013   1.076   0.008  0.00  0.00    +0.002 A 
ATOM      9  C   UNL     1      -1.226   1.748   0.017  0.00  0.00    +0.002 A 
ATOM     10  C   UNL     1      -1.266   3.114   0.031  0.00  0.00    +0.030 A 
ATOM     11  C   UNL     1      -0.075   3.845   0.023  0.00  0.00    +0.089 A 
ATOM     12  C   UNL     1       1.154   3.165   0.008  0.00  0.00    +0.066 A 
ATOM     13  C   UNL     1       1.175   1.777   0.000  0.00  0.00    +0.028 A 
ATOM     14  N   UNL     1       2.130   4.141   0.004  0.00  0.00    -0.342 N 
ATOM     15  H   UNL     1       3.118   3.991  -0.006  0.00  0.00    +0.167 HD
ATOM     16  C   UNL     1       1.498   5.345   0.017  0.00  0.00    +0.111 A 
ATOM     17  N   UNL     1       0.208   5.173   0.028  0.00  0.00    -0.232 NA
ENDBRANCH   1  16
BRANCH   6  18
ATOM     18  C   UNL     1       5.347   9.483   0.708  0.00  0.00    +0.000 C 
BRANCH  18  19
ATOM     19  C   UNL     1       6.449   9.411  -0.317  0.00  0.00    +0.135 A 
ATOM     20  N   UNL     1       7.648   8.911  -0.143  0.00  0.00    -0.115 NA
ATOM     21  N   UNL     1       8.295   9.032  -1.251  0.00  0.00    -0.023 NA
ATOM     22  N   UNL     1       7.542   9.604  -2.125  0.00  0.00    -0.044 NA
ATOM     23  N   UNL     1       6.396   9.853  -1.587  0.00  0.00    -0.226 N 
BRANCH  23  24
ATOM     24  C   UNL     1       5.251  10.497  -2.237  0.00  0.00    +0.189 C 
BRANCH  24  25
ATOM     25  C   UNL     1       5.333  11.988  -2.037  0.00  0.00    +0.011 A 
ATOM     26  C   UNL     1       5.935  12.922  -2.814  0.00  0.00    +0.013 A 
ATOM     27  C   UNL     1       5.882  14.249  -2.430  0.00  0.00    +0.008 A 
ATOM     28  C   UNL     1       5.229  14.577  -1.289  0.00  0.00    +0.045 A 
ATOM     29  S   UNL     1       4.657  12.985  -0.720  0.00  0.00    -0.100 S 
ENDBRANCH  24  25
ENDBRANCH  23  24
ENDBRANCH  18  19
ENDBRANCH   6  18
TORSDOF 5
