REMARK  Name = ZINC20151275
REMARK  15 active torsions:
REMARK  status: ('A' for Active; 'I' for Inactive)
REMARK    1  A    between atoms: C_1  and  C_2
REMARK    2  A    between atoms: C_4  and  C_28
REMARK    3  A    between atoms: C_7  and  C_26
REMARK    4  A    between atoms: N_12  and  C_13
REMARK    5  A    between atoms: C_13  and  C_14
REMARK    6  A    between atoms: C_14  and  C_15
REMARK    7  A    between atoms: C_15  and  N_16
REMARK    8  A    between atoms: N_16  and  C_17
REMARK    9  A    between atoms: C_17  and  N_19
REMARK   10  A    between atoms: N_19  and  C_20
REMARK   11  A    between atoms: C_20  and  C_21
REMARK   12  A    between atoms: C_21  and  C_22
REMARK   13  A    between atoms: C_22  and  N_23
REMARK   14  A    between atoms: N_23  and  C_24
REMARK   15  A    between atoms: N_23  and  C_25
REMARK                            x       y       z     vdW  Elec       q    Type
REMARK                         _______ _______ _______ _____ _____    ______ ____
ROOT
ATOM      1  C   UNL     1       2.466   1.028  -0.015  0.00  0.00    +0.044 C 
ATOM      2  C   UNL     1       1.156   1.774   0.001  0.00  0.00    -0.048 A 
ATOM      3  C   UNL     1       1.161   3.167   0.007  0.00  0.00    +0.007 A 
ATOM      4  C   UNL     1      -0.006   3.869   0.022  0.00  0.00    -0.041 A 
ATOM      5  C   UNL     1      -1.231   3.181   0.030  0.00  0.00    +0.005 A 
ATOM      6  C   UNL     1      -2.454   3.875   0.045  0.00  0.00    +0.032 A 
ATOM      7  C   UNL     1      -3.627   3.133   0.053  0.00  0.00    +0.092 A 
ATOM      8  C   UNL     1      -3.554   1.720   0.045  0.00  0.00    +0.137 A 
ATOM      9  N   UNL     1      -2.397   1.095   0.030  0.00  0.00    -0.231 NA
ATOM     10  C   UNL     1      -1.238   1.764   0.018  0.00  0.00    +0.074 A 
ATOM     11  C   UNL     1      -0.013   1.076   0.008  0.00  0.00    +0.031 A 
ATOM     12  N   UNL     1      -4.724   0.981   0.053  0.00  0.00    -0.328 N 
ATOM     13  C   UNL     1       0.017   5.376   0.029  0.00  0.00    +0.044 C 
ATOM     14  H   UNL     1      -5.697   1.493   0.065  0.00  0.00    +0.147 HD
ENDROOT
BRANCH   7  15
ATOM     15  C   UNL     1      -4.898   3.792   0.068  0.00  0.00    +0.103 C 
ATOM     16  N   UNL     1      -5.907   4.314   0.081  0.00  0.00    -0.191 NA
ENDBRANCH   7  15
BRANCH  12  17
ATOM     17  C   UNL     1      -4.665  -0.483   0.045  0.00  0.00    +0.104 C 
BRANCH  17  18
ATOM     18  C   UNL     1      -6.087  -1.050   0.056  0.00  0.00    +0.037 C 
BRANCH  18  19
ATOM     19  C   UNL     1      -6.026  -2.578   0.047  0.00  0.00    +0.105 C 
BRANCH  19  20
ATOM     20  N   UNL     1      -7.386  -3.121   0.057  0.00  0.00    -0.327 N 
ATOM     21  H   UNL     1      -8.250  -2.440   0.069  0.00  0.00    +0.148 HD
BRANCH  20  22
ATOM     22  C   UNL     1      -7.580  -4.455   0.052  0.00  0.00    +0.130 C 
ATOM     23  S   UNL     1      -6.235  -5.515   0.034  0.00  0.00    -0.019 S 
BRANCH  22  24
ATOM     24  N   UNL     1      -8.832  -4.955   0.062  0.00  0.00    -0.327 N 
ATOM     25  H   UNL     1      -9.695  -4.274   0.074  0.00  0.00    +0.148 HD
BRANCH  24  26
ATOM     26  C   UNL     1      -9.042  -6.404   0.057  0.00  0.00    +0.101 C 
BRANCH  26  27
ATOM     27  C   UNL     1     -10.542  -6.702   0.070  0.00  0.00    +0.000 C 
BRANCH  27  28
ATOM     28  C   UNL     1     -10.762  -8.216   0.064  0.00  0.00    -0.078 C 
BRANCH  28  29
ATOM     29  N   UNL     1     -12.203  -8.502   0.076  0.00  0.00    +0.376 N 
ATOM     30  C   UNL     1     -12.840  -8.052  -1.168  0.00  0.00    -0.097 C 
ATOM     31  C   UNL     1     -12.454  -9.931   0.310  0.00  0.00    -0.097 C 
ATOM     32  H   UNL     1     -12.652  -7.940   0.908  0.00  0.00    -0.083 HD
ENDBRANCH  28  29
ENDBRANCH  27  28
ENDBRANCH  26  27
ENDBRANCH  24  26
ENDBRANCH  22  24
ENDBRANCH  20  22
ENDBRANCH  19  20
ENDBRANCH  18  19
ENDBRANCH  17  18
ENDBRANCH  12  17
TORSDOF 11
