REMARK  Name = ZINC05724130
REMARK  7 active torsions:
REMARK  status: ('A' for Active; 'I' for Inactive)
REMARK    1  A    between atoms: C_1  and  C_2
REMARK    2  A    between atoms: C_3  and  O_29
REMARK    3  A    between atoms: C_4  and  C_10
REMARK    4  A    between atoms: C_5  and  C_8
REMARK    5  A    between atoms: C_8  and  O_9
REMARK    6  A    between atoms: N_11  and  N_12
REMARK    7  A    between atoms: N_15  and  C_16
REMARK                            x       y       z     vdW  Elec       q    Type
REMARK                         _______ _______ _______ _____ _____    ______ ____
ROOT
ATOM      1  N   UNL     1      -0.587   0.734  -3.760  0.00  0.00    -0.191 N 
ATOM      2  C   UNL     1      -1.810   0.169  -3.788  0.00  0.00    +0.320 C 
ATOM      3  O   UNL     1      -2.347  -0.068  -4.853  0.00  0.00    -0.251 OA
ATOM      4  N   UNL     1      -2.439  -0.132  -2.635  0.00  0.00    -0.293 N 
ATOM      5  H   UNL     1      -0.134   0.951  -4.590  0.00  0.00    +0.179 HD
ATOM      6  H   UNL     1      -2.011   0.057  -1.785  0.00  0.00    +0.151 HD
ENDROOT
BRANCH   4   7
ATOM      7  C   UNL     1      -3.769  -0.746  -2.664  0.00  0.00    +0.037 C 
ATOM      8  C   UNL     1      -3.698  -2.082  -3.407  0.00  0.00    +0.029 C 
ATOM      9  C   UNL     1      -5.087  -2.723  -3.438  0.00  0.00    -0.008 C 
ATOM     10  C   UNL     1      -5.571  -2.960  -2.006  0.00  0.00    +0.007 C 
ATOM     11  C   UNL     1      -5.643  -1.624  -1.264  0.00  0.00    -0.008 C 
ATOM     12  C   UNL     1      -4.253  -0.983  -1.233  0.00  0.00    +0.029 C 
ATOM     13  C   UNL     1      -6.618  -0.692  -1.984  0.00  0.00    +0.007 C 
ATOM     14  C   UNL     1      -6.134  -0.454  -3.416  0.00  0.00    -0.008 C 
ATOM     15  C   UNL     1      -6.063  -1.790  -4.158  0.00  0.00    +0.007 C 
ATOM     16  C   UNL     1      -4.745   0.187  -3.385  0.00  0.00    +0.029 C 
ENDBRANCH   4   7
BRANCH   1  18
ATOM     17  C   UNL     1       1.209   1.551  -2.507  0.00  0.00    +0.142 C 
ATOM     18  N   UNL     1       0.031   1.007  -2.533  0.00  0.00    -0.186 NA
BRANCH  17  22
ATOM     19  C   UNL     1       1.200   1.511   2.499  0.00  0.00    +0.069 C 
ATOM     20  C   UNL     1       1.871   1.826   1.187  0.00  0.00    +0.080 A 
ATOM     21  C   UNL     1       1.222   1.532  -0.001  0.00  0.00    +0.147 A 
ATOM     22  C   UNL     1       1.860   1.838  -1.216  0.00  0.00    +0.045 A 
ATOM     23  C   UNL     1       3.131   2.425  -1.164  0.00  0.00    +0.008 A 
ATOM     24  C   UNL     1       3.702   2.677   0.066  0.00  0.00    +0.117 A 
ATOM     25  N   UNL     1       3.070   2.374   1.184  0.00  0.00    -0.256 NA
BRANCH  21  26
ATOM     26  O   UNL     1      -0.011   0.963   0.007  0.00  0.00    -0.504 OA
ATOM     27  H   UNL     1       0.002  -0.004   0.002  0.00  0.00    +0.292 HD
ENDBRANCH  21  26
BRANCH  23  28
ATOM     28  C   UNL     1       3.863   2.776  -2.433  0.00  0.00    +0.193 C 
BRANCH  28  29
ATOM     29  O   UNL     1       5.127   3.357  -2.109  0.00  0.00    -0.390 OA
ATOM     30  H   UNL     1       5.654   3.608  -2.880  0.00  0.00    +0.210 HD
ENDBRANCH  28  29
ENDBRANCH  23  28
ENDBRANCH  17  22
ENDBRANCH   1  18
TORSDOF 6
