REMARK  Name = ZINC39710648
REMARK  12 active torsions:
REMARK  status: ('A' for Active; 'I' for Inactive)
REMARK    1  A    between atoms: C_1  and  C_2
REMARK    2  A    between atoms: C_7  and  C_14
REMARK    3  A    between atoms: C_14  and  C_16
REMARK    4  A    between atoms: C_14  and  N_25
REMARK    5  A    between atoms: N_20  and  C_21
REMARK    6  A    between atoms: C_21  and  C_22
REMARK    7  A    between atoms: C_22  and  O_23
REMARK    8  A    between atoms: O_23  and  C_24
REMARK    9  A    between atoms: N_25  and  C_26
REMARK   10  A    between atoms: N_25  and  C_34
REMARK   11  A    between atoms: C_26  and  C_27
REMARK   12  A    between atoms: C_34  and  C_35
REMARK                            x       y       z     vdW  Elec       q    Type
REMARK                         _______ _______ _______ _____ _____    ______ ____
ROOT
ATOM      1  C   UNL     1       1.700  -5.769   1.128  0.00  0.00    +0.019 C 
ENDROOT
BRANCH   1   8
ATOM      2  C   UNL     1      -1.901   0.654  -0.278  0.00  0.00    +0.044 C 
ATOM      3  C   UNL     1      -1.453  -0.782  -0.192  0.00  0.00    -0.049 A 
ATOM      4  C   UNL     1      -1.521  -1.575  -1.338  0.00  0.00    +0.004 A 
ATOM      5  C   UNL     1      -1.132  -2.876  -1.323  0.00  0.00    +0.010 A 
ATOM      6  C   UNL     1      -0.633  -3.448  -0.071  0.00  0.00    -0.007 A 
ATOM      7  C   UNL     1      -0.231  -4.749  -0.009  0.00  0.00    -0.006 C 
ATOM      8  C   UNL     1       0.272  -5.257   1.328  0.00  0.00    +0.092 C 
ATOM      9  C   UNL     1       0.287  -4.280   2.482  0.00  0.00    +0.223 C 
ATOM     10  O   UNL     1       0.682  -4.635   3.577  0.00  0.00    -0.275 OA
ATOM     11  N   UNL     1      -0.129  -3.039   2.296  0.00  0.00    -0.285 N 
ATOM     12  C   UNL     1      -0.572  -2.588   1.123  0.00  0.00    +0.041 A 
ATOM     13  C   UNL     1      -0.995  -1.252   0.998  0.00  0.00    +0.027 A 
ATOM     14  H   UNL     1      -0.111  -2.428   3.050  0.00  0.00    +0.155 HD
ENDBRANCH   1   8
BRANCH   1  15
ATOM     15  C   UNL     1       2.598  -4.619   0.751  0.00  0.00    +0.139 A 
ATOM     16  N   UNL     1       3.067  -3.696   1.556  0.00  0.00    -0.115 NA
ATOM     17  N   UNL     1       3.793  -2.892   0.858  0.00  0.00    -0.023 NA
ATOM     18  N   UNL     1       3.799  -3.278  -0.370  0.00  0.00    -0.044 NA
ATOM     19  N   UNL     1       3.078  -4.343  -0.475  0.00  0.00    -0.229 N 
BRANCH  19  20
ATOM     20  C   UNL     1       2.825  -5.105  -1.701  0.00  0.00    +0.175 C 
BRANCH  20  21
ATOM     21  C   UNL     1       1.697  -4.441  -2.491  0.00  0.00    +0.183 C 
BRANCH  21  22
ATOM     22  O   UNL     1       1.437  -5.196  -3.677  0.00  0.00    -0.381 OA
ATOM     23  C   UNL     1       0.394  -4.657  -4.492  0.00  0.00    +0.194 C 
ENDBRANCH  21  22
ENDBRANCH  20  21
ENDBRANCH  19  20
ENDBRANCH   1  15
BRANCH   1  24
ATOM     24  N   UNL     1       2.181  -6.377   2.376  0.00  0.00    +0.394 N 
ATOM     25  H   UNL     1       2.258  -5.667   3.089  0.00  0.00    -0.080 HD
BRANCH  24  26
ATOM     26  C   UNL     1       3.499  -6.986   2.148  0.00  0.00    -0.041 C 
BRANCH  26  27
ATOM     27  C   UNL     1       3.394  -8.013   1.049  0.00  0.00    -0.064 A 
ATOM     28  C   UNL     1       2.990  -9.301   1.345  0.00  0.00    +0.003 A 
ATOM     29  C   UNL     1       2.894 -10.243   0.338  0.00  0.00    +0.020 A 
ATOM     30  C   UNL     1       3.202  -9.896  -0.966  0.00  0.00    +0.041 A 
ATOM     31  C   UNL     1       3.606  -8.606  -1.260  0.00  0.00    +0.020 A 
ATOM     32  C   UNL     1       3.696  -7.664  -0.254  0.00  0.00    +0.003 A 
ATOM     33 CL   UNL     1       3.082 -11.079  -2.231  0.00  0.00    -0.084 Cl
ENDBRANCH  26  27
ENDBRANCH  24  26
BRANCH  24  34
ATOM     34  C   UNL     1       1.234  -7.410   2.814  0.00  0.00    -0.002 C 
BRANCH  34  35
ATOM     35  C   UNL     1       1.647  -7.930   4.167  0.00  0.00    +0.089 A 
ATOM     36  C   UNL     1       1.182  -7.496   5.353  0.00  0.00    +0.042 A 
ATOM     37  C   UNL     1       1.836  -8.254   6.351  0.00  0.00    +0.041 A 
ATOM     38  C   UNL     1       2.662  -9.106   5.716  0.00  0.00    +0.195 A 
ATOM     39  O   UNL     1       2.539  -8.909   4.394  0.00  0.00    -0.470 OA
ENDBRANCH  34  35
ENDBRANCH  24  34
ENDBRANCH   1  24
TORSDOF 10
