REMARK  Name = ZINC06443826
REMARK  10 active torsions:
REMARK  status: ('A' for Active; 'I' for Inactive)
REMARK    1  A    between atoms: C_1  and  C_2
REMARK    2  A    between atoms: C_12  and  C_14
REMARK    3  A    between atoms: C_14  and  C_16
REMARK    4  A    between atoms: C_14  and  N_70
REMARK    5  A    between atoms: N_20  and  C_21
REMARK    6  A    between atoms: C_21  and  C_22
REMARK    7  A    between atoms: C_28  and  C_29
REMARK    8  A    between atoms: C_28  and  N_70
REMARK    9  A    between atoms: C_35  and  C_36
REMARK   10  A    between atoms: C_35  and  N_70
REMARK                            x       y       z     vdW  Elec       q    Type
REMARK                         _______ _______ _______ _____ _____    ______ ____
ROOT
ATOM      1  C   UNL     1       4.663   0.818  -1.307  0.00  0.00    +0.039 C 
ENDROOT
BRANCH   1  13
ATOM      2  C   UNL     1       3.854   0.436  -7.819  0.00  0.00    +0.046 C 
ATOM      3  C   UNL     1       4.311   1.570  -6.938  0.00  0.00    -0.026 A 
ATOM      4  C   UNL     1       4.641   2.788  -7.493  0.00  0.00    +0.005 A 
ATOM      5  C   UNL     1       5.063   3.840  -6.692  0.00  0.00    +0.001 A 
ATOM      6  C   UNL     1       5.158   3.688  -5.338  0.00  0.00    +0.010 A 
ATOM      7  C   UNL     1       4.828   2.462  -4.753  0.00  0.00    -0.001 A 
ATOM      8  C   UNL     1       4.399   1.392  -5.561  0.00  0.00    +0.052 A 
ATOM      9  N   UNL     1       4.074   0.185  -4.979  0.00  0.00    -0.322 N 
ATOM     10  H   UNL     1       3.779  -0.551  -5.538  0.00  0.00    +0.169 HD
ATOM     11  C   UNL     1       4.159   0.014  -3.649  0.00  0.00    +0.251 A 
ATOM     12  O   UNL     1       3.864  -1.067  -3.168  0.00  0.00    -0.268 OA
ATOM     13  C   UNL     1       4.583   1.054  -2.794  0.00  0.00    +0.011 A 
ATOM     14  C   UNL     1       4.912   2.266  -3.304  0.00  0.00    +0.017 A 
ENDBRANCH   1  13
BRANCH   1  15
ATOM     15  C   UNL     1       5.767  -0.165  -1.014  0.00  0.00    +0.143 A 
ATOM     16  N   UNL     1       5.663  -1.472  -0.984  0.00  0.00    -0.115 NA
ATOM     17  N   UNL     1       6.823  -1.956  -0.698  0.00  0.00    -0.023 NA
ATOM     18  N   UNL     1       7.663  -0.993  -0.546  0.00  0.00    -0.044 NA
ATOM     19  N   UNL     1       7.051   0.127  -0.738  0.00  0.00    -0.228 N 
BRANCH  19  20
ATOM     20  C   UNL     1       7.643   1.465  -0.665  0.00  0.00    +0.178 C 
BRANCH  20  21
ATOM     21  C   UNL     1       7.513   2.003   0.762  0.00  0.00    +0.140 C 
ATOM     22  C   UNL     1       8.196   3.384   0.865  0.00  0.00    +0.035 C 
ATOM     23  C   UNL     1       8.873   3.313   2.261  0.00  0.00    +0.031 C 
ATOM     24  C   UNL     1       9.255   1.812   2.327  0.00  0.00    +0.160 C 
ATOM     25  O   UNL     1       8.177   1.122   1.676  0.00  0.00    -0.375 OA
ENDBRANCH  20  21
ENDBRANCH  19  20
ENDBRANCH   1  15
BRANCH   1  26
ATOM     26  N   UNL     1       3.381   0.251  -0.838  0.00  0.00    +0.395 N 
ATOM     27  H   UNL     1       3.276  -0.696  -1.222  0.00  0.00    -0.079 HD
BRANCH  26  28
ATOM     28  C   UNL     1       3.373   0.174   0.638  0.00  0.00    -0.041 C 
BRANCH  28  29
ATOM     29  C   UNL     1       3.919  -1.169   1.051  0.00  0.00    -0.064 A 
ATOM     30  C   UNL     1       3.097  -2.280   1.048  0.00  0.00    +0.002 A 
ATOM     31  C   UNL     1       3.599  -3.512   1.422  0.00  0.00    +0.000 A 
ATOM     32  C   UNL     1       4.921  -3.631   1.810  0.00  0.00    +0.000 A 
ATOM     33  C   UNL     1       5.742  -2.519   1.817  0.00  0.00    +0.000 A 
ATOM     34  C   UNL     1       5.241  -1.288   1.438  0.00  0.00    +0.002 A 
ENDBRANCH  28  29
ENDBRANCH  26  28
BRANCH  26  35
ATOM     35  C   UNL     1       2.257   1.087  -1.307  0.00  0.00    -0.040 C 
BRANCH  35  36
ATOM     36  C   UNL     1       0.963   0.374  -1.008  0.00  0.00    -0.046 A 
ATOM     37  C   UNL     1       0.304   0.591   0.193  0.00  0.00    +0.005 A 
ATOM     38  C   UNL     1      -0.881  -0.090   0.427  0.00  0.00    +0.020 A 
ATOM     39  C   UNL     1      -1.367  -0.949  -0.541  0.00  0.00    +0.111 A 
ATOM     40  N   UNL     1      -0.713  -1.130  -1.671  0.00  0.00    -0.263 NA
ATOM     41  C   UNL     1       0.419  -0.503  -1.926  0.00  0.00    +0.112 A 
ENDBRANCH  35  36
ENDBRANCH  26  35
ENDBRANCH   1  26
TORSDOF 9
