REMARK  Name = ZINC57623050
REMARK  3 active torsions:
REMARK  status: ('A' for Active; 'I' for Inactive)
REMARK    1  A    between atoms: C_6  and  C_7
REMARK    2  A    between atoms: C_13  and  C_15
REMARK    3  A    between atoms: C_15  and  C_16
REMARK                            x       y       z     vdW  Elec       q    Type
REMARK                         _______ _______ _______ _____ _____    ______ ____
ROOT
ATOM      1  C   UNL     1      -1.271  -0.764   0.010  0.00  0.00    +0.080 A 
ATOM      2  C   UNL     1      -2.467  -0.108  -0.083  0.00  0.00    +0.076 A 
ATOM      3  S   UNL     1      -3.606  -1.486  -0.026  0.00  0.00    -0.060 S 
ATOM      4  C   UNL     1      -2.382  -2.781   0.116  0.00  0.00    +0.165 A 
ATOM      5  N   UNL     1      -1.260  -2.086   0.102  0.00  0.00    -0.225 NA
ATOM      6  N   UNL     1      -2.564  -4.155   0.210  0.00  0.00    -0.265 N 
ATOM      7  C   UNL     1      -3.808  -4.673   0.200  0.00  0.00    +0.219 C 
ATOM      8  O   UNL     1      -4.769  -3.939   0.110  0.00  0.00    -0.275 OA
ATOM      9  H   UNL     1      -1.795  -4.742   0.282  0.00  0.00    +0.157 HD
ENDROOT
BRANCH   1  15
ATOM     10  C   UNL     1      -0.017   1.390   0.010  0.00  0.00    +0.012 A 
ATOM     11  C   UNL     1       1.168   2.095   0.002  0.00  0.00    +0.024 A 
ATOM     12  C   UNL     1       2.381   1.417  -0.013  0.00  0.00    +0.037 A 
ATOM     13  C   UNL     1       2.402   0.027  -0.020  0.00  0.00    -0.025 A 
ATOM     14  C   UNL     1       1.220  -0.682  -0.013  0.00  0.00    +0.015 A 
ATOM     15  C   UNL     1       0.002  -0.004   0.002  0.00  0.00    +0.001 A 
ATOM     16  C   UNL     1       3.721  -0.703  -0.036  0.00  0.00    +0.046 C 
ATOM     17  C   UNL     1       4.739   0.100  -0.847  0.00  0.00    +0.101 C 
ATOM     18  C   UNL     1       4.728   1.538  -0.404  0.00  0.00    +0.218 C 
ATOM     19  O   UNL     1       5.764   2.169  -0.391  0.00  0.00    -0.275 OA
ATOM     20  N   UNL     1       3.583   2.132  -0.021  0.00  0.00    -0.285 N 
ATOM     21  H   UNL     1       3.591   3.063   0.251  0.00  0.00    +0.155 HD
ENDBRANCH   1  15
BRANCH   7  22
ATOM     22  C   UNL     1      -4.005  -6.164   0.302  0.00  0.00    +0.100 C 
BRANCH  22  23
ATOM     23  C   UNL     1      -5.501  -6.484   0.269  0.00  0.00    +0.001 C 
ATOM     24  C   UNL     1      -6.191  -5.970   1.553  0.00  0.00    +0.007 C 
ATOM     25  C   UNL     1      -6.769  -7.250   2.230  0.00  0.00    -0.010 C 
ATOM     26  C   UNL     1      -7.955  -7.676   1.312  0.00  0.00    +0.004 C 
ATOM     27  C   UNL     1      -7.283  -8.187   0.017  0.00  0.00    +0.004 C 
ATOM     28  C   UNL     1      -5.727  -8.027   0.288  0.00  0.00    -0.007 C 
ATOM     29  C   UNL     1      -5.676  -8.306   1.835  0.00  0.00    +0.007 C 
ENDBRANCH  22  23
ENDBRANCH   7  22
TORSDOF 3
