REMARK  Name = ZINC39670588
REMARK  9 active torsions:
REMARK  status: ('A' for Active; 'I' for Inactive)
REMARK    1  A    between atoms: C_1  and  C_2
REMARK    2  A    between atoms: C_7  and  C_11
REMARK    3  A    between atoms: C_11  and  N_12
REMARK    4  A    between atoms: C_13  and  C_15
REMARK    5  A    between atoms: C_26  and  C_28
REMARK    6  A    between atoms: C_28  and  C_29
REMARK    7  A    between atoms: C_29  and  C_30
REMARK    8  A    between atoms: C_33  and  O_36
REMARK    9  A    between atoms: O_36  and  C_37
REMARK                            x       y       z     vdW  Elec       q    Type
REMARK                         _______ _______ _______ _____ _____    ______ ____
ROOT
ATOM      1  C   UNL     1       3.158  -7.609   3.255  0.00  0.00    +0.100 C 
ATOM      2  C   UNL     1       3.726  -7.997   1.871  0.00  0.00    +0.121 C 
ATOM      3  N   UNL     1       4.570  -9.186   2.133  0.00  0.00    -0.300 N 
ATOM      4  C   UNL     1       3.806  -9.967   3.135  0.00  0.00    +0.115 C 
ATOM      5  C   UNL     1       3.211  -8.905   4.081  0.00  0.00    -0.004 C 
ATOM      6  C   UNL     1       4.112  -8.719   5.298  0.00  0.00    -0.010 C 
ATOM      7  C   UNL     1       4.104 -10.003   6.134  0.00  0.00    -0.082 C 
ATOM      8  N   UNL     1       2.732 -10.305   6.557  0.00  0.00    +0.379 N 
ATOM      9  C   UNL     1       1.893 -10.573   5.383  0.00  0.00    -0.082 C 
ATOM     10  C   UNL     1       1.807  -9.314   4.516  0.00  0.00    -0.010 C 
ATOM     11  C   UNL     1       5.763  -9.489   1.584  0.00  0.00    +0.216 C 
ATOM     12  O   UNL     1       6.336 -10.510   1.903  0.00  0.00    -0.276 OA
ATOM     13  H   UNL     1       2.737 -11.116   7.158  0.00  0.00    -0.086 HD
ATOM     14  H   UNL     1       2.357  -9.517   7.064  0.00  0.00    -0.086 HD
ENDROOT
BRANCH   1  16
ATOM     15  N   UNL     1       1.238  -6.241   4.005  0.00  0.00    -0.309 N 
ATOM     16  C   UNL     1       1.735  -7.130   3.123  0.00  0.00    +0.219 C 
ATOM     17  O   UNL     1       1.037  -7.545   2.221  0.00  0.00    -0.275 OA
ATOM     18  H   UNL     1       1.796  -5.910   4.726  0.00  0.00    +0.149 HD
BRANCH  15  19
ATOM     19  C   UNL     1      -0.145  -5.775   3.877  0.00  0.00    +0.159 C 
BRANCH  19  26
ATOM     20  C   UNL     1      -2.149  -2.073   9.951  0.00  0.00    +0.045 C 
ATOM     21  C   UNL     1      -1.595  -2.373   8.582  0.00  0.00    -0.034 A 
ATOM     22  C   UNL     1      -1.051  -1.337   7.805  0.00  0.00    +0.008 A 
ATOM     23  C   UNL     1      -0.552  -1.613   6.570  0.00  0.00    +0.045 A 
ATOM     24  C   UNL     1      -0.590  -2.937   6.089  0.00  0.00    +0.115 A 
ATOM     25  N   UNL     1      -0.187  -3.485   4.952  0.00  0.00    -0.342 N 
ATOM     26  C   UNL     1      -0.449  -4.794   4.979  0.00  0.00    +0.051 A 
ATOM     27  C   UNL     1      -1.033  -5.092   6.160  0.00  0.00    +0.115 A 
ATOM     28  N   UNL     1      -1.127  -3.926   6.871  0.00  0.00    -0.308 N 
ATOM     29  C   UNL     1      -1.620  -3.638   8.110  0.00  0.00    +0.096 A 
ATOM     30  H   UNL     1       0.232  -3.011   4.216  0.00  0.00    +0.167 HD
ENDBRANCH  19  26
ENDBRANCH  15  19
ENDBRANCH   1  16
BRANCH  11  31
ATOM     31  C   UNL     1       6.386  -8.560   0.574  0.00  0.00    +0.100 C 
BRANCH  31  32
ATOM     32  C   UNL     1       7.727  -9.134   0.112  0.00  0.00    +0.044 C 
BRANCH  32  33
ATOM     33  C   UNL     1       8.349  -8.205  -0.898  0.00  0.00    -0.047 A 
ATOM     34  C   UNL     1       8.074  -8.364  -2.244  0.00  0.00    +0.007 A 
ATOM     35  C   UNL     1       8.643  -7.514  -3.172  0.00  0.00    +0.046 A 
ATOM     36  C   UNL     1       9.492  -6.500  -2.753  0.00  0.00    +0.120 A 
ATOM     37  C   UNL     1       9.766  -6.342  -1.402  0.00  0.00    +0.046 A 
ATOM     38  C   UNL     1       9.190  -7.191  -0.478  0.00  0.00    +0.007 A 
BRANCH  36  39
ATOM     39  O   UNL     1      10.054  -5.663  -3.664  0.00  0.00    -0.495 OA
ATOM     40  C   UNL     1      10.918  -4.642  -3.161  0.00  0.00    +0.277 C 
ENDBRANCH  36  39
ENDBRANCH  32  33
ENDBRANCH  31  32
ENDBRANCH  11  31
TORSDOF 7
