REMARK  Name = ZINC20566589
REMARK  6 active torsions:
REMARK  status: ('A' for Active; 'I' for Inactive)
REMARK    1  A    between atoms: C_1  and  C_2
REMARK    2  A    between atoms: C_2  and  C_3
REMARK    3  A    between atoms: C_2  and  C_4
REMARK    4  A    between atoms: C_2  and  N_5
REMARK    5  A    between atoms: N_20  and  C_23
REMARK    6  A    between atoms: C_23  and  C_24
REMARK                            x       y       z     vdW  Elec       q    Type
REMARK                         _______ _______ _______ _____ _____    ______ ____
ROOT
ATOM      1  N   UNL     1      -1.195   1.844   0.013  0.00  0.00    -0.219 N 
ATOM      2  C   UNL     1      -0.014   1.209   0.025  0.00  0.00    +0.241 C 
ATOM      3  O   UNL     1       0.002  -0.003   0.040  0.00  0.00    -0.274 OA
ATOM      4  C   UNL     1       1.288   1.956   0.013  0.00  0.00    +0.147 C 
ATOM      5  C   UNL     1       2.104   1.587   1.256  0.00  0.00    +0.064 C 
ATOM      6  C   UNL     1       3.525   2.063   1.092  0.00  0.00    -0.025 A 
ATOM      7  C   UNL     1       4.330   2.118   2.219  0.00  0.00    +0.005 A 
ATOM      8  C   UNL     1       5.643   2.532   2.123  0.00  0.00    +0.000 A 
ATOM      9  C   UNL     1       6.163   2.895   0.894  0.00  0.00    +0.002 A 
ATOM     10  C   UNL     1       5.369   2.846  -0.231  0.00  0.00    +0.023 A 
ATOM     11  C   UNL     1       4.039   2.431  -0.140  0.00  0.00    +0.033 A 
ATOM     12  N   UNL     1       3.283   2.410  -1.308  0.00  0.00    -0.323 N 
ATOM     13  C   UNL     1       2.102   1.550  -1.220  0.00  0.00    +0.112 C 
ATOM     14  C   UNL     1       1.248   1.715  -2.479  0.00  0.00    +0.108 C 
ATOM     15  N   UNL     1       2.059   1.376  -3.659  0.00  0.00    -0.295 NA
ATOM     16  C   UNL     1       3.244   2.239  -3.750  0.00  0.00    +0.103 C 
ATOM     17  C   UNL     1       4.094   2.077  -2.486  0.00  0.00    +0.121 C 
ATOM     18  C   UNL     1       1.050   3.439  -0.009  0.00  0.00    +0.238 C 
ATOM     19  O   UNL     1       2.003   4.189  -0.024  0.00  0.00    -0.274 OA
ATOM     20  N   UNL     1      -0.186   3.958  -0.013  0.00  0.00    -0.239 N 
ATOM     21  C   UNL     1      -1.281   3.183   0.002  0.00  0.00    +0.315 C 
ATOM     22  O   UNL     1      -2.377   3.706  -0.001  0.00  0.00    -0.252 OA
ATOM     23  H   UNL     1      -0.325   5.049  -0.028  0.00  0.00    +0.159 HD
ENDROOT
BRANCH   1  25
ATOM     24  C   UNL     1      -2.402   0.078   1.200  0.00  0.00    +0.032 C 
ATOM     25  C   UNL     1      -2.428   1.052   0.021  0.00  0.00    +0.038 C 
ATOM     26  C   UNL     1      -3.632   1.986   0.157  0.00  0.00    +0.032 C 
ATOM     27  C   UNL     1      -2.537   0.267  -1.288  0.00  0.00    +0.032 C 
ENDBRANCH   1  25
BRANCH  15  28
ATOM     28  C   UNL     1       1.257   1.451  -4.887  0.00  0.00    +0.119 C 
BRANCH  28  29
ATOM     29  C   UNL     1       2.040   0.866  -6.034  0.00  0.00    -0.033 A 
ATOM     30  C   UNL     1       2.856   1.678  -6.799  0.00  0.00    +0.005 A 
ATOM     31  C   UNL     1       3.578   1.141  -7.849  0.00  0.00    +0.000 A 
ATOM     32  C   UNL     1       3.476  -0.207  -8.139  0.00  0.00    +0.000 A 
ATOM     33  C   UNL     1       2.656  -1.018  -7.377  0.00  0.00    +0.000 A 
ATOM     34  C   UNL     1       1.938  -0.482  -6.325  0.00  0.00    +0.005 A 
ENDBRANCH  28  29
ENDBRANCH  15  28
TORSDOF 3
