REMARK  Name = ZINC33613022
REMARK  14 active torsions:
REMARK  status: ('A' for Active; 'I' for Inactive)
REMARK    1  A    between atoms: C_1  and  C_2
REMARK    2  A    between atoms: C_2  and  C_3
REMARK    3  A    between atoms: C_3  and  C_4
REMARK    4  A    between atoms: C_4  and  C_5
REMARK    5  A    between atoms: C_5  and  C_7
REMARK    6  A    between atoms: C_5  and  N_36
REMARK    7  A    between atoms: C_9  and  C_12
REMARK    8  A    between atoms: N_14  and  C_15
REMARK    9  A    between atoms: C_15  and  C_16
REMARK   10  A    between atoms: C_16  and  C_35
REMARK   11  A    between atoms: C_20  and  C_34
REMARK   12  A    between atoms: C_29  and  C_31
REMARK   13  A    between atoms: C_31  and  C_32
REMARK   14  A    between atoms: C_31  and  C_33
REMARK                            x       y       z     vdW  Elec       q    Type
REMARK                         _______ _______ _______ _____ _____    ______ ____
ROOT
ATOM      1  C   UNL     1       5.995  -0.428   0.355  0.00  0.00    +0.111 C 
ENDROOT
BRANCH   1   2
ATOM      2  C   UNL     1       6.482  -1.878   0.320  0.00  0.00    -0.013 C 
ATOM      3  C   UNL     1       5.622  -2.679  -0.659  0.00  0.00    +0.008 C 
ATOM      4  C   UNL     1       5.758  -2.070  -2.057  0.00  0.00    +0.001 C 
ATOM      5  C   UNL     1       7.219  -2.155  -2.501  0.00  0.00    +0.011 C 
ATOM      6  C   UNL     1       8.105  -1.366  -1.532  0.00  0.00    -0.003 C 
ATOM      7  C   UNL     1       7.941  -1.911  -0.116  0.00  0.00    +0.007 C 
ATOM      8  C   UNL     1       8.486  -3.340  -0.076  0.00  0.00    +0.009 C 
ATOM      9  C   UNL     1      10.007  -3.276  -0.210  0.00  0.00    +0.036 C 
ATOM     10  C   UNL     1      10.406  -2.403  -1.370  0.00  0.00    -0.043 A 
ATOM     11  C   UNL     1       9.542  -1.516  -1.971  0.00  0.00    -0.038 A 
ATOM     12  C   UNL     1       9.979  -0.731  -3.029  0.00  0.00    +0.005 A 
ATOM     13  C   UNL     1      11.276  -0.839  -3.490  0.00  0.00    +0.004 A 
ATOM     14  C   UNL     1      12.143  -1.734  -2.894  0.00  0.00    -0.045 A 
ATOM     15  C   UNL     1      11.710  -2.511  -1.839  0.00  0.00    +0.007 A 
ATOM     16  C   UNL     1       7.713   0.113  -1.559  0.00  0.00    +0.016 C 
ATOM     17  C   UNL     1       6.358  -2.489   1.718  0.00  0.00    +0.013 C 
BRANCH  14  18
ATOM     18  C   UNL     1      13.559  -1.862  -3.394  0.00  0.00    +0.013 C 
ATOM     19  C   UNL     1      13.544  -2.287  -4.864  0.00  0.00    +0.012 C 
ATOM     20  C   UNL     1      14.270  -0.514  -3.260  0.00  0.00    +0.012 C 
ENDBRANCH  14  18
ENDBRANCH   1   2
BRANCH   1  23
ATOM     21  C   UNL     1       4.016   0.803   1.066  0.00  0.00    +0.266 C 
ATOM     22  O   UNL     1       4.560   1.829   0.703  0.00  0.00    -0.268 OA
ATOM     23  N   UNL     1       4.651  -0.379   0.935  0.00  0.00    -0.309 N 
ATOM     24  H   UNL     1       4.159  -1.306   1.263  0.00  0.00    +0.149 HD
BRANCH  21  27
ATOM     25  C   UNL     1       0.797   0.234   2.539  0.00  0.00    +0.182 A 
ATOM     26  N   UNL     1       1.937  -0.206   2.097  0.00  0.00    -0.210 NA
ATOM     27  C   UNL     1       2.664   0.853   1.649  0.00  0.00    +0.163 A 
ATOM     28  C   UNL     1       1.907   1.968   1.842  0.00  0.00    +0.230 A 
ATOM     29  O   UNL     1       0.752   1.566   2.396  0.00  0.00    -0.449 OA
BRANCH  25  30
ATOM     30  C   UNL     1      -0.301  -0.619   3.122  0.00  0.00    +0.013 C 
BRANCH  30  31
ATOM     31  N   UNL     1      -1.593  -0.205   2.559  0.00  0.00    +0.386 N 
ATOM     32  H   UNL     1      -1.573  -0.329   1.466  0.00  0.00    -0.089 HD
ATOM     33  H   UNL     1      -1.779   0.851   2.805  0.00  0.00    -0.089 HD
ATOM     34  H   UNL     1      -2.394  -0.827   2.984  0.00  0.00    -0.089 HD
ENDBRANCH  30  31
BRANCH  30  35
ATOM     35  C   UNL     1      -0.328  -0.447   4.642  0.00  0.00    -0.007 C 
BRANCH  35  36
ATOM     36  C   UNL     1      -1.357  -1.405   5.245  0.00  0.00    -0.001 C 
BRANCH  36  38
ATOM     37  C   UNL     1      -2.414  -2.190   7.369  0.00  0.00    +0.004 C 
ATOM     38  C   UNL     1      -1.385  -1.232   6.765  0.00  0.00    -0.003 C 
ENDBRANCH  36  38
ENDBRANCH  35  36
ENDBRANCH  30  35
ENDBRANCH  25  30
ENDBRANCH  21  27
ENDBRANCH   1  23
TORSDOF 9
