REMARK  Name = ZINC13495932
REMARK  14 active torsions:
REMARK  status: ('A' for Active; 'I' for Inactive)
REMARK    1  A    between atoms: C_1  and  C_2
REMARK    2  A    between atoms: C_2  and  C_3
REMARK    3  A    between atoms: C_3  and  C_5
REMARK    4  A    between atoms: C_3  and  N_75
REMARK    5  A    between atoms: N_9  and  C_10
REMARK    6  A    between atoms: C_10  and  C_11
REMARK    7  A    between atoms: C_11  and  C_12
REMARK    8  A    between atoms: C_18  and  C_19
REMARK    9  A    between atoms: C_18  and  N_75
REMARK   10  A    between atoms: C_19  and  C_20
REMARK   11  A    between atoms: C_24  and  C_26
REMARK   12  A    between atoms: C_27  and  C_28
REMARK   13  A    between atoms: C_27  and  N_75
REMARK   14  A    between atoms: C_34  and  C_40
REMARK                            x       y       z     vdW  Elec       q    Type
REMARK                         _______ _______ _______ _____ _____    ______ ____
ROOT
ATOM      1  N   UNL     1      -0.089   7.515  -1.634  0.00  0.00    +0.389 N 
ATOM      2  H   UNL     1       0.670   8.010  -1.151  0.00  0.00    -0.080 HD
ENDROOT
BRANCH   1   3
ATOM      3  C   UNL     1      -0.077   7.894  -3.062  0.00  0.00    +0.003 C 
BRANCH   3   4
ATOM      4  C   UNL     1      -1.278   7.322  -3.770  0.00  0.00    +0.138 A 
ATOM      5  N   UNL     1      -2.512   7.303  -3.328  0.00  0.00    -0.115 NA
ATOM      6  N   UNL     1      -3.246   6.733  -4.220  0.00  0.00    -0.023 NA
ATOM      7  N   UNL     1      -2.512   6.381  -5.217  0.00  0.00    -0.044 NA
ATOM      8  N   UNL     1      -1.292   6.727  -4.977  0.00  0.00    -0.231 N 
BRANCH   8   9
ATOM      9  C   UNL     1      -0.138   6.512  -5.855  0.00  0.00    +0.152 C 
BRANCH   9  10
ATOM     10  C   UNL     1       0.424   5.109  -5.623  0.00  0.00    +0.058 C 
BRANCH  10  11
ATOM     11  C   UNL     1       1.677   4.928  -6.441  0.00  0.00    -0.046 A 
ATOM     12  C   UNL     1       1.596   4.427  -7.727  0.00  0.00    +0.004 A 
ATOM     13  C   UNL     1       2.744   4.266  -8.480  0.00  0.00    +0.000 A 
ATOM     14  C   UNL     1       3.975   4.597  -7.943  0.00  0.00    +0.000 A 
ATOM     15  C   UNL     1       4.056   5.093  -6.655  0.00  0.00    +0.000 A 
ATOM     16  C   UNL     1       2.907   5.259  -5.904  0.00  0.00    +0.004 A 
ENDBRANCH  10  11
ENDBRANCH   9  10
ENDBRANCH   8   9
ENDBRANCH   3   4
BRANCH   3  18
ATOM     17  C   UNL     1       1.187   9.993  -2.573  0.00  0.00    +0.002 C 
ATOM     18  C   UNL     1      -0.101   9.420  -3.169  0.00  0.00    -0.011 C 
ENDBRANCH   3  18
ENDBRANCH   1   3
BRANCH   1  19
ATOM     19  C   UNL     1       0.124   6.059  -1.496  0.00  0.00    -0.073 C 
BRANCH  19  20
ATOM     20  C   UNL     1       1.598   5.750  -1.768  0.00  0.00    +0.016 C 
BRANCH  20  21
ATOM     21  C   UNL     1       1.868   4.296  -1.480  0.00  0.00    -0.049 A 
ATOM     22  C   UNL     1       1.660   3.346  -2.463  0.00  0.00    +0.003 A 
ATOM     23  C   UNL     1       1.907   2.012  -2.199  0.00  0.00    +0.001 A 
ATOM     24  C   UNL     1       2.363   1.628  -0.951  0.00  0.00    +0.003 A 
ATOM     25  C   UNL     1       2.566   2.577   0.033  0.00  0.00    -0.050 A 
ATOM     26  C   UNL     1       2.324   3.912  -0.233  0.00  0.00    +0.007 A 
ATOM     27  C   UNL     1       3.057   2.157   1.395  0.00  0.00    +0.044 C 
ENDBRANCH  20  21
ENDBRANCH  19  20
ENDBRANCH   1  19
BRANCH   1  28
ATOM     28  C   UNL     1      -1.378   7.897  -1.020  0.00  0.00    -0.037 C 
BRANCH  28  29
ATOM     29  C   UNL     1      -1.207   7.938   0.477  0.00  0.00    +0.001 A 
ATOM     30  C   UNL     1      -0.888   9.105   1.089  0.00  0.00    +0.017 A 
ATOM     31  C   UNL     1      -0.734   9.111   2.545  0.00  0.00    -0.001 A 
ATOM     32  C   UNL     1      -0.411  10.286   3.233  0.00  0.00    +0.010 A 
ATOM     33  C   UNL     1      -0.270  10.257   4.591  0.00  0.00    +0.001 A 
ATOM     34  C   UNL     1      -0.443   9.073   5.295  0.00  0.00    +0.005 A 
ATOM     35  C   UNL     1      -0.760   7.904   4.638  0.00  0.00    -0.026 A 
ATOM     36  C   UNL     1      -0.910   7.909   3.255  0.00  0.00    +0.052 A 
ATOM     37  N   UNL     1      -1.228   6.754   2.572  0.00  0.00    -0.322 N 
ATOM     38  H   UNL     1      -1.349   5.926   3.063  0.00  0.00    +0.169 HD
ATOM     39  C   UNL     1      -1.373   6.759   1.235  0.00  0.00    +0.251 A 
ATOM     40  O   UNL     1      -1.655   5.720   0.664  0.00  0.00    -0.268 OA
ATOM     41  C   UNL     1      -0.945   6.626   5.415  0.00  0.00    +0.046 C 
ENDBRANCH  28  29
ENDBRANCH   1  28
TORSDOF 11
