REMARK  Name = ZINC64417474
REMARK  7 active torsions:
REMARK  status: ('A' for Active; 'I' for Inactive)
REMARK    1  A    between atoms: N_9  and  C_14
REMARK    2  A    between atoms: C_10  and  O_13
REMARK    3  A    between atoms: C_14  and  C_15
REMARK    4  A    between atoms: C_15  and  C_16
REMARK    5  A    between atoms: N_18  and  C_19
REMARK    6  A    between atoms: C_19  and  C_20
REMARK    7  A    between atoms: C_20  and  C_21
REMARK                            x       y       z     vdW  Elec       q    Type
REMARK                         _______ _______ _______ _____ _____    ______ ____
ROOT
ATOM      1  C   UNL     1       2.324  -6.314  -1.501  0.00  0.00    +0.215 C 
ATOM      2  O   UNL     1       2.654  -6.844  -0.461  0.00  0.00    -0.276 OA
ATOM      3  N   UNL     1       2.052  -7.068  -2.584  0.00  0.00    -0.315 N 
ATOM      4  H   UNL     1       1.788  -6.645  -3.416  0.00  0.00    +0.149 HD
ENDROOT
BRANCH   1   5
ATOM      5  C   UNL     1       2.219  -4.813  -1.582  0.00  0.00    +0.115 C 
BRANCH   5   6
ATOM      6  C   UNL     1       2.578  -4.203  -0.226  0.00  0.00    +0.121 C 
BRANCH   6  15
ATOM      7  C   UNL     1      -0.017   1.375   0.010  0.00  0.00    +0.001 A 
ATOM      8  C   UNL     1       1.168   2.095   0.002  0.00  0.00    +0.002 A 
ATOM      9  C   UNL     1       2.386   1.444  -0.015  0.00  0.00    +0.024 A 
ATOM     10  C   UNL     1       2.422   0.060  -0.024  0.00  0.00    +0.042 A 
ATOM     11  C   UNL     1       1.223  -0.674  -0.013  0.00  0.00    +0.058 A 
ATOM     12  C   UNL     1       0.002  -0.004   0.002  0.00  0.00    +0.015 A 
ATOM     13  C   UNL     1       1.301  -2.146  -0.013  0.00  0.00    +0.251 C 
ATOM     14  O   UNL     1       0.318  -2.814   0.246  0.00  0.00    -0.270 OA
ATOM     15  N   UNL     1       2.475  -2.744  -0.304  0.00  0.00    -0.256 N 
ATOM     16  C   UNL     1       3.647  -1.961  -0.696  0.00  0.00    +0.299 C 
ATOM     17  N   UNL     1       3.620  -0.645  -0.047  0.00  0.00    -0.303 N 
ATOM     18  H   UNL     1       4.421  -0.275   0.357  0.00  0.00    +0.150 HD
BRANCH  16  19
ATOM     19  O   UNL     1       3.646  -1.786  -2.114  0.00  0.00    -0.359 OA
ATOM     20  H   UNL     1       4.397  -1.275  -2.448  0.00  0.00    +0.213 HD
ENDBRANCH  16  19
ENDBRANCH   6  15
ENDBRANCH   5   6
ENDBRANCH   1   5
BRANCH   3  21
ATOM     21  C   UNL     1       2.155  -8.527  -2.506  0.00  0.00    +0.108 C 
BRANCH  21  22
ATOM     22  C   UNL     1       1.796  -9.138  -3.862  0.00  0.00    +0.052 C 
BRANCH  22  23
ATOM     23  C   UNL     1       1.901 -10.639  -3.781  0.00  0.00    -0.040 C 
ATOM     24  C   UNL     1       0.899 -11.512  -3.535  0.00  0.00    +0.000 A 
ATOM     25  C   UNL     1      -0.535 -11.333  -3.277  0.00  0.00    +0.030 A 
ATOM     26  C   UNL     1      -1.304 -12.425  -3.058  0.00  0.00    +0.042 A 
ATOM     27  C   UNL     1      -0.766 -13.721  -3.072  0.00  0.00    +0.022 A 
ATOM     28  C   UNL     1       0.542 -13.964  -3.302  0.00  0.00    +0.027 A 
ATOM     29  C   UNL     1       1.442 -12.890  -3.544  0.00  0.00    +0.043 A 
ATOM     30  N   UNL     1       2.730 -12.868  -3.788  0.00  0.00    -0.380 N 
ATOM     31  C   UNL     1       3.149 -11.474  -3.966  0.00  0.00    +0.144 C 
ATOM     32 CL   UNL     1      -3.000 -12.218  -2.753  0.00  0.00    -0.084 Cl
ATOM     33  H   UNL     1       3.308 -13.645  -3.844  0.00  0.00    +0.160 HD
ENDBRANCH  22  23
ENDBRANCH  21  22
ENDBRANCH   3  21
TORSDOF 7
