REMARK  Name = ZINC47964408
REMARK  7 active torsions:
REMARK  status: ('A' for Active; 'I' for Inactive)
REMARK    1  A    between atoms: C_3  and  C_6
REMARK    2  A    between atoms: C_6  and  C_8
REMARK    3  A    between atoms: C_6  and  N_23
REMARK    4  A    between atoms: C_8  and  N_9
REMARK    5  A    between atoms: C_10  and  C_12
REMARK    6  A    between atoms: N_14  and  C_15
REMARK    7  A    between atoms: C_16  and  C_20
REMARK                            x       y       z     vdW  Elec       q    Type
REMARK                         _______ _______ _______ _____ _____    ______ ____
ROOT
ATOM      1  N   UNL     1       3.510   2.790  -2.274  0.00  0.00    -0.309 N 
ATOM      2  C   UNL     1       3.785   2.940  -3.585  0.00  0.00    +0.299 C 
ATOM      3  O   UNL     1       4.740   2.372  -4.074  0.00  0.00    -0.265 OA
ATOM      4  H   UNL     1       2.747   3.244  -1.883  0.00  0.00    +0.149 HD
ENDROOT
BRANCH   2   5
ATOM      5  C   UNL     1       2.915   3.805  -4.435  0.00  0.00    +0.304 C 
ATOM      6  O   UNL     1       1.960   4.373  -3.946  0.00  0.00    -0.265 OA
ATOM      7  N   UNL     1       3.189   3.955  -5.746  0.00  0.00    -0.272 N 
ATOM      8  H   UNL     1       3.953   3.502  -6.137  0.00  0.00    +0.156 HD
BRANCH   7   9
ATOM      9  C   UNL     1       2.383   4.757  -6.535  0.00  0.00    +0.084 A 
ATOM     10  C   UNL     1       2.508   5.022  -7.892  0.00  0.00    +0.065 A 
ATOM     11  C   UNL     1       1.521   5.902  -8.472  0.00  0.00    +0.022 A 
ATOM     12  C   UNL     1       0.583   6.370  -7.627  0.00  0.00    +0.048 A 
ATOM     13  S   UNL     1       1.024   5.627  -6.072  0.00  0.00    -0.081 S 
BRANCH  10  14
ATOM     14  C   UNL     1       3.588   4.438  -8.694  0.00  0.00    +0.244 C 
ATOM     15  O   UNL     1       4.404   3.701  -8.173  0.00  0.00    -0.270 OA
ATOM     16  N   UNL     1       3.677   4.719 -10.010  0.00  0.00    -0.325 N 
ATOM     17  H   UNL     1       3.027   5.307 -10.425  0.00  0.00    +0.145 HD
ATOM     18  H   UNL     1       4.391   4.333 -10.541  0.00  0.00    +0.145 HD
ENDBRANCH  10  14
ENDBRANCH   7   9
ENDBRANCH   2   5
BRANCH   1  19
ATOM     19  C   UNL     1       4.364   1.941  -1.439  0.00  0.00    +0.094 C 
BRANCH  19  20
ATOM     20  C   UNL     1       3.763   1.836  -0.036  0.00  0.00    -0.013 C 
BRANCH  20  21
ATOM     21  N   UNL     1       4.682   1.092   0.836  0.00  0.00    +0.386 N 
ATOM     22  C   UNL     1       5.966   1.827   0.972  0.00  0.00    -0.078 C 
ATOM     23  C   UNL     1       6.559   1.264   2.287  0.00  0.00    -0.020 C 
ATOM     24  C   UNL     1       5.311   1.085   3.181  0.00  0.00    -0.020 C 
ATOM     25  C   UNL     1       4.125   0.999   2.203  0.00  0.00    -0.078 C 
ATOM     26  H   UNL     1       4.846   0.169   0.463  0.00  0.00    -0.081 HD
ENDBRANCH  20  21
BRANCH  20  29
ATOM     27  C   UNL     1       0.112   0.758  -0.184  0.00  0.00    +0.008 A 
ATOM     28  C   UNL     1       1.188   1.623  -0.110  0.00  0.00    +0.009 A 
ATOM     29  C   UNL     1       2.443   1.111  -0.108  0.00  0.00    -0.022 A 
ATOM     30  S   UNL     1       2.127  -0.642  -0.215  0.00  0.00    -0.103 S 
ATOM     31  C   UNL     1       0.344  -0.575  -0.254  0.00  0.00    +0.045 A 
ENDBRANCH  20  29
ENDBRANCH  19  20
ENDBRANCH   1  19
TORSDOF 7
