REMARK  Name = ZINC02726700
REMARK  6 active torsions:
REMARK  status: ('A' for Active; 'I' for Inactive)
REMARK    1  A    between atoms: C_1  and  C_2
REMARK    2  A    between atoms: C_7  and  C_8
REMARK    3  A    between atoms: C_17  and  C_19
REMARK    4  A    between atoms: C_19  and  C_20
REMARK    5  A    between atoms: C_20  and  C_21
REMARK    6  A    between atoms: N_25  and  C_28
REMARK                            x       y       z     vdW  Elec       q    Type
REMARK                         _______ _______ _______ _____ _____    ______ ____
ROOT
ATOM      1  C   UNL     1       2.437   9.594   6.473  0.00  0.00    +0.044 C 
ATOM      2  C   UNL     1       2.599   8.834   5.182  0.00  0.00    -0.046 A 
ATOM      3  C   UNL     1       3.313   7.650   5.165  0.00  0.00    +0.004 A 
ATOM      4  C   UNL     1       3.462   6.953   3.979  0.00  0.00    +0.005 A 
ATOM      5  C   UNL     1       2.901   7.438   2.819  0.00  0.00    -0.027 A 
ATOM      6  C   UNL     1       2.179   8.628   2.824  0.00  0.00    +0.039 A 
ATOM      7  C   UNL     1       2.034   9.324   4.022  0.00  0.00    -0.026 A 
ATOM      8  C   UNL     1       1.257  10.615   4.052  0.00  0.00    +0.046 C 
ATOM      9  N   UNL     1       1.706   8.912   1.541  0.00  0.00    -0.286 N 
ATOM     10  C   UNL     1       2.069   7.972   0.647  0.00  0.00    +0.211 C 
ATOM     11  O   UNL     1       1.800   7.956  -0.536  0.00  0.00    -0.277 OA
ATOM     12  C   UNL     1       2.872   6.947   1.399  0.00  0.00    +0.050 C 
ATOM     13  C   UNL     1       4.287   6.811   0.823  0.00  0.00    +0.088 C 
ATOM     14  C   UNL     1       4.219   5.558  -0.096  0.00  0.00    +0.073 C 
ATOM     15  C   UNL     1       2.755   5.077   0.003  0.00  0.00    -0.057 C 
ATOM     16  C   UNL     1       4.465   6.147  -1.481  0.00  0.00    +0.224 C 
ATOM     17  O   UNL     1       4.501   5.511  -2.513  0.00  0.00    -0.275 OA
ATOM     18  N   UNL     1       4.640   7.469  -1.382  0.00  0.00    -0.239 N 
ATOM     19  C   UNL     1       4.559   7.948  -0.135  0.00  0.00    +0.225 C 
ATOM     20  O   UNL     1       4.685   9.113   0.177  0.00  0.00    -0.275 OA
ATOM     21  H   UNL     1       1.178   9.695   1.319  0.00  0.00    +0.155 HD
ATOM     22  N   UNL     1       2.286   5.623   1.278  0.00  0.00    +0.394 N 
ATOM     23  H   UNL     1       1.262   5.687   1.282  0.00  0.00    -0.083 HD
ATOM     24  H   UNL     1       2.594   5.027   2.055  0.00  0.00    -0.083 HD
ENDROOT
BRANCH  18  25
ATOM     25  C   UNL     1       4.899   8.323  -2.544  0.00  0.00    +0.084 C 
ATOM     26  C   UNL     1       3.698   8.234  -3.507  0.00  0.00    +0.023 C 
ATOM     27  C   UNL     1       3.712   9.446  -4.401  0.00  0.00    +0.002 C 
ATOM     28  C   UNL     1       4.434   9.183  -5.736  0.00  0.00    +0.000 C 
ATOM     29  C   UNL     1       5.726   8.361  -5.564  0.00  0.00    +0.000 C 
ATOM     30  C   UNL     1       6.529   8.793  -4.368  0.00  0.00    +0.002 C 
ATOM     31  C   UNL     1       6.143   7.902  -3.170  0.00  0.00    +0.023 C 
ENDBRANCH  18  25
BRANCH  15  32
ATOM     32  C   UNL     1       2.696   3.548  -0.005  0.00  0.00    -0.004 C 
BRANCH  32  33
ATOM     33  C   UNL     1       1.235   3.094   0.007  0.00  0.00    +0.123 C 
BRANCH  33  34
ATOM     34  C   UNL     1       1.177   1.588  -0.001  0.00  0.00    +0.356 C 
ATOM     35  O   UNL     1       2.199   0.944  -0.014  0.00  0.00    -0.246 OA
ATOM     36  O   UNL     1      -0.011   0.963   0.007  0.00  0.00    -0.246 OA
ENDBRANCH  33  34
ENDBRANCH  32  33
ENDBRANCH  15  32
TORSDOF 4
