REMARK  Name = ZINC13681731
REMARK  5 active torsions:
REMARK  status: ('A' for Active; 'I' for Inactive)
REMARK    1  A    between atoms: C_1  and  C_2
REMARK    2  A    between atoms: C_10  and  O_32
REMARK    3  A    between atoms: C_20  and  C_25
REMARK    4  A    between atoms: C_22  and  O_24
REMARK    5  A    between atoms: C_25  and  C_26
REMARK                            x       y       z     vdW  Elec       q    Type
REMARK                         _______ _______ _______ _____ _____    ______ ____
ROOT
ATOM      1  C   UNL     1      -6.041   1.716  -0.467  0.00  0.00    +0.014 C 
ATOM      2  C   UNL     1      -5.798   1.580   1.038  0.00  0.00    -0.003 C 
ATOM      3  C   UNL     1      -7.106   1.284   1.740  0.00  0.00    +0.010 C 
ATOM      4  C   UNL     1      -8.099   2.403   1.370  0.00  0.00    +0.009 C 
ATOM      5  C   UNL     1      -7.537   3.766   1.749  0.00  0.00    +0.023 C 
ATOM      6  C   UNL     1      -8.482   4.878   1.396  0.00  0.00    -0.041 A 
ATOM      7  C   UNL     1      -9.846   4.638   1.494  0.00  0.00    +0.008 A 
ATOM      8  C   UNL     1     -10.757   5.627   1.192  0.00  0.00    +0.046 A 
ATOM      9  C   UNL     1     -10.306   6.876   0.788  0.00  0.00    +0.117 A 
ATOM     10  C   UNL     1      -8.946   7.114   0.686  0.00  0.00    +0.049 A 
ATOM     11  C   UNL     1      -8.029   6.115   0.985  0.00  0.00    -0.040 A 
ATOM     12  C   UNL     1      -6.567   6.439   0.827  0.00  0.00    +0.036 C 
ATOM     13  C   UNL     1      -5.676   5.400   1.501  0.00  0.00    +0.009 C 
ATOM     14  C   UNL     1      -6.168   4.009   1.100  0.00  0.00    +0.000 C 
ATOM     15  C   UNL     1      -5.243   2.919   1.599  0.00  0.00    +0.001 C 
ATOM     16  C   UNL     1      -3.822   2.927   1.025  0.00  0.00    +0.011 C 
ATOM     17  C   UNL     1      -3.364   1.454   1.210  0.00  0.00    +0.024 C 
ATOM     18  C   UNL     1      -4.654   0.600   1.273  0.00  0.00    +0.124 C 
ENDROOT
BRANCH  18  19
ATOM     19  O   UNL     1      -4.639  -0.398   0.250  0.00  0.00    -0.391 OA
ATOM     20  H   UNL     1      -3.907  -1.026   0.324  0.00  0.00    +0.210 HD
ENDBRANCH  18  19
BRANCH   9  21
ATOM     21  O   UNL     1     -11.195   7.860   0.493  0.00  0.00    -0.507 OA
ATOM     22  H   UNL     1     -11.436   8.412   1.250  0.00  0.00    +0.292 HD
ENDBRANCH   9  21
BRANCH  17  23
ATOM     23  C   UNL     1      -2.503   1.019   0.021  0.00  0.00    +0.061 C 
BRANCH  23  24
ATOM     24  C   UNL     1      -1.215   1.800   0.021  0.00  0.00    +0.042 A 
ATOM     25  C   UNL     1      -0.008   1.127   0.012  0.00  0.00    +0.023 A 
ATOM     26  C   UNL     1       1.172   1.855   0.006  0.00  0.00    +0.003 A 
ATOM     27  C   UNL     1       1.093   3.240   0.016  0.00  0.00    +0.020 A 
ATOM     28  C   UNL     1      -0.150   3.843   0.030  0.00  0.00    +0.111 A 
ATOM     29  N   UNL     1      -1.252   3.118   0.035  0.00  0.00    -0.260 NA
ENDBRANCH  23  24
ENDBRANCH  17  23
TORSDOF 4
