REMARK  Name = ZINC31038817
REMARK  11 active torsions:
REMARK  status: ('A' for Active; 'I' for Inactive)
REMARK    1  A    between atoms: C_1  and  C_2
REMARK    2  A    between atoms: C_2  and  C_4
REMARK    3  A    between atoms: C_2  and  N_18
REMARK    4  A    between atoms: N_6  and  C_7
REMARK    5  A    between atoms: C_8  and  C_15
REMARK    6  A    between atoms: N_18  and  C_19
REMARK    7  A    between atoms: N_18  and  C_20
REMARK    8  A    between atoms: C_20  and  C_21
REMARK    9  A    between atoms: N_23  and  C_24
REMARK   10  A    between atoms: C_29  and  S_30
REMARK   11  A    between atoms: S_30  and  C_31
REMARK                            x       y       z     vdW  Elec       q    Type
REMARK                         _______ _______ _______ _____ _____    ______ ____
ROOT
ATOM      1  C   UNL     1       0.572   1.457   0.347  0.00  0.00    -0.004 C 
ATOM      2  C   UNL     1       0.271   0.059  -0.199  0.00  0.00    +0.017 C 
ENDROOT
BRANCH   2   3
ATOM      3  C   UNL     1       1.160  -0.220  -1.383  0.00  0.00    +0.204 C 
ATOM      4  O   UNL     1       2.213  -0.801  -1.227  0.00  0.00    -0.277 OA
ATOM      5  N   UNL     1       0.785   0.176  -2.615  0.00  0.00    -0.281 N 
ATOM      6  H   UNL     1      -0.057   0.641  -2.740  0.00  0.00    +0.155 HD
BRANCH   5   7
ATOM      7  C   UNL     1       1.604  -0.081  -3.705  0.00  0.00    +0.084 A 
ATOM      8  C   UNL     1       1.387   0.253  -5.029  0.00  0.00    +0.068 A 
ATOM      9  C   UNL     1       2.413  -0.134  -5.995  0.00  0.00    -0.023 A 
ATOM     10  C   UNL     1       3.459  -0.783  -5.453  0.00  0.00    -0.004 A 
ATOM     11  S   UNL     1       3.088  -0.862  -3.719  0.00  0.00    -0.077 S 
ATOM     12  C   UNL     1       4.483  -1.162  -6.489  0.00  0.00    +0.043 C 
ATOM     13  C   UNL     1       3.737  -1.039  -7.836  0.00  0.00    +0.010 C 
ATOM     14  C   UNL     1       2.644  -0.005  -7.499  0.00  0.00    +0.037 C 
BRANCH   8  15
ATOM     15  C   UNL     1       0.176   0.967  -5.447  0.00  0.00    +0.244 C 
ATOM     16  O   UNL     1       0.164   2.184  -5.469  0.00  0.00    -0.270 OA
ATOM     17  N   UNL     1      -0.923   0.275  -5.807  0.00  0.00    -0.325 N 
ATOM     18  H   UNL     1      -0.914  -0.695  -5.790  0.00  0.00    +0.145 HD
ATOM     19  H   UNL     1      -1.724   0.747  -6.084  0.00  0.00    +0.145 HD
ENDBRANCH   8  15
ENDBRANCH   5   7
ENDBRANCH   2   3
BRANCH   2  20
ATOM     20  N   UNL     1       0.522  -0.940   0.849  0.00  0.00    +0.391 N 
ATOM     21  C   UNL     1      -0.379  -0.697   1.983  0.00  0.00    -0.094 C 
ATOM     22  H   UNL     1       1.480  -0.868   1.159  0.00  0.00    -0.080 HD
BRANCH  20  23
ATOM     23  C   UNL     1       0.281  -2.285   0.310  0.00  0.00    +0.020 C 
BRANCH  23  24
ATOM     24  C   UNL     1       0.680  -3.315   1.335  0.00  0.00    +0.201 C 
ATOM     25  O   UNL     1       1.122  -2.963   2.409  0.00  0.00    -0.278 OA
ATOM     26  N   UNL     1       0.545  -4.628   1.059  0.00  0.00    -0.286 N 
ATOM     27  H   UNL     1       0.121  -4.908   0.233  0.00  0.00    +0.155 HD
BRANCH  26  28
ATOM     28  C   UNL     1       1.018  -5.586   1.965  0.00  0.00    +0.047 A 
ATOM     29  C   UNL     1       1.986  -5.244   2.898  0.00  0.00    +0.024 A 
ATOM     30  C   UNL     1       2.451  -6.191   3.791  0.00  0.00    +0.002 A 
ATOM     31  C   UNL     1       1.954  -7.481   3.758  0.00  0.00    +0.001 A 
ATOM     32  C   UNL     1       0.990  -7.832   2.833  0.00  0.00    +0.016 A 
ATOM     33  C   UNL     1       0.513  -6.886   1.936  0.00  0.00    +0.029 A 
BRANCH  33  34
ATOM     34  S   UNL     1      -0.722  -7.328   0.759  0.00  0.00    -0.127 S 
ATOM     35  C   UNL     1      -1.051  -9.078   1.104  0.00  0.00    +0.090 C 
ENDBRANCH  33  34
ENDBRANCH  26  28
ENDBRANCH  23  24
ENDBRANCH  20  23
ENDBRANCH   2  20
TORSDOF 8
