REMARK  Name = ZINC32320753
REMARK  6 active torsions:
REMARK  status: ('A' for Active; 'I' for Inactive)
REMARK    1  A    between atoms: C_3  and  C_6
REMARK    2  A    between atoms: C_9  and  S_17
REMARK    3  A    between atoms: N_10  and  C_11
REMARK    4  A    between atoms: S_17  and  C_18
REMARK    5  A    between atoms: C_18  and  C_19
REMARK    6  A    between atoms: C_19  and  C_21
REMARK                            x       y       z     vdW  Elec       q    Type
REMARK                         _______ _______ _______ _____ _____    ______ ____
ROOT
ATOM      1  S   UNL     1      -6.357  -1.255  -0.049  0.00  0.00    -0.078 S 
ENDROOT
BRANCH   1   5
ATOM      2  C   UNL     1      -9.758   0.672  -0.044  0.00  0.00    +0.201 A 
ATOM      3  N   UNL     1      -8.873   1.644  -0.026  0.00  0.00    -0.125 NA
ATOM      4  N   UNL     1      -7.685   1.156  -0.021  0.00  0.00    -0.122 NA
ATOM      5  C   UNL     1      -7.735  -0.157  -0.043  0.00  0.00    +0.193 A 
ATOM      6  N   UNL     1      -9.055  -0.513  -0.055  0.00  0.00    -0.297 N 
BRANCH   6   7
ATOM      7  C   UNL     1      -9.606  -1.870  -0.075  0.00  0.00    +0.091 C 
ATOM      8  C   UNL     1      -9.136  -2.630   1.168  0.00  0.00    +0.025 C 
ATOM      9  C   UNL     1      -9.712  -4.047   1.147  0.00  0.00    +0.002 C 
ATOM     10  C   UNL     1      -9.229  -4.775  -0.109  0.00  0.00    +0.000 C 
ATOM     11  C   UNL     1      -9.698  -4.016  -1.351  0.00  0.00    +0.002 C 
ATOM     12  C   UNL     1      -9.123  -2.598  -1.331  0.00  0.00    +0.025 C 
ENDBRANCH   6   7
BRANCH   2  15
ATOM     13  C   UNL     1     -13.280   1.647   0.116  0.00  0.00    +0.042 A 
ATOM     14  C   UNL     1     -11.912   1.957   0.247  0.00  0.00    +0.053 A 
ATOM     15  C   UNL     1     -11.222   0.820  -0.049  0.00  0.00    +0.172 A 
ATOM     16  O   UNL     1     -12.114  -0.143  -0.354  0.00  0.00    -0.460 OA
ATOM     17  C   UNL     1     -13.358   0.352  -0.250  0.00  0.00    +0.196 A 
ENDBRANCH   2  15
ENDBRANCH   1   5
BRANCH   1  18
ATOM     18  C   UNL     1      -5.000  -0.057  -0.026  0.00  0.00    +0.157 C 
BRANCH  18  19
ATOM     19  C   UNL     1      -3.683  -0.789  -0.028  0.00  0.00    +0.173 C 
ATOM     20  O   UNL     1      -3.664  -2.002  -0.042  0.00  0.00    -0.291 OA
BRANCH  19  21
ATOM     21  C   UNL     1      -2.424  -0.035  -0.011  0.00  0.00    +0.019 A 
ATOM     22  C   UNL     1      -2.435   1.366   0.006  0.00  0.00    +0.013 A 
ATOM     23  C   UNL     1      -1.259   2.044   0.017  0.00  0.00    +0.024 A 
ATOM     24  C   UNL     1      -0.017   1.378   0.010  0.00  0.00    +0.037 A 
ATOM     25  C   UNL     1       0.002  -0.004   0.002  0.00  0.00    -0.025 A 
ATOM     26  C   UNL     1      -1.200  -0.703  -0.012  0.00  0.00    +0.016 A 
ATOM     27  C   UNL     1       1.234  -0.850   0.011  0.00  0.00    +0.037 C 
ATOM     28  C   UNL     1       2.382  -0.318   0.812  0.00  0.00    +0.014 C 
ATOM     29  C   UNL     1       3.135   0.792   0.119  0.00  0.00    +0.096 C 
ATOM     30  C   UNL     1       2.366   2.065   0.116  0.00  0.00    +0.217 C 
ATOM     31  O   UNL     1       3.011   3.085   0.229  0.00  0.00    -0.275 OA
ATOM     32  N   UNL     1       1.076   2.204   0.004  0.00  0.00    -0.285 N 
ATOM     33  H   UNL     1       0.945   3.289  -0.122  0.00  0.00    +0.155 HD
ENDBRANCH  19  21
ENDBRANCH  18  19
ENDBRANCH   1  18
TORSDOF 6
