REMARK  Name = ZINC39608027
REMARK  9 active torsions:
REMARK  status: ('A' for Active; 'I' for Inactive)
REMARK    1  A    between atoms: C_1  and  C_2
REMARK    2  A    between atoms: C_3  and  C_14
REMARK    3  A    between atoms: C_4  and  C_7
REMARK    4  A    between atoms: C_18  and  C_27
REMARK    5  A    between atoms: N_29  and  C_30
REMARK    6  A    between atoms: C_30  and  C_32
REMARK    7  A    between atoms: C_30  and  C_33
REMARK    8  A    between atoms: C_33  and  C_34
REMARK    9  A    between atoms: C_33  and  C_35
REMARK                            x       y       z     vdW  Elec       q    Type
REMARK                         _______ _______ _______ _____ _____    ______ ____
ROOT
ATOM      1  C   UNL     1      -2.681  -0.339   0.214  0.00  0.00    +0.252 C 
ATOM      2  O   UNL     1      -3.421  -0.245  -0.747  0.00  0.00    -0.270 OA
ATOM      3  N   UNL     1      -3.142  -0.060   1.450  0.00  0.00    -0.296 N 
ATOM      4  C   UNL     1      -2.377  -0.029   2.719  0.00  0.00    +0.121 C 
ATOM      5  C   UNL     1      -2.951   1.181   3.490  0.00  0.00    +0.100 C 
ATOM      6  C   UNL     1      -4.363   1.380   2.914  0.00  0.00    -0.004 C 
ATOM      7  C   UNL     1      -4.527   0.291   1.845  0.00  0.00    +0.115 C 
ATOM      8  C   UNL     1      -4.483   2.760   2.275  0.00  0.00    -0.010 C 
ATOM      9  C   UNL     1      -5.912   2.957   1.760  0.00  0.00    -0.082 C 
ATOM     10  N   UNL     1      -6.857   2.828   2.875  0.00  0.00    +0.379 N 
ATOM     11  C   UNL     1      -6.801   1.468   3.425  0.00  0.00    -0.082 C 
ATOM     12  C   UNL     1      -5.410   1.209   4.010  0.00  0.00    -0.010 C 
ATOM     13  H   UNL     1      -6.617   3.491   3.597  0.00  0.00    -0.086 HD
ATOM     14  H   UNL     1      -7.792   3.018   2.546  0.00  0.00    -0.086 HD
ENDROOT
BRANCH   1  17
ATOM     15  C   UNL     1      -0.294   1.535  -0.537  0.00  0.00    +0.090 C 
ATOM     16  C   UNL     1      -0.229   0.048  -0.299  0.00  0.00    +0.147 A 
ATOM     17  C   UNL     1      -1.281  -0.756   0.028  0.00  0.00    +0.106 A 
ATOM     18  C   UNL     1      -0.747  -2.120   0.159  0.00  0.00    +0.127 A 
ATOM     19  N   UNL     1       0.537  -2.052  -0.088  0.00  0.00    -0.077 NA
ATOM     20  O   UNL     1       0.869  -0.709  -0.379  0.00  0.00    -0.359 OA
BRANCH  18  21
ATOM     21  C   UNL     1      -1.516  -3.340   0.503  0.00  0.00    +0.023 A 
ATOM     22  C   UNL     1      -2.889  -3.260   0.735  0.00  0.00    +0.011 A 
ATOM     23  C   UNL     1      -3.599  -4.398   1.056  0.00  0.00    +0.001 A 
ATOM     24  C   UNL     1      -2.954  -5.618   1.148  0.00  0.00    +0.001 A 
ATOM     25  C   UNL     1      -1.593  -5.705   0.920  0.00  0.00    +0.020 A 
ATOM     26  C   UNL     1      -0.871  -4.573   0.592  0.00  0.00    +0.050 A 
ATOM     27 CL   UNL     1       0.837  -4.685   0.299  0.00  0.00    -0.083 Cl
ENDBRANCH  18  21
ENDBRANCH   1  17
BRANCH   5  28
ATOM     28  C   UNL     1      -2.106   2.406   3.249  0.00  0.00    +0.218 C 
ATOM     29  O   UNL     1      -1.455   2.502   2.230  0.00  0.00    -0.275 OA
ATOM     30  N   UNL     1      -2.074   3.393   4.165  0.00  0.00    -0.312 N 
ATOM     31  H   UNL     1      -2.536   3.285   5.011  0.00  0.00    +0.149 HD
BRANCH  30  32
ATOM     32  C   UNL     1      -1.342   4.631   3.883  0.00  0.00    +0.072 C 
ATOM     33  C   UNL     1       0.141   4.430   4.203  0.00  0.00    +0.028 C 
BRANCH  32  34
ATOM     34  C   UNL     1      -1.901   5.763   4.747  0.00  0.00    +0.003 C 
ATOM     35  C   UNL     1      -1.631   5.459   6.223  0.00  0.00    +0.009 C 
ATOM     36  C   UNL     1      -1.223   7.079   4.365  0.00  0.00    +0.009 C 
ENDBRANCH  32  34
ENDBRANCH  30  32
ENDBRANCH   5  28
TORSDOF 5
