REMARK  Name = ZINC64002196
REMARK  8 active torsions:
REMARK  status: ('A' for Active; 'I' for Inactive)
REMARK    1  A    between atoms: C_1  and  C_2
REMARK    2  A    between atoms: C_2  and  C_3
REMARK    3  A    between atoms: C_2  and  C_4
REMARK    4  A    between atoms: C_4  and  C_6
REMARK    5  A    between atoms: C_4  and  N_29
REMARK    6  A    between atoms: N_15  and  C_18
REMARK    7  A    between atoms: C_18  and  C_19
REMARK    8  A    between atoms: C_30  and  C_32
REMARK                            x       y       z     vdW  Elec       q    Type
REMARK                         _______ _______ _______ _____ _____    ______ ____
ROOT
ATOM      1  C   UNL     1      -2.139  -0.124   0.608  0.00  0.00    +0.220 C 
ATOM      2  N   UNL     1      -2.468   1.311   0.621  0.00  0.00    -0.170 NA
ATOM      3  N   UNL     1      -3.577   1.508   1.140  0.00  0.00    -0.172 NA
ATOM      4  C   UNL     1      -4.172   0.247   1.580  0.00  0.00    +0.200 C 
ATOM      5  N   UNL     1      -3.445  -0.797   0.784  0.00  0.00    -0.254 NA
ATOM      6  C   UNL     1      -3.377  -1.970   1.649  0.00  0.00    +0.104 C 
ATOM      7  C   UNL     1      -4.413  -2.998   1.211  0.00  0.00    +0.100 C 
ATOM      8  N   UNL     1      -5.554  -2.260   0.588  0.00  0.00    -0.299 NA
ATOM      9  C   UNL     1      -6.165  -1.297   1.501  0.00  0.00    +0.088 C 
ATOM     10  C   UNL     1      -5.646   0.138   1.252  0.00  0.00    +0.060 C 
ENDROOT
BRANCH   1  11
ATOM     11  C   UNL     1      -1.509  -0.518  -0.730  0.00  0.00    +0.117 C 
BRANCH  11  12
ATOM     12  N   UNL     1      -1.192  -1.948  -0.717  0.00  0.00    -0.305 N 
ATOM     13  C   UNL     1      -1.112  -2.631  -1.877  0.00  0.00    +0.247 C 
ATOM     14  O   UNL     1      -1.304  -2.059  -2.933  0.00  0.00    -0.270 OA
ATOM     15  H   UNL     1      -1.039  -2.404   0.125  0.00  0.00    +0.149 HD
BRANCH  13  16
ATOM     16  C   UNL     1      -0.793  -4.070  -1.865  0.00  0.00    +0.074 A 
ATOM     17  C   UNL     1      -0.661  -4.961  -3.027  0.00  0.00    +0.054 A 
ATOM     18  C   UNL     1      -0.364  -6.172  -2.531  0.00  0.00    +0.195 A 
ATOM     19  O   UNL     1      -0.305  -6.096  -1.192  0.00  0.00    -0.470 OA
ATOM     20  C   UNL     1      -0.552  -4.852  -0.773  0.00  0.00    +0.207 A 
ENDBRANCH  13  16
ENDBRANCH  11  12
BRANCH  11  22
ATOM     21  C   UNL     1       0.793  -0.078   0.135  0.00  0.00    +0.009 C 
ATOM     22  C   UNL     1      -0.226   0.287  -0.946  0.00  0.00    +0.007 C 
ATOM     23  C   UNL     1       0.353  -0.037  -2.324  0.00  0.00    +0.009 C 
ENDBRANCH  11  22
ENDBRANCH   1  11
BRANCH   8  24
ATOM     24  C   UNL     1      -6.558  -3.193   0.058  0.00  0.00    +0.113 C 
BRANCH  24  25
ATOM     25  C   UNL     1      -7.494  -2.447  -0.896  0.00  0.00    +0.117 C 
ATOM     26  C   UNL     1      -8.412  -3.424  -1.595  0.00  0.00    +0.008 C 
ATOM     27  C   UNL     1      -8.151  -3.304  -2.916  0.00  0.00    -0.004 A 
ATOM     28  C   UNL     1      -8.702  -3.970  -4.103  0.00  0.00    +0.010 A 
ATOM     29  C   UNL     1      -8.229  -3.632  -5.324  0.00  0.00    +0.001 A 
ATOM     30  C   UNL     1      -7.228  -2.663  -5.484  0.00  0.00    +0.002 A 
ATOM     31  C   UNL     1      -6.674  -2.008  -4.442  0.00  0.00    +0.026 A 
ATOM     32  C   UNL     1      -7.096  -2.285  -3.112  0.00  0.00    +0.043 A 
ATOM     33  N   UNL     1      -6.718  -1.793  -1.956  0.00  0.00    -0.377 N 
ATOM     34  H   UNL     1      -6.041  -1.111  -1.823  0.00  0.00    +0.160 HD
ENDBRANCH  24  25
ENDBRANCH   8  24
TORSDOF 6
