REMARK  Name = ZINC09742955
REMARK  9 active torsions:
REMARK  status: ('A' for Active; 'I' for Inactive)
REMARK    1  A    between atoms: C_1  and  C_2
REMARK    2  A    between atoms: C_2  and  O_3
REMARK    3  A    between atoms: O_3  and  C_4
REMARK    4  A    between atoms: C_4  and  C_6
REMARK    5  A    between atoms: C_7  and  N_36
REMARK    6  A    between atoms: C_11  and  C_35
REMARK    7  A    between atoms: N_24  and  C_27
REMARK    8  A    between atoms: C_27  and  C_28
REMARK    9  A    between atoms: C_32  and  C_34
REMARK                            x       y       z     vdW  Elec       q    Type
REMARK                         _______ _______ _______ _____ _____    ______ ____
ROOT
ATOM      1  C   UNL     1       4.048   6.358  -3.721  0.00  0.00    +0.117 C 
ATOM      2  C   UNL     1       4.115   6.904  -4.963  0.00  0.00    +0.196 C 
ATOM      3  O   UNL     1       3.321   6.489  -5.964  0.00  0.00    -0.441 OA
ATOM      4  C   UNL     1       2.197   5.792  -5.694  0.00  0.00    +0.142 A 
ATOM      5  C   UNL     1       1.183   5.687  -6.669  0.00  0.00    +0.067 A 
ATOM      6  C   UNL     1       0.060   4.988  -6.397  0.00  0.00    +0.019 A 
ATOM      7  N   UNL     1      -0.109   4.380  -5.193  0.00  0.00    -0.326 N 
ATOM      8  H   UNL     1      -0.924   3.883  -5.020  0.00  0.00    +0.169 HD
ATOM      9  C   UNL     1       0.835   4.458  -4.237  0.00  0.00    +0.257 A 
ATOM     10  O   UNL     1       0.663   3.905  -3.163  0.00  0.00    -0.267 OA
ATOM     11  C   UNL     1       2.017   5.173  -4.475  0.00  0.00    +0.083 A 
ATOM     12  C   UNL     1       3.073   5.260  -3.410  0.00  0.00    +0.144 C 
ATOM     13  C   UNL     1       3.775   3.948  -3.247  0.00  0.00    -0.002 A 
ATOM     14  C   UNL     1       4.538   3.206  -4.123  0.00  0.00    +0.007 A 
ATOM     15  C   UNL     1       5.067   2.012  -3.644  0.00  0.00    +0.000 A 
ATOM     16  C   UNL     1       4.827   1.587  -2.353  0.00  0.00    +0.002 A 
ATOM     17  C   UNL     1       4.058   2.326  -1.468  0.00  0.00    +0.024 A 
ATOM     18  C   UNL     1       3.529   3.531  -1.934  0.00  0.00    +0.041 A 
ATOM     19  N   UNL     1       2.739   4.457  -1.276  0.00  0.00    -0.265 N 
ATOM     20  C   UNL     1       2.427   5.507  -2.062  0.00  0.00    +0.240 C 
ATOM     21  O   UNL     1       1.756   6.468  -1.750  0.00  0.00    -0.274 OA
ATOM     22  C   UNL     1      -1.020   4.880  -7.442  0.00  0.00    +0.063 C 
ENDROOT
BRANCH   2  23
ATOM     23  N   UNL     1       5.019   7.904  -5.203  0.00  0.00    -0.329 N 
ATOM     24  H   UNL     1       5.660   8.153  -4.519  0.00  0.00    +0.145 HD
ATOM     25  H   UNL     1       5.018   8.364  -6.057  0.00  0.00    +0.145 HD
ENDBRANCH   2  23
BRANCH   1  26
ATOM     26  C   UNL     1       4.904   6.828  -2.713  0.00  0.00    +0.342 C 
ATOM     27  O   UNL     1       5.900   6.193  -2.414  0.00  0.00    -0.245 OA
BRANCH  26  28
ATOM     28  O   UNL     1       4.624   7.985  -2.074  0.00  0.00    -0.462 OA
BRANCH  28  30
ATOM     29  C   UNL     1       5.058   9.723  -0.453  0.00  0.00    +0.048 C 
ATOM     30  C   UNL     1       5.538   8.403  -1.059  0.00  0.00    +0.229 C 
ENDBRANCH  28  30
ENDBRANCH  26  28
ENDBRANCH   1  26
BRANCH  19  31
ATOM     31  C   UNL     1       2.297   4.315   0.114  0.00  0.00    +0.148 C 
BRANCH  31  32
ATOM     32  C   UNL     1       0.977   3.590   0.151  0.00  0.00    -0.029 A 
ATOM     33  C   UNL     1       0.948   2.211   0.244  0.00  0.00    +0.005 A 
ATOM     34  C   UNL     1      -0.263   1.546   0.279  0.00  0.00    +0.001 A 
ATOM     35  C   UNL     1      -1.446   2.259   0.213  0.00  0.00    +0.003 A 
ATOM     36  C   UNL     1      -1.417   3.638   0.124  0.00  0.00    -0.050 A 
ATOM     37  C   UNL     1      -0.206   4.303   0.091  0.00  0.00    +0.008 A 
ATOM     38  C   UNL     1      -2.706   4.416   0.058  0.00  0.00    +0.044 C 
ENDBRANCH  31  32
ENDBRANCH  19  31
TORSDOF 6
