REMARK  Name = ZINC35700706
REMARK  17 active torsions:
REMARK  status: ('A' for Active; 'I' for Inactive)
REMARK    1  A    between atoms: C_1  and  C_2
REMARK    2  A    between atoms: C_2  and  C_3
REMARK    3  A    between atoms: C_2  and  C_4
REMARK    4  A    between atoms: N_6  and  C_7
REMARK    5  A    between atoms: N_6  and  C_12
REMARK    6  A    between atoms: C_7  and  C_8
REMARK    7  A    between atoms: C_8  and  N_9
REMARK    8  A    between atoms: N_9  and  C_10
REMARK    9  A    between atoms: N_9  and  C_11
REMARK   10  A    between atoms: C_12  and  C_13
REMARK   11  A    between atoms: C_13  and  N_15
REMARK   12  A    between atoms: C_18  and  C_29
REMARK   13  A    between atoms: N_20  and  C_21
REMARK   14  A    between atoms: C_24  and  O_27
REMARK   15  A    between atoms: O_27  and  C_28
REMARK   16  A    between atoms: C_32  and  O_35
REMARK   17  A    between atoms: O_35  and  C_36
REMARK                            x       y       z     vdW  Elec       q    Type
REMARK                         _______ _______ _______ _____ _____    ______ ____
ROOT
ATOM      1  N   UNL     1      -0.896  -0.270  -4.227  0.00  0.00    -0.145 NA
ATOM      2  C   UNL     1      -0.405  -1.174  -5.075  0.00  0.00    +0.205 A 
ATOM      3  N   UNL     1      -0.303  -2.509  -4.846  0.00  0.00    -0.326 N 
ATOM      4  C   UNL     1       0.259  -3.093  -5.975  0.00  0.00    +0.066 A 
ATOM      5  C   UNL     1       0.492  -2.118  -6.871  0.00  0.00    +0.120 A 
ATOM      6  N   UNL     1       0.076  -0.922  -6.321  0.00  0.00    -0.287 N 
ATOM      7  H   UNL     1      -0.574  -2.973  -4.039  0.00  0.00    +0.169 HD
ENDROOT
BRANCH   6   8
ATOM      8  C   UNL     1       0.142   0.335  -6.939  0.00  0.00    +0.049 A 
ATOM      9  C   UNL     1      -0.304   1.464  -6.265  0.00  0.00    +0.030 A 
ATOM     10  C   UNL     1      -0.239   2.701  -6.874  0.00  0.00    +0.047 A 
ATOM     11  C   UNL     1       0.273   2.817  -8.158  0.00  0.00    +0.120 A 
ATOM     12  C   UNL     1       0.719   1.689  -8.832  0.00  0.00    +0.047 A 
ATOM     13  C   UNL     1       0.660   0.452  -8.222  0.00  0.00    +0.030 A 
BRANCH  11  14
ATOM     14  O   UNL     1       0.336   4.035  -8.757  0.00  0.00    -0.495 OA
ATOM     15  C   UNL     1       0.875   4.081 -10.080  0.00  0.00    +0.277 C 
ENDBRANCH  11  14
ENDBRANCH   6   8
BRANCH   4  16
ATOM     16  C   UNL     1       0.550  -4.532  -6.158  0.00  0.00    +0.000 A 
ATOM     17  C   UNL     1       1.125  -4.984  -7.347  0.00  0.00    +0.013 A 
ATOM     18  C   UNL     1       1.395  -6.326  -7.513  0.00  0.00    +0.046 A 
ATOM     19  C   UNL     1       1.096  -7.227  -6.500  0.00  0.00    +0.120 A 
ATOM     20  C   UNL     1       0.524  -6.781  -5.316  0.00  0.00    +0.046 A 
ATOM     21  C   UNL     1       0.256  -5.440  -5.140  0.00  0.00    +0.013 A 
BRANCH  19  22
ATOM     22  O   UNL     1       1.363  -8.549  -6.669  0.00  0.00    -0.495 OA
ATOM     23  C   UNL     1       1.029  -9.421  -5.587  0.00  0.00    +0.277 C 
ENDBRANCH  19  22
ENDBRANCH   4  16
BRANCH   1  24
ATOM     24  C   UNL     1      -1.336  -0.649  -3.033  0.00  0.00    +0.256 C 
ATOM     25  O   UNL     1      -1.291  -1.822  -2.713  0.00  0.00    -0.272 OA
BRANCH  24  26
ATOM     26  C   UNL     1      -1.892   0.373  -2.075  0.00  0.00    +0.205 C 
BRANCH  26  29
ATOM     27  C   UNL     1      -1.466  -0.343   0.215  0.00  0.00    +0.218 C 
ATOM     28  O   UNL     1      -1.780  -0.956   1.213  0.00  0.00    -0.275 OA
ATOM     29  N   UNL     1      -2.307  -0.293  -0.838  0.00  0.00    -0.294 N 
BRANCH  27  31
ATOM     30  C   UNL     1      -0.353   1.872   0.269  0.00  0.00    +0.017 C 
ATOM     31  C   UNL     1      -0.136   0.362   0.151  0.00  0.00    +0.069 C 
ATOM     32  C   UNL     1       0.751  -0.117   1.302  0.00  0.00    +0.017 C 
ENDBRANCH  27  31
BRANCH  29  33
ATOM     33  C   UNL     1      -3.635  -0.903  -0.744  0.00  0.00    +0.090 C 
BRANCH  33  34
ATOM     34  C   UNL     1      -4.636   0.130  -0.222  0.00  0.00    -0.060 C 
BRANCH  34  35
ATOM     35  N   UNL     1      -5.968  -0.483  -0.129  0.00  0.00    +0.377 N 
ATOM     36  C   UNL     1      -5.946  -1.548   0.882  0.00  0.00    -0.097 C 
ATOM     37  C   UNL     1      -6.950   0.539   0.257  0.00  0.00    -0.097 C 
ATOM     38  H   UNL     1      -6.222  -0.873  -1.024  0.00  0.00    -0.083 HD
ENDBRANCH  34  35
ENDBRANCH  33  34
ENDBRANCH  29  33
ENDBRANCH  26  29
ENDBRANCH  24  26
ENDBRANCH   1  24
TORSDOF 11
