REMARK  Name = ZINC16567775
REMARK  13 active torsions:
REMARK  status: ('A' for Active; 'I' for Inactive)
REMARK    1  A    between atoms: C_1  and  C_2
REMARK    2  A    between atoms: C_6  and  C_8
REMARK    3  A    between atoms: C_8  and  S_9
REMARK    4  A    between atoms: S_9  and  C_10
REMARK    5  A    between atoms: C_13  and  C_24
REMARK    6  A    between atoms: N_14  and  C_15
REMARK    7  A    between atoms: C_18  and  N_21
REMARK    8  A    between atoms: C_24  and  C_26
REMARK    9  A    between atoms: C_24  and  N_33
REMARK   10  A    between atoms: C_26  and  C_27
REMARK   11  A    between atoms: C_34  and  C_36
REMARK   12  A    between atoms: C_36  and  C_37
REMARK   13  A    between atoms: C_36  and  C_38
REMARK                            x       y       z     vdW  Elec       q    Type
REMARK                         _______ _______ _______ _____ _____    ______ ____
ROOT
ATOM      1  C   UNL     1      -0.116   7.695  -1.375  0.00  0.00    +0.196 A 
ATOM      2  N   UNL     1      -0.118   8.286  -0.203  0.00  0.00    -0.122 NA
ATOM      3  N   UNL     1      -0.132   9.562  -0.356  0.00  0.00    -0.131 NA
ATOM      4  C   UNL     1      -0.148   9.862  -1.624  0.00  0.00    +0.159 A 
ATOM      5  N   UNL     1      -0.138   8.683  -2.321  0.00  0.00    -0.273 N 
ENDROOT
BRANCH   5   6
ATOM      6  C   UNL     1      -0.150   8.522  -3.715  0.00  0.00    +0.050 A 
ATOM      7  C   UNL     1       0.923   8.967  -4.475  0.00  0.00    +0.028 A 
ATOM      8  C   UNL     1       0.911   8.803  -5.846  0.00  0.00    +0.035 A 
ATOM      9  C   UNL     1      -0.173   8.206  -6.463  0.00  0.00    +0.126 A 
ATOM     10  C   UNL     1      -1.246   7.767  -5.709  0.00  0.00    +0.035 A 
ATOM     11  C   UNL     1      -1.237   7.923  -4.336  0.00  0.00    +0.028 A 
BRANCH   9  12
ATOM     12  N   UNL     1      -0.186   8.037  -7.933  0.00  0.00    +0.056 N 
ATOM     13  O   UNL     1      -1.141   7.511  -8.478  0.00  0.00    -0.126 OA
ATOM     14  O   UNL     1       0.758   8.423  -8.599  0.00  0.00    -0.126 OA
ENDBRANCH   9  12
ENDBRANCH   5   6
BRANCH   1  15
ATOM     15  S   UNL     1      -0.095   5.958  -1.674  0.00  0.00    -0.081 S 
BRANCH  15  16
ATOM     16  C   UNL     1      -0.070   5.347   0.030  0.00  0.00    +0.112 C 
BRANCH  16  22
ATOM     17  C   UNL     1      -2.514   0.980   0.019  0.00  0.00    +0.044 C 
ATOM     18  C   UNL     1      -1.219   1.751   0.017  0.00  0.00    -0.050 A 
ATOM     19  C   UNL     1      -0.013   1.076   0.008  0.00  0.00    +0.003 A 
ATOM     20  C   UNL     1       1.175   1.783   0.000  0.00  0.00    +0.001 A 
ATOM     21  C   UNL     1       1.156   3.166   0.008  0.00  0.00    +0.004 A 
ATOM     22  C   UNL     1      -0.050   3.840   0.022  0.00  0.00    -0.037 A 
ATOM     23  C   UNL     1      -1.238   3.133   0.030  0.00  0.00    +0.007 A 
ENDBRANCH  16  22
ENDBRANCH  15  16
ENDBRANCH   1  15
BRANCH   4  24
ATOM     24  C   UNL     1      -0.172  11.248  -2.214  0.00  0.00    +0.146 C 
BRANCH  24  25
ATOM     25  N   UNL     1      -1.153  12.067  -1.497  0.00  0.00    -0.305 N 
ATOM     26  C   UNL     1      -1.016  12.278  -0.173  0.00  0.00    +0.216 C 
ATOM     27  O   UNL     1      -0.080  11.791   0.425  0.00  0.00    -0.276 OA
ATOM     28  H   UNL     1      -1.902  12.456  -1.975  0.00  0.00    +0.149 HD
BRANCH  26  29
ATOM     29  C   UNL     1      -2.025  13.120   0.565  0.00  0.00    +0.069 C 
ATOM     30  C   UNL     1      -3.411  12.486   0.434  0.00  0.00    +0.017 C 
ATOM     31  C   UNL     1      -1.639  13.201   2.043  0.00  0.00    +0.017 C 
ENDBRANCH  26  29
ENDBRANCH  24  25
BRANCH  24  32
ATOM     32  C   UNL     1       1.214  11.883  -2.083  0.00  0.00    +0.065 C 
BRANCH  32  33
ATOM     33  C   UNL     1       1.223  13.218  -2.780  0.00  0.00    -0.045 A 
ATOM     34  C   UNL     1       1.573  13.299  -4.115  0.00  0.00    +0.004 A 
ATOM     35  C   UNL     1       1.576  14.523  -4.757  0.00  0.00    +0.000 A 
ATOM     36  C   UNL     1       1.240  15.669  -4.060  0.00  0.00    +0.000 A 
ATOM     37  C   UNL     1       0.896  15.590  -2.724  0.00  0.00    +0.000 A 
ATOM     38  C   UNL     1       0.887  14.364  -2.084  0.00  0.00    +0.004 A 
ENDBRANCH  32  33
ENDBRANCH  24  32
ENDBRANCH   4  24
TORSDOF 10
