REMARK  Name = ZINC06525658
REMARK  4 active torsions:
REMARK  status: ('A' for Active; 'I' for Inactive)
REMARK    1  A    between atoms: C_1  and  C_2
REMARK    2  A    between atoms: C_8  and  C_11
REMARK    3  A    between atoms: N_13  and  C_14
REMARK    4  A    between atoms: C_14  and  C_15
REMARK                            x       y       z     vdW  Elec       q    Type
REMARK                         _______ _______ _______ _____ _____    ______ ____
ROOT
ATOM      1  C   UNL     1      -2.571  -2.688   0.012  0.00  0.00    +0.266 C 
ATOM      2  O   UNL     1      -3.632  -2.095   0.025  0.00  0.00    -0.268 OA
ATOM      3  N   UNL     1      -1.413  -1.998   0.005  0.00  0.00    -0.309 N 
ATOM      4  H   UNL     1      -0.567  -2.472  -0.006  0.00  0.00    +0.149 HD
ENDROOT
BRANCH   1  11
ATOM      5  C   UNL     1      -7.381  -5.823   0.206  0.00  0.00    +0.008 C 
ATOM      6  C   UNL     1      -5.880  -6.015   0.436  0.00  0.00    -0.009 C 
ATOM      7  C   UNL     1      -5.381  -7.190  -0.409  0.00  0.00    +0.011 C 
ATOM      8  C   UNL     1      -3.944  -7.545  -0.005  0.00  0.00    +0.078 C 
ATOM      9  C   UNL     1      -3.127  -6.281  -0.003  0.00  0.00    +0.141 A 
ATOM     10  C   UNL     1      -3.663  -5.038   0.010  0.00  0.00    +0.027 A 
ATOM     11  C   UNL     1      -2.551  -4.171   0.004  0.00  0.00    +0.171 A 
ATOM     12  N   UNL     1      -1.493  -4.951  -0.016  0.00  0.00    -0.073 NA
ATOM     13  O   UNL     1      -1.804  -6.125  -0.014  0.00  0.00    -0.359 OA
ATOM     14  C   UNL     1      -5.133  -4.737   0.029  0.00  0.00    +0.044 C 
ENDBRANCH   1  11
BRANCH   3  15
ATOM     15  C   UNL     1      -1.433  -0.534   0.013  0.00  0.00    +0.111 C 
BRANCH  15  16
ATOM     16  C   UNL     1       0.002  -0.004   0.002  0.00  0.00    -0.013 C 
ATOM     17  C   UNL     1      -0.019   1.526   0.010  0.00  0.00    +0.012 C 
ATOM     18  C   UNL     1       1.417   2.055  -0.000  0.00  0.00    -0.010 C 
ATOM     19  C   UNL     1       2.157   1.548   1.239  0.00  0.00    +0.007 C 
ATOM     20  C   UNL     1       2.178   0.019   1.231  0.00  0.00    -0.010 C 
ATOM     21  C   UNL     1       0.742  -0.511   1.242  0.00  0.00    +0.012 C 
ATOM     22  C   UNL     1       2.894  -0.475  -0.028  0.00  0.00    +0.007 C 
ATOM     23  C   UNL     1       2.154   0.032  -1.268  0.00  0.00    -0.010 C 
ATOM     24  C   UNL     1       2.133   1.562  -1.259  0.00  0.00    +0.007 C 
ATOM     25  C   UNL     1       0.718  -0.497  -1.257  0.00  0.00    +0.012 C 
ENDBRANCH  15  16
ENDBRANCH   3  15
TORSDOF 3
