REMARK  Name = ZINC40752132
REMARK  3 active torsions:
REMARK  status: ('A' for Active; 'I' for Inactive)
REMARK    1  A    between atoms: C_12  and  N_28
REMARK    2  A    between atoms: C_13  and  O_17
REMARK    3  A    between atoms: O_17  and  C_18
REMARK                            x       y       z     vdW  Elec       q    Type
REMARK                         _______ _______ _______ _____ _____    ______ ____
ROOT
ATOM      1  C   UNL     1      -1.010  -2.117  -1.864  0.00  0.00    +0.000 A 
ATOM      2  C   UNL     1      -1.188  -1.528  -0.626  0.00  0.00    +0.000 A 
ATOM      3  C   UNL     1      -0.096  -1.301   0.186  0.00  0.00    +0.005 A 
ATOM      4  C   UNL     1       1.179  -1.664  -0.228  0.00  0.00    -0.027 A 
ATOM      5  C   UNL     1       1.356  -2.260  -1.456  0.00  0.00    -0.041 A 
ATOM      6  C   UNL     1       0.255  -2.480  -2.276  0.00  0.00    +0.004 A 
ATOM      7  C   UNL     1       2.702  -2.709  -1.960  0.00  0.00    +0.054 C 
ATOM      8  C   UNL     1       3.828  -1.993  -1.215  0.00  0.00    +0.111 C 
ATOM      9  N   UNL     1       3.534  -2.063   0.226  0.00  0.00    -0.309 N 
ATOM     10  C   UNL     1       2.330  -1.375   0.702  0.00  0.00    +0.142 C 
ATOM     11  C   UNL     1       4.365  -2.754   1.099  0.00  0.00    +0.149 A 
ATOM     12  C   UNL     1       5.490  -2.133   1.650  0.00  0.00    +0.128 A 
ATOM     13  C   UNL     1       6.289  -2.871   2.521  0.00  0.00    +0.246 A 
ATOM     14  N   UNL     1       5.954  -4.129   2.793  0.00  0.00    -0.199 NA
ATOM     15  C   UNL     1       4.886  -4.678   2.253  0.00  0.00    +0.227 A 
ATOM     16  N   UNL     1       4.100  -4.015   1.429  0.00  0.00    -0.219 NA
ENDROOT
BRANCH  12  17
ATOM     17  N   UNL     1       5.806  -0.802   1.334  0.00  0.00    -0.351 N 
ATOM     18  H   UNL     1       5.201  -0.278   0.786  0.00  0.00    +0.143 HD
ATOM     19  H   UNL     1       6.628  -0.408   1.663  0.00  0.00    +0.143 HD
ENDBRANCH  12  17
BRANCH  13  20
ATOM     20  O   UNL     1       7.392  -2.315   3.082  0.00  0.00    -0.434 OA
BRANCH  20  21
ATOM     21  C   UNL     1       8.197  -3.112   3.832  0.00  0.00    +0.156 A 
ATOM     22  C   UNL     1       8.087  -3.113   5.203  0.00  0.00    +0.048 A 
ATOM     23  C   UNL     1       8.905  -3.925   5.984  0.00  0.00    +0.004 A 
ATOM     24  C   UNL     1       9.835  -4.739   5.412  0.00  0.00    +0.010 A 
ATOM     25  C   UNL     1       9.977  -4.766   4.016  0.00  0.00    +0.004 A 
ATOM     26  C   UNL     1       9.147  -3.949   3.209  0.00  0.00    +0.113 A 
ATOM     27  N   UNL     1       9.275  -3.976   1.880  0.00  0.00    -0.251 NA
ATOM     28  C   UNL     1      10.156  -4.751   1.296  0.00  0.00    +0.111 A 
ATOM     29  C   UNL     1      10.999  -5.584   2.029  0.00  0.00    +0.020 A 
ATOM     30  C   UNL     1      10.928  -5.596   3.393  0.00  0.00    +0.011 A 
ENDBRANCH  20  21
ENDBRANCH  13  20
TORSDOF 3
