REMARK  Name = ZINC45988659
REMARK  4 active torsions:
REMARK  status: ('A' for Active; 'I' for Inactive)
REMARK    1  A    between atoms: C_3  and  N_15
REMARK    2  A    between atoms: C_6  and  C_7
REMARK    3  A    between atoms: N_11  and  C_12
REMARK    4  A    between atoms: C_22  and  C_23
REMARK                            x       y       z     vdW  Elec       q    Type
REMARK                         _______ _______ _______ _____ _____    ______ ____
ROOT
ATOM      1  C   UNL     1       0.931  -0.750   0.376  0.00  0.00    +0.013 A 
ATOM      2  C   UNL     1       2.194  -0.229   0.197  0.00  0.00    +0.024 A 
ATOM      3  C   UNL     1       2.417   0.737  -0.777  0.00  0.00    +0.035 A 
ATOM      4  C   UNL     1       1.367   1.180  -1.574  0.00  0.00    +0.024 A 
ATOM      5  C   UNL     1       0.102   0.662  -1.399  0.00  0.00    +0.013 A 
ATOM      6  C   UNL     1      -0.125  -0.308  -0.422  0.00  0.00    +0.021 A 
ENDROOT
BRANCH   3   7
ATOM      7  N   UNL     1       3.699   1.264  -0.957  0.00  0.00    -0.269 N 
ATOM      8  C   UNL     1       4.779   0.471  -0.817  0.00  0.00    +0.307 C 
ATOM      9  O   UNL     1       4.646  -0.676  -0.437  0.00  0.00    -0.252 OA
ATOM     10  N   UNL     1       6.007   0.950  -1.098  0.00  0.00    -0.278 N 
ATOM     11  C   UNL     1       6.312   2.316  -1.559  0.00  0.00    +0.110 C 
ATOM     12  C   UNL     1       7.662   2.190  -2.308  0.00  0.00    +0.021 C 
ATOM     13  C   UNL     1       8.403   1.138  -1.440  0.00  0.00    +0.029 C 
ATOM     14  C   UNL     1       7.266   0.197  -0.990  0.00  0.00    +0.108 C 
ATOM     15  H   UNL     1       3.811   2.201  -1.182  0.00  0.00    +0.156 HD
BRANCH  14  16
ATOM     16  C   UNL     1       7.486  -0.231   0.438  0.00  0.00    -0.020 A 
ATOM     17  C   UNL     1       8.025  -1.471   0.724  0.00  0.00    +0.013 A 
ATOM     18  C   UNL     1       8.211  -1.824   2.019  0.00  0.00    +0.045 A 
ATOM     19  S   UNL     1       7.614  -0.382   2.885  0.00  0.00    -0.105 S 
ATOM     20  C   UNL     1       7.163   0.598   1.462  0.00  0.00    +0.050 A 
ENDBRANCH  14  16
ENDBRANCH   3   7
BRANCH   6  21
ATOM     21  C   UNL     1      -1.481  -0.866  -0.232  0.00  0.00    +0.182 A 
ATOM     22  N   UNL     1      -1.786  -1.992   0.379  0.00  0.00    -0.108 NA
ATOM     23  N   UNL     1      -3.057  -2.180   0.367  0.00  0.00    -0.023 NA
ATOM     24  N   UNL     1      -3.649  -1.210  -0.241  0.00  0.00    -0.043 NA
ATOM     25  N   UNL     1      -2.647  -0.312  -0.650  0.00  0.00    -0.222 N 
BRANCH  25  26
ATOM     26  C   UNL     1      -2.824   0.949  -1.375  0.00  0.00    +0.111 C 
ATOM     27  C   UNL     1      -4.255   1.391  -1.684  0.00  0.00    +0.029 C 
ATOM     28  C   UNL     1      -3.355   0.872  -2.807  0.00  0.00    +0.029 C 
ENDBRANCH  25  26
ENDBRANCH   6  21
TORSDOF 4
