REMARK  Name = ZINC39677392
REMARK  4 active torsions:
REMARK  status: ('A' for Active; 'I' for Inactive)
REMARK    1  A    between atoms: C_4  and  C_8
REMARK    2  A    between atoms: C_12  and  C_21
REMARK    3  A    between atoms: N_23  and  C_24
REMARK    4  A    between atoms: C_24  and  C_25
REMARK                            x       y       z     vdW  Elec       q    Type
REMARK                         _______ _______ _______ _____ _____    ______ ____
ROOT
ATOM      1  C   UNL     1       3.819  -0.790  -0.004  0.00  0.00    +0.252 C 
ATOM      2  O   UNL     1       4.410  -1.055   1.025  0.00  0.00    -0.270 OA
ATOM      3  N   UNL     1       4.385  -1.064  -1.196  0.00  0.00    -0.296 N 
ATOM      4  C   UNL     1       3.829  -0.811  -2.546  0.00  0.00    +0.121 C 
ATOM      5  C   UNL     1       5.038  -0.338  -3.384  0.00  0.00    +0.100 C 
ATOM      6  C   UNL     1       6.266  -0.918  -2.663  0.00  0.00    -0.004 C 
ATOM      7  C   UNL     1       5.709  -1.682  -1.452  0.00  0.00    +0.115 C 
ATOM      8  C   UNL     1       7.021  -1.869  -3.586  0.00  0.00    -0.010 C 
ATOM      9  C   UNL     1       8.270  -2.387  -2.867  0.00  0.00    -0.082 C 
ATOM     10  N   UNL     1       9.126  -1.256  -2.491  0.00  0.00    +0.379 N 
ATOM     11  C   UNL     1       8.425  -0.396  -1.530  0.00  0.00    -0.082 C 
ATOM     12  C   UNL     1       7.183   0.207  -2.193  0.00  0.00    -0.010 C 
ATOM     13  H   UNL     1       9.976  -1.603  -2.073  0.00  0.00    -0.086 HD
ATOM     14  H   UNL     1       9.354  -0.720  -3.316  0.00  0.00    -0.086 HD
ENDROOT
BRANCH   1  18
ATOM     15  C   UNL     1      -0.030   1.001   0.156  0.00  0.00    +0.006 A 
ATOM     16  C   UNL     1       1.098   1.799   0.120  0.00  0.00    +0.039 A 
ATOM     17  C   UNL     1       2.354   1.225   0.068  0.00  0.00    +0.138 A 
ATOM     18  C   UNL     1       2.482  -0.168   0.052  0.00  0.00    +0.107 A 
ATOM     19  C   UNL     1       1.335  -0.968   0.088  0.00  0.00    +0.138 A 
ATOM     20  C   UNL     1       0.087  -0.377   0.140  0.00  0.00    +0.039 A 
ATOM     21  F   UNL     1       1.447  -2.314   0.073  0.00  0.00    -0.205 F 
ATOM     22  F   UNL     1       3.456   2.007   0.033  0.00  0.00    -0.205 F 
ENDBRANCH   1  18
BRANCH   5  23
ATOM     23  C   UNL     1       4.946  -0.879  -4.787  0.00  0.00    +0.218 C 
ATOM     24  O   UNL     1       4.409  -1.947  -4.992  0.00  0.00    -0.275 OA
ATOM     25  N   UNL     1       5.463  -0.177  -5.815  0.00  0.00    -0.311 N 
ATOM     26  H   UNL     1       5.893   0.677  -5.652  0.00  0.00    +0.149 HD
BRANCH  25  27
ATOM     27  C   UNL     1       5.374  -0.703  -7.180  0.00  0.00    +0.139 C 
BRANCH  27  28
ATOM     28  C   UNL     1       6.021   0.267  -8.135  0.00  0.00    -0.027 A 
ATOM     29  C   UNL     1       5.269   1.271  -8.714  0.00  0.00    +0.009 A 
ATOM     30  C   UNL     1       5.859   2.161  -9.592  0.00  0.00    +0.050 A 
ATOM     31  C   UNL     1       7.208   2.049  -9.893  0.00  0.00    +0.162 A 
ATOM     32  C   UNL     1       7.965   1.041  -9.309  0.00  0.00    +0.162 A 
ATOM     33  C   UNL     1       7.368   0.153  -8.426  0.00  0.00    +0.054 A 
ATOM     34  O   UNL     1       9.292   0.917  -9.584  0.00  0.00    -0.485 OA
ATOM     35  C   UNL     1       9.773   1.594 -10.751  0.00  0.00    +0.270 C 
ATOM     36  C   UNL     1       9.203   3.019 -10.749  0.00  0.00    +0.270 C 
ATOM     37  O   UNL     1       7.774   2.930 -10.762  0.00  0.00    -0.485 OA
ENDBRANCH  27  28
ENDBRANCH  25  27
ENDBRANCH   5  23
TORSDOF 4
