REMARK  Name = ZINC43220574
REMARK  1 active torsions:
REMARK  status: ('A' for Active; 'I' for Inactive)
REMARK    1  A    between atoms: C_3  and  N_13
REMARK                            x       y       z     vdW  Elec       q    Type
REMARK                         _______ _______ _______ _____ _____    ______ ____
ROOT
ATOM      1  C   UNL     1      -0.017   1.388   0.010  0.00  0.00    +0.030 A 
ATOM      2  C   UNL     1       1.159   2.085   0.002  0.00  0.00    +0.036 A 
ATOM      3  C   UNL     1       2.379   1.422  -0.013  0.00  0.00    +0.145 A 
ATOM      4  C   UNL     1       2.429   0.057  -0.021  0.00  0.00    +0.083 A 
ATOM      5  C   UNL     1       1.238  -0.679  -0.013  0.00  0.00    +0.053 A 
ATOM      6  C   UNL     1       0.002  -0.004   0.002  0.00  0.00    +0.068 A 
ATOM      7  N   UNL     1      -0.973  -0.967   0.006  0.00  0.00    -0.276 N 
ATOM      8  H   UNL     1      -1.929  -0.799   0.015  0.00  0.00    +0.189 HD
ATOM      9  N   UNL     1      -0.371  -2.229  -0.007  0.00  0.00    -0.167 NA
ATOM     10  C   UNL     1       0.926  -2.105  -0.018  0.00  0.00    +0.132 A 
ATOM     11  I   UNL     1       2.316  -3.673  -0.039  0.00  0.00    -0.019 I 
ATOM     12 CL   UNL     1       3.960  -0.761  -0.040  0.00  0.00    -0.080 Cl
ENDROOT
BRANCH   3  13
ATOM     13  N   UNL     1       3.637   2.202  -0.021  0.00  0.00    +0.058 N 
ATOM     14  O   UNL     1       3.599   3.410  -0.015  0.00  0.00    -0.126 OA
ATOM     15  O   UNL     1       4.702   1.630  -0.035  0.00  0.00    -0.126 OA
ENDBRANCH   3  13
TORSDOF 1
