REMARK  Name = ZINC66507705
REMARK  4 active torsions:
REMARK  status: ('A' for Active; 'I' for Inactive)
REMARK    1  A    between atoms: C_8  and  C_10
REMARK    2  A    between atoms: C_12  and  C_13
REMARK    3  A    between atoms: C_12  and  C_15
REMARK    4  A    between atoms: N_17  and  C_18
REMARK                            x       y       z     vdW  Elec       q    Type
REMARK                         _______ _______ _______ _____ _____    ______ ____
ROOT
ATOM      1  C   UNL     1       3.452  -3.453  -0.049  0.00  0.00    +0.247 C 
ATOM      2  O   UNL     1       4.800  -3.506  -0.062  0.00  0.00    -0.282 OA
ATOM      3  C   UNL     1       2.713  -4.626  -0.049  0.00  0.00    +0.163 C 
ENDROOT
BRANCH   1  11
ATOM      4  C   UNL     1      -0.016   1.308   0.009  0.00  0.00    +0.131 A 
ATOM      5  C   UNL     1       1.185   2.033   0.002  0.00  0.00    +0.054 A 
ATOM      6  C   UNL     1       2.365   1.362  -0.013  0.00  0.00    +0.133 A 
ATOM      7  N   UNL     1       2.351   0.001  -0.020  0.00  0.00    -0.202 N 
ATOM      8  C   UNL     1       1.161  -0.676  -0.013  0.00  0.00    +0.253 A 
ATOM      9  N   UNL     1       0.002  -0.004   0.002  0.00  0.00    -0.218 NA
ATOM     10  N   UNL     1       1.440  -1.972  -0.022  0.00  0.00    -0.186 NA
ATOM     11  C   UNL     1       2.765  -2.148  -0.036  0.00  0.00    +0.225 A 
ATOM     12  N   UNL     1       3.362  -0.968  -0.035  0.00  0.00    -0.140 NA
ATOM     13 BR   UNL     1       1.160   3.924   0.011  0.00  0.00    -0.047 Br
ENDBRANCH   1  11
BRANCH   3  14
ATOM     14  C   UNL     1       3.397  -5.925  -0.062  0.00  0.00    +0.258 C 
ATOM     15  O   UNL     1       4.612  -5.972  -0.074  0.00  0.00    -0.269 OA
ATOM     16  N   UNL     1       2.678  -7.065  -0.062  0.00  0.00    -0.308 N 
ATOM     17  H   UNL     1       1.709  -7.027  -0.053  0.00  0.00    +0.149 HD
BRANCH  16  18
ATOM     18  C   UNL     1       3.361  -8.361  -0.076  0.00  0.00    +0.073 C 
ATOM     19  C   UNL     1       3.696  -8.746  -1.518  0.00  0.00    +0.022 C 
ATOM     20  C   UNL     1       4.409 -10.100  -1.532  0.00  0.00    +0.002 C 
ATOM     21  C   UNL     1       3.495 -11.164  -0.920  0.00  0.00    +0.000 C 
ATOM     22  C   UNL     1       3.160 -10.779   0.523  0.00  0.00    +0.002 C 
ATOM     23  C   UNL     1       2.447  -9.425   0.537  0.00  0.00    +0.022 C 
ENDBRANCH  16  18
ENDBRANCH   3  14
BRANCH   3  24
ATOM     24  C   UNL     1       1.282  -4.571  -0.036  0.00  0.00    +0.108 C 
ATOM     25  N   UNL     1       0.147  -4.527  -0.025  0.00  0.00    -0.191 NA
ENDBRANCH   3  24
TORSDOF 4
