REMARK  Name = ZINC13513789
REMARK  4 active torsions:
REMARK  status: ('A' for Active; 'I' for Inactive)
REMARK    1  A    between atoms: C_3  and  N_8
REMARK    2  A    between atoms: C_12  and  C_13
REMARK    3  A    between atoms: N_17  and  C_18
REMARK    4  A    between atoms: C_21  and  O_24
REMARK                            x       y       z     vdW  Elec       q    Type
REMARK                         _______ _______ _______ _____ _____    ______ ____
ROOT
ATOM      1  N   UNL     1       4.763   3.650  -0.555  0.00  0.00    -0.189 N 
ATOM      2  C   UNL     1       3.483   3.236  -0.481  0.00  0.00    +0.273 C 
ATOM      3  O   UNL     1       3.088   2.087  -0.557  0.00  0.00    -0.268 OA
ATOM      4  C   UNL     1       2.680   4.395  -0.300  0.00  0.00    +0.100 C 
ATOM      5  C   UNL     1       1.323   4.443  -0.177  0.00  0.00    +0.054 C 
ATOM      6  N   UNL     1       3.569   5.478  -0.267  0.00  0.00    -0.264 N 
ATOM      7  C   UNL     1       4.813   4.986  -0.424  0.00  0.00    +0.318 C 
ATOM      8  O   UNL     1       5.830   5.652  -0.445  0.00  0.00    -0.251 OA
ATOM      9  H   UNL     1       3.332   6.412  -0.152  0.00  0.00    +0.157 HD
ENDROOT
BRANCH   1  12
ATOM     10  C   UNL     1       8.228   2.538  -1.098  0.00  0.00    +0.003 A 
ATOM     11  C   UNL     1       7.135   3.364  -0.920  0.00  0.00    +0.024 A 
ATOM     12  C   UNL     1       5.873   2.814  -0.736  0.00  0.00    +0.047 A 
ATOM     13  C   UNL     1       5.715   1.435  -0.725  0.00  0.00    +0.044 A 
ATOM     14  C   UNL     1       6.811   0.613  -0.907  0.00  0.00    +0.043 A 
ATOM     15  C   UNL     1       8.067   1.165  -1.091  0.00  0.00    +0.020 A 
ATOM     16 CL   UNL     1       6.613  -1.111  -0.899  0.00  0.00    -0.083 Cl
ENDBRANCH   1  12
BRANCH   5  17
ATOM     17  C   UNL     1       0.554   3.273  -0.376  0.00  0.00    +0.049 A 
ATOM     18  C   UNL     1      -0.368   2.739   0.509  0.00  0.00    +0.027 A 
ATOM     19  C   UNL     1      -0.894   1.590  -0.090  0.00  0.00    +0.020 A 
ATOM     20  C   UNL     1      -0.298   1.436  -1.297  0.00  0.00    +0.092 A 
ATOM     21  N   UNL     1       0.584   2.455  -1.485  0.00  0.00    -0.316 N 
BRANCH  21  22
ATOM     22  C   UNL     1       1.389   2.642  -2.618  0.00  0.00    +0.047 A 
ATOM     23  C   UNL     1       1.420   3.877  -3.252  0.00  0.00    +0.030 A 
ATOM     24  C   UNL     1       2.218   4.062  -4.364  0.00  0.00    +0.047 A 
ATOM     25  C   UNL     1       2.979   3.011  -4.854  0.00  0.00    +0.117 A 
ATOM     26  C   UNL     1       2.943   1.775  -4.225  0.00  0.00    +0.047 A 
ATOM     27  C   UNL     1       2.151   1.590  -3.110  0.00  0.00    +0.030 A 
BRANCH  25  28
ATOM     28  O   UNL     1       3.760   3.192  -5.952  0.00  0.00    -0.507 OA
ATOM     29  H   UNL     1       3.293   3.074  -6.791  0.00  0.00    +0.292 HD
ENDBRANCH  25  28
ENDBRANCH  21  22
ENDBRANCH   5  17
TORSDOF 4
