REMARK  Name = ZINC08879126
REMARK  5 active torsions:
REMARK  status: ('A' for Active; 'I' for Inactive)
REMARK    1  A    between atoms: C_1  and  C_2
REMARK    2  A    between atoms: C_2  and  C_3
REMARK    3  A    between atoms: C_2  and  C_4
REMARK    4  A    between atoms: C_4  and  C_5
REMARK    5  A    between atoms: C_5  and  N_6
REMARK                            x       y       z     vdW  Elec       q    Type
REMARK                         _______ _______ _______ _____ _____    ______ ____
ROOT
ATOM      1  N   UNL     1       2.482   1.381  -0.013  0.00  0.00    -0.272 N 
ATOM      2  C   UNL     1       1.169   1.819   0.001  0.00  0.00    +0.039 A 
ATOM      3  C   UNL     1      -0.013   1.076   0.008  0.00  0.00    +0.025 A 
ATOM      4  C   UNL     1      -1.206   1.781   0.017  0.00  0.00    +0.017 A 
ATOM      5  C   UNL     1      -1.238   3.162   0.028  0.00  0.00    +0.018 A 
ATOM      6  C   UNL     1      -0.068   3.914   0.021  0.00  0.00    +0.020 A 
ATOM      7  C   UNL     1       1.123   3.219   0.008  0.00  0.00    -0.021 A 
ATOM      8  C   UNL     1       2.544   3.683   0.002  0.00  0.00    +0.079 C 
ATOM      9  C   UNL     1       3.358   2.408  -0.013  0.00  0.00    +0.219 C 
ATOM     10  O   UNL     1       4.568   2.325  -0.024  0.00  0.00    -0.276 OA
ATOM     11  C   UNL     1       2.857   4.483   1.238  0.00  0.00    +0.022 A 
ATOM     12  C   UNL     1       3.615   5.605   1.211  0.00  0.00    -0.021 A 
ATOM     13  C   UNL     1       3.700   6.096   2.568  0.00  0.00    +0.003 A 
ATOM     14  C   UNL     1       4.340   7.199   3.142  0.00  0.00    +0.010 A 
ATOM     15  C   UNL     1       4.205   7.359   4.499  0.00  0.00    +0.001 A 
ATOM     16  C   UNL     1       3.472   6.476   5.275  0.00  0.00    +0.002 A 
ATOM     17  C   UNL     1       2.828   5.377   4.734  0.00  0.00    +0.026 A 
ATOM     18  C   UNL     1       2.948   5.189   3.359  0.00  0.00    +0.047 A 
ATOM     19  N   UNL     1       2.454   4.230   2.521  0.00  0.00    -0.358 N 
ATOM     20  H   UNL     1       1.900   3.482   2.794  0.00  0.00    +0.166 HD
ATOM     21  C   UNL     1       4.219   6.166  -0.051  0.00  0.00    +0.018 C 
ATOM     22  C   UNL     1       4.184   5.072  -1.127  0.00  0.00    -0.075 C 
ATOM     23 BR   UNL     1      -2.908   4.048   0.046  0.00  0.00    -0.050 Br
ATOM     24  N   UNL     1       2.828   4.488  -1.201  0.00  0.00    +0.395 N 
ATOM     25  H   UNL     1       2.138   5.245  -1.271  0.00  0.00    -0.083 HD
ATOM     26  H   UNL     1       2.763   3.888  -2.031  0.00  0.00    -0.083 HD
ENDROOT
BRANCH   1  27
ATOM     27  C   UNL     1       2.875  -0.030  -0.025  0.00  0.00    +0.114 C 
BRANCH  27  28
ATOM     28  C   UNL     1       2.999  -0.512  -1.472  0.00  0.00    +0.022 C 
BRANCH  28  30
ATOM     29  C   UNL     1       2.292  -2.832  -0.872  0.00  0.00    +0.007 C 
ATOM     30  C   UNL     1       3.410  -1.986  -1.485  0.00  0.00    -0.016 C 
ATOM     31  C   UNL     1       3.655  -2.435  -2.927  0.00  0.00    +0.007 C 
ENDBRANCH  28  30
ENDBRANCH  27  28
ENDBRANCH   1  27
TORSDOF 3
