REMARK  Name = ZINC20121376
REMARK  13 active torsions:
REMARK  status: ('A' for Active; 'I' for Inactive)
REMARK    1  A    between atoms: C_1  and  C_2
REMARK    2  A    between atoms: C_2  and  C_3
REMARK    3  A    between atoms: C_2  and  C_4
REMARK    4  A    between atoms: C_4  and  C_6
REMARK    5  A    between atoms: C_4  and  N_18
REMARK    6  A    between atoms: N_10  and  C_11
REMARK    7  A    between atoms: C_11  and  C_12
REMARK    8  A    between atoms: N_18  and  C_19
REMARK    9  A    between atoms: N_18  and  C_23
REMARK   10  A    between atoms: C_19  and  C_20
REMARK   11  A    between atoms: C_20  and  C_21
REMARK   12  A    between atoms: C_21  and  O_22
REMARK   13  A    between atoms: C_23  and  C_24
REMARK                            x       y       z     vdW  Elec       q    Type
REMARK                         _______ _______ _______ _____ _____    ______ ____
ROOT
ATOM      1  N   UNL     1      -1.827  -1.439  -0.926  0.00  0.00    +0.389 N 
ATOM      2  H   UNL     1      -1.413  -1.842  -1.753  0.00  0.00    -0.080 HD
ENDROOT
BRANCH   1   3
ATOM      3  C   UNL     1      -1.501  -0.008  -0.864  0.00  0.00    +0.006 C 
BRANCH   3   4
ATOM      4  C   UNL     1      -1.858   0.646  -2.174  0.00  0.00    +0.139 A 
ATOM      5  N   UNL     1      -1.319   0.401  -3.343  0.00  0.00    -0.115 NA
ATOM      6  N   UNL     1      -1.892   1.159  -4.213  0.00  0.00    -0.023 NA
ATOM      7  N   UNL     1      -2.784   1.881  -3.629  0.00  0.00    -0.044 NA
ATOM      8  N   UNL     1      -2.797   1.589  -2.372  0.00  0.00    -0.226 N 
BRANCH   8   9
ATOM      9  C   UNL     1      -3.668   2.178  -1.352  0.00  0.00    +0.182 C 
BRANCH   9  10
ATOM     10  C   UNL     1      -3.070   3.474  -0.868  0.00  0.00    -0.026 A 
ATOM     11  C   UNL     1      -2.320   3.498   0.294  0.00  0.00    +0.005 A 
ATOM     12  C   UNL     1      -1.772   4.687   0.738  0.00  0.00    +0.000 A 
ATOM     13  C   UNL     1      -1.972   5.851   0.019  0.00  0.00    +0.000 A 
ATOM     14  C   UNL     1      -2.720   5.827  -1.143  0.00  0.00    +0.000 A 
ATOM     15  C   UNL     1      -3.265   4.637  -1.589  0.00  0.00    +0.005 A 
ENDBRANCH   9  10
ENDBRANCH   8   9
ENDBRANCH   3   4
BRANCH   3  17
ATOM     16  C   UNL     1       0.792  -0.525  -1.710  0.00  0.00    +0.006 C 
ATOM     17  C   UNL     1      -0.004   0.164  -0.600  0.00  0.00    -0.024 C 
ATOM     18  C   UNL     1       0.342   1.654  -0.574  0.00  0.00    +0.006 C 
ENDBRANCH   3  17
ENDBRANCH   1   3
BRANCH   1  19
ATOM     19  C   UNL     1      -3.285  -1.608  -0.975  0.00  0.00    -0.075 C 
BRANCH  19  20
ATOM     20  C   UNL     1      -3.782  -1.342  -2.397  0.00  0.00    +0.009 C 
BRANCH  20  21
ATOM     21  C   UNL     1      -5.270  -1.686  -2.491  0.00  0.00    +0.154 C 
BRANCH  21  22
ATOM     22  O   UNL     1      -5.733  -1.438  -3.819  0.00  0.00    -0.395 OA
ATOM     23  H   UNL     1      -6.671  -1.635  -3.952  0.00  0.00    +0.209 HD
ENDBRANCH  21  22
ENDBRANCH  20  21
ENDBRANCH  19  20
ENDBRANCH   1  19
BRANCH   1  24
ATOM     24  C   UNL     1      -1.296  -2.114   0.266  0.00  0.00    -0.037 C 
BRANCH  24  25
ATOM     25  C   UNL     1      -1.571  -3.592   0.171  0.00  0.00    +0.001 A 
ATOM     26  C   UNL     1      -0.620  -4.426  -0.322  0.00  0.00    +0.017 A 
ATOM     27  C   UNL     1      -0.917  -5.856  -0.401  0.00  0.00    +0.002 A 
ATOM     28  C   UNL     1       0.025  -6.763  -0.902  0.00  0.00    +0.059 A 
ATOM     29  C   UNL     1      -0.284  -8.103  -0.966  0.00  0.00    +0.167 A 
ATOM     30  C   UNL     1      -1.535  -8.561  -0.532  0.00  0.00    +0.168 A 
ATOM     31  C   UNL     1      -2.471  -7.672  -0.036  0.00  0.00    +0.075 A 
ATOM     32  C   UNL     1      -2.175  -6.317   0.035  0.00  0.00    +0.053 A 
ATOM     33  N   UNL     1      -3.098  -5.416   0.526  0.00  0.00    -0.322 N 
ATOM     34  C   UNL     1      -2.812  -4.104   0.599  0.00  0.00    +0.251 A 
ATOM     35  O   UNL     1      -3.650  -3.338   1.042  0.00  0.00    -0.268 OA
ATOM     36  O   UNL     1      -1.583  -9.914  -0.701  0.00  0.00    -0.453 OA
ATOM     37  C   UNL     1      -0.518 -10.226  -1.619  0.00  0.00    +0.466 C 
ATOM     38  O   UNL     1       0.441  -9.175  -1.404  0.00  0.00    -0.453 OA
ATOM     39  H   UNL     1      -3.963  -5.734   0.826  0.00  0.00    +0.169 HD
ENDBRANCH  24  25
ENDBRANCH   1  24
TORSDOF 11
