REMARK  Name = ZINC09420471
REMARK  8 active torsions:
REMARK  status: ('A' for Active; 'I' for Inactive)
REMARK    1  A    between atoms: C_6  and  N_7
REMARK    2  A    between atoms: C_8  and  C_10
REMARK    3  A    between atoms: C_10  and  C_11
REMARK    4  A    between atoms: C_11  and  C_12
REMARK    5  A    between atoms: N_16  and  C_20
REMARK    6  A    between atoms: C_17  and  O_19
REMARK    7  A    between atoms: C_20  and  C_21
REMARK    8  A    between atoms: C_21  and  C_22
REMARK                            x       y       z     vdW  Elec       q    Type
REMARK                         _______ _______ _______ _____ _____    ______ ____
ROOT
ATOM      1  C   UNL     1      -6.141  -0.659   0.479  0.00  0.00    +0.197 C 
ATOM      2  C   UNL     1      -7.315   0.281   0.670  0.00  0.00    +0.248 C 
ATOM      3  O   UNL     1      -7.497   1.059   1.582  0.00  0.00    -0.273 OA
ATOM      4  N   UNL     1      -8.113   0.066  -0.398  0.00  0.00    -0.224 N 
ATOM      5  C   UNL     1      -7.574  -0.890  -1.220  0.00  0.00    +0.285 C 
ATOM      6  N   UNL     1      -6.444  -1.355  -0.782  0.00  0.00    -0.224 NA
ENDROOT
BRANCH   5   7
ATOM      7  O   UNL     1      -8.158  -1.307  -2.364  0.00  0.00    -0.481 OA
ATOM      8  H   UNL     1      -7.658  -1.987  -2.836  0.00  0.00    +0.295 HD
ENDBRANCH   5   7
BRANCH   1   9
ATOM      9  C   UNL     1      -4.835   0.129   0.358  0.00  0.00    +0.045 C 
BRANCH   9  10
ATOM     10  C   UNL     1      -3.661  -0.845   0.242  0.00  0.00    +0.098 C 
BRANCH  10  12
ATOM     11  N   UNL     1      -1.201  -0.721   0.008  0.00  0.00    -0.285 N 
ATOM     12  C   UNL     1      -2.375  -0.068   0.122  0.00  0.00    +0.217 C 
ATOM     13  O   UNL     1      -2.396   1.145   0.129  0.00  0.00    -0.275 OA
ATOM     14  H   UNL     1      -1.190  -1.688  -0.075  0.00  0.00    +0.155 HD
BRANCH  11  20
ATOM     15  C   UNL     1       0.120   1.155   0.762  0.00  0.00    +0.027 A 
ATOM     16  C   UNL     1       1.307   1.863   0.761  0.00  0.00    +0.051 A 
ATOM     17  C   UNL     1       2.383   1.419   0.007  0.00  0.00    +0.162 A 
ATOM     18  C   UNL     1       2.268   0.257  -0.747  0.00  0.00    +0.164 A 
ATOM     19  C   UNL     1       1.077  -0.453  -0.747  0.00  0.00    +0.072 A 
ATOM     20  C   UNL     1       0.002  -0.004   0.008  0.00  0.00    +0.037 A 
ATOM     21  O   UNL     1       3.316  -0.199  -1.487  0.00  0.00    -0.485 OA
ATOM     22  C   UNL     1       4.367   0.734  -1.758  0.00  0.00    +0.270 C 
ATOM     23  C   UNL     1       4.716   1.458  -0.451  0.00  0.00    +0.270 C 
ATOM     24  O   UNL     1       3.542   2.132   0.016  0.00  0.00    -0.485 OA
ENDBRANCH  11  20
ENDBRANCH  10  12
ENDBRANCH   9  10
ENDBRANCH   1   9
BRANCH   4  25
ATOM     25  C   UNL     1      -9.380   0.758  -0.644  0.00  0.00    +0.123 C 
BRANCH  25  26
ATOM     26  C   UNL     1      -9.119   2.025  -1.461  0.00  0.00    +0.057 C 
BRANCH  26  27
ATOM     27  C   UNL     1     -10.423   2.737  -1.714  0.00  0.00    -0.021 A 
ATOM     28  C   UNL     1     -11.200   2.617  -2.802  0.00  0.00    +0.087 A 
ATOM     29  N   UNL     1     -12.304   3.416  -2.678  0.00  0.00    -0.360 N 
ATOM     30  H   UNL     1     -13.010   3.498  -3.338  0.00  0.00    +0.165 HD
ATOM     31  C   UNL     1     -12.262   4.088  -1.476  0.00  0.00    +0.047 A 
ATOM     32  C   UNL     1     -11.086   3.687  -0.817  0.00  0.00    +0.004 A 
ATOM     33  C   UNL     1     -10.780   4.207   0.442  0.00  0.00    +0.030 A 
ATOM     34  C   UNL     1     -11.637   5.108   1.033  0.00  0.00    +0.042 A 
ATOM     35  C   UNL     1     -12.800   5.501   0.384  0.00  0.00    +0.022 A 
ATOM     36  C   UNL     1     -13.111   5.003  -0.863  0.00  0.00    +0.027 A 
ATOM     37 CL   UNL     1     -11.261   5.757   2.599  0.00  0.00    -0.084 Cl
ENDBRANCH  26  27
ENDBRANCH  25  26
ENDBRANCH   4  25
TORSDOF 8
