REMARK  Name = ZINC39769178
REMARK  9 active torsions:
REMARK  status: ('A' for Active; 'I' for Inactive)
REMARK    1  A    between atoms: C_1  and  C_2
REMARK    2  A    between atoms: C_3  and  C_22
REMARK    3  A    between atoms: C_4  and  N_12
REMARK    4  A    between atoms: N_5  and  C_11
REMARK    5  A    between atoms: C_8  and  C_9
REMARK    6  A    between atoms: C_14  and  C_21
REMARK    7  A    between atoms: C_17  and  C_20
REMARK    8  A    between atoms: N_26  and  C_30
REMARK    9  A    between atoms: C_30  and  C_31
REMARK                            x       y       z     vdW  Elec       q    Type
REMARK                         _______ _______ _______ _____ _____    ______ ____
ROOT
ATOM      1  C   UNL     1      -1.283   1.961   0.473  0.00  0.00    +0.046 C 
ATOM      2  C   UNL     1      -1.659   0.786  -0.392  0.00  0.00    -0.017 A 
ATOM      3  C   UNL     1      -2.756  -0.026  -0.057  0.00  0.00    +0.019 A 
ATOM      4  C   UNL     1      -3.086  -1.115  -0.880  0.00  0.00    +0.111 A 
ATOM      5  N   UNL     1      -2.355  -1.385  -1.992  0.00  0.00    -0.298 N 
ATOM      6  C   UNL     1      -1.301  -0.623  -2.335  0.00  0.00    +0.270 A 
ATOM      7  O   UNL     1      -0.663  -0.890  -3.338  0.00  0.00    -0.266 OA
ATOM      8  C   UNL     1      -0.929   0.491  -1.540  0.00  0.00    +0.120 A 
ATOM      9  C   UNL     1      -2.720  -2.528  -2.833  0.00  0.00    +0.154 C 
ENDROOT
BRANCH   4  10
ATOM     10  N   UNL     1      -4.149  -1.907  -0.560  0.00  0.00    -0.315 N 
ATOM     11  C   UNL     1      -4.323  -2.410   0.810  0.00  0.00    +0.109 C 
ATOM     12  C   UNL     1      -5.726  -2.037   1.298  0.00  0.00    +0.004 C 
ATOM     13  C   UNL     1      -6.764  -2.558   0.301  0.00  0.00    +0.009 C 
ATOM     14  C   UNL     1      -6.537  -1.903  -1.063  0.00  0.00    +0.004 C 
ATOM     15  C   UNL     1      -5.146  -2.269  -1.577  0.00  0.00    +0.109 C 
ATOM     16  C   UNL     1      -6.642  -0.383  -0.924  0.00  0.00    +0.009 C 
ATOM     17  C   UNL     1      -5.974  -2.666   2.670  0.00  0.00    +0.009 C 
ENDBRANCH   4  10
BRANCH   3  18
ATOM     18  C   UNL     1      -3.547   0.260   1.141  0.00  0.00    +0.032 C 
ATOM     19  C   UNL     1      -4.297   1.394   1.207  0.00  0.00    +0.077 C 
ATOM     20  C   UNL     1      -4.527   2.390   0.210  0.00  0.00    +0.259 C 
ATOM     21  O   UNL     1      -4.021   2.301  -0.895  0.00  0.00    -0.269 OA
ATOM     22  N   UNL     1      -5.305   3.412   0.521  0.00  0.00    -0.251 N 
ATOM     23  C   UNL     1      -5.867   3.510   1.746  0.00  0.00    +0.121 C 
ATOM     24  S   UNL     1      -6.897   4.733   2.359  0.00  0.00    -0.027 S 
ATOM     25  S   UNL     1      -5.268   2.038   2.562  0.00  0.00    -0.061 S 
BRANCH  22  26
ATOM     26  C   UNL     1      -5.563   4.453  -0.477  0.00  0.00    +0.151 C 
BRANCH  26  27
ATOM     27  C   UNL     1      -4.625   5.610  -0.250  0.00  0.00    -0.011 A 
ATOM     28  C   UNL     1      -5.030   6.689   0.513  0.00  0.00    +0.006 A 
ATOM     29  C   UNL     1      -4.170   7.750   0.722  0.00  0.00    +0.000 A 
ATOM     30  C   UNL     1      -2.903   7.734   0.168  0.00  0.00    +0.001 A 
ATOM     31  C   UNL     1      -2.497   6.656  -0.595  0.00  0.00    +0.020 A 
ATOM     32  C   UNL     1      -3.356   5.590  -0.800  0.00  0.00    +0.046 A 
ATOM     33 CL   UNL     1      -2.844   4.232  -1.753  0.00  0.00    -0.083 Cl
ENDBRANCH  26  27
ENDBRANCH  22  26
ENDBRANCH   3  18
BRANCH   8  34
ATOM     34  C   UNL     1       0.190   1.303  -1.913  0.00  0.00    +0.105 C 
ATOM     35  N   UNL     1       1.078   1.946  -2.208  0.00  0.00    -0.191 NA
ENDBRANCH   8  34
TORSDOF 5
