REMARK  Name = ZINC67332833
REMARK  7 active torsions:
REMARK  status: ('A' for Active; 'I' for Inactive)
REMARK    1  A    between atoms: C_1  and  C_2
REMARK    2  A    between atoms: C_3  and  C_13
REMARK    3  A    between atoms: C_5  and  C_7
REMARK    4  A    between atoms: N_15  and  C_16
REMARK    5  A    between atoms: C_16  and  C_17
REMARK    6  A    between atoms: N_22  and  C_23
REMARK    7  A    between atoms: C_23  and  C_24
REMARK                            x       y       z     vdW  Elec       q    Type
REMARK                         _______ _______ _______ _____ _____    ______ ____
ROOT
ATOM      1  C   UNL     1      -1.537   1.177  -4.424  0.00  0.00    +0.252 C 
ATOM      2  O   UNL     1      -0.795   1.480  -3.508  0.00  0.00    -0.270 OA
ATOM      3  N   UNL     1      -1.281   0.082  -5.165  0.00  0.00    -0.312 N 
ATOM      4  H   UNL     1      -1.872  -0.160  -5.896  0.00  0.00    +0.149 HD
ENDROOT
BRANCH   1   7
ATOM      5  C   UNL     1      -2.433   3.767  -2.925  0.00  0.00    +0.067 C 
ATOM      6  C   UNL     1      -3.162   3.161  -4.097  0.00  0.00    +0.058 A 
ATOM      7  C   UNL     1      -2.710   2.005  -4.721  0.00  0.00    +0.097 A 
ATOM      8  S   UNL     1      -3.955   1.807  -5.986  0.00  0.00    -0.059 S 
ATOM      9  C   UNL     1      -4.886   3.158  -5.610  0.00  0.00    +0.148 A 
ATOM     10  N   UNL     1      -4.255   3.692  -4.578  0.00  0.00    -0.240 NA
BRANCH   9  11
ATOM     11  C   UNL     1      -6.119   3.632  -6.273  0.00  0.00    +0.206 A 
ATOM     12  N   UNL     1      -6.823   4.721  -5.929  0.00  0.00    -0.213 NA
ATOM     13  H   UNL     1      -8.483   3.670  -8.310  0.00  0.00    +0.190 HD
ATOM     14  C   UNL     1      -7.854   4.849  -6.720  0.00  0.00    +0.216 A 
ATOM     15  N   UNL     1      -7.840   3.833  -7.603  0.00  0.00    -0.265 N 
ATOM     16  N   UNL     1      -6.707   3.059  -7.302  0.00  0.00    -0.150 NA
ENDBRANCH   9  11
ENDBRANCH   1   7
BRANCH   3  17
ATOM     17  C   UNL     1      -0.108  -0.746  -4.869  0.00  0.00    +0.089 C 
BRANCH  17  18
ATOM     18  C   UNL     1      -0.116  -1.983  -5.769  0.00  0.00    -0.051 C 
ATOM     19  C   UNL     1       0.043  -1.560  -7.244  0.00  0.00    -0.016 C 
ATOM     20  C   UNL     1       0.959  -2.667  -7.829  0.00  0.00    -0.020 C 
ATOM     21  C   UNL     1       1.895  -2.963  -6.630  0.00  0.00    -0.078 C 
ATOM     22  N   UNL     1       1.026  -2.853  -5.435  0.00  0.00    +0.383 N 
ATOM     23  H   UNL     1       0.691  -3.768  -5.171  0.00  0.00    -0.081 HD
BRANCH  22  24
ATOM     24  C   UNL     1       1.785  -2.267  -4.322  0.00  0.00    -0.075 C 
BRANCH  24  25
ATOM     25  C   UNL     1       2.913  -3.219  -3.917  0.00  0.00    -0.028 C 
ATOM     26  C   UNL     1       2.313  -4.512  -3.361  0.00  0.00    +0.002 C 
ATOM     27  C   UNL     1       3.441  -5.464  -2.956  0.00  0.00    +0.000 C 
ATOM     28  C   UNL     1       4.307  -4.801  -1.883  0.00  0.00    +0.000 C 
ATOM     29  C   UNL     1       4.906  -3.508  -2.439  0.00  0.00    +0.000 C 
ATOM     30  C   UNL     1       3.779  -2.556  -2.844  0.00  0.00    +0.002 C 
ENDBRANCH  24  25
ENDBRANCH  22  24
ENDBRANCH  17  18
ENDBRANCH   3  17
TORSDOF 6
