REMARK  Name = ZINC39709555
REMARK  4 active torsions:
REMARK  status: ('A' for Active; 'I' for Inactive)
REMARK    1  A    between atoms: C_3  and  C_6
REMARK    2  A    between atoms: N_8  and  C_9
REMARK    3  A    between atoms: C_12  and  C_15
REMARK    4  A    between atoms: C_26  and  C_28
REMARK                            x       y       z     vdW  Elec       q    Type
REMARK                         _______ _______ _______ _____ _____    ______ ____
ROOT
ATOM      1  C   UNL     1       9.775   2.417   0.504  0.00  0.00    +0.218 C 
ATOM      2  N   UNL     1      10.548   1.398   1.218  0.00  0.00    -0.360 N 
ATOM      3  C   UNL     1      11.133   1.949   2.243  0.00  0.00    +0.060 C 
ATOM      4  C   UNL     1      12.018   1.383   3.281  0.00  0.00    +0.029 C 
ATOM      5  C   UNL     1      12.497   2.184   4.248  0.00  0.00    +0.025 C 
ATOM      6  C   UNL     1      12.145   3.608   4.274  0.00  0.00    +0.036 C 
ATOM      7  C   UNL     1      11.302   4.164   3.290  0.00  0.00    +0.050 C 
ATOM      8  C   UNL     1      10.796   3.388   2.296  0.00  0.00    +0.075 C 
ATOM      9  N   UNL     1       9.964   3.679   1.232  0.00  0.00    -0.220 NA
ATOM     10  N   UNL     1      12.629   4.386   5.239  0.00  0.00    -0.281 N 
ATOM     11  C   UNL     1      13.525   3.896   6.110  0.00  0.00    +0.255 C 
ATOM     12  O   UNL     1      14.562   3.400   5.704  0.00  0.00    -0.269 OA
ATOM     13  H   UNL     1      12.335   5.308   5.312  0.00  0.00    +0.155 HD
ATOM     14  H   UNL     1      10.613   0.463   0.968  0.00  0.00    +0.162 HD
ENDROOT
BRANCH   1  18
ATOM     15  C   UNL     1       5.635   1.355   0.470  0.00  0.00    +0.034 A 
ATOM     16  C   UNL     1       6.011   2.692   0.466  0.00  0.00    +0.024 A 
ATOM     17  C   UNL     1       7.349   3.032   0.478  0.00  0.00    +0.009 A 
ATOM     18  C   UNL     1       8.315   2.042   0.492  0.00  0.00    -0.006 A 
ATOM     19  C   UNL     1       7.944   0.710   0.495  0.00  0.00    +0.009 A 
ATOM     20  C   UNL     1       6.607   0.364   0.490  0.00  0.00    +0.024 A 
BRANCH  15  23
ATOM     21  C   UNL     1       3.857  -0.076   1.138  0.00  0.00    +0.255 C 
ATOM     22  O   UNL     1       4.663  -0.799   1.694  0.00  0.00    -0.269 OA
ATOM     23  N   UNL     1       4.280   1.008   0.459  0.00  0.00    -0.281 N 
ATOM     24  H   UNL     1       3.645   1.548  -0.038  0.00  0.00    +0.155 HD
BRANCH  21  27
ATOM     25  C   UNL     1       0.419  -1.462   1.736  0.00  0.00    +0.008 A 
ATOM     26  C   UNL     1       1.789  -1.437   1.848  0.00  0.00    +0.021 A 
ATOM     27  C   UNL     1       2.426  -0.384   1.209  0.00  0.00    +0.074 A 
ATOM     28  S   UNL     1       1.050   0.497   0.496  0.00  0.00    -0.092 S 
ATOM     29  C   UNL     1      -0.203  -0.486   1.031  0.00  0.00    +0.046 A 
ENDBRANCH  21  27
ENDBRANCH  15  23
ENDBRANCH   1  18
BRANCH  11  30
ATOM     30  C   UNL     1      13.256   3.958   7.553  0.00  0.00    +0.074 A 
ATOM     31  C   UNL     1      14.042   3.520   8.608  0.00  0.00    +0.021 A 
ATOM     32  C   UNL     1      13.519   3.716   9.864  0.00  0.00    +0.008 A 
ATOM     33  C   UNL     1      12.304   4.308   9.986  0.00  0.00    +0.046 A 
ATOM     34  S   UNL     1      11.838   4.623   8.404  0.00  0.00    -0.092 S 
ENDBRANCH  11  30
TORSDOF 4
