REMARK  Name = ZINC05886384
REMARK  2 active torsions:
REMARK  status: ('A' for Active; 'I' for Inactive)
REMARK    1  A    between atoms: C_3  and  C_8
REMARK    2  A    between atoms: C_16  and  C_20
REMARK                            x       y       z     vdW  Elec       q    Type
REMARK                         _______ _______ _______ _____ _____    ______ ____
ROOT
ATOM      1  C   UNL     1       3.672   2.180  -0.019  0.00  0.00    +0.063 C 
ATOM      2  C   UNL     1       4.447   1.901   1.273  0.00  0.00    +0.109 C 
ATOM      3  C   UNL     1       5.884   2.321   1.145  0.00  0.00    +0.219 C 
ATOM      4  O   UNL     1       6.434   2.832   2.098  0.00  0.00    -0.275 OA
ATOM      5  N   UNL     1       6.583   2.147   0.003  0.00  0.00    -0.270 N 
ATOM      6  C   UNL     1       5.888   1.743  -1.138  0.00  0.00    +0.125 A 
ATOM      7  C   UNL     1       4.520   1.742  -1.185  0.00  0.00    +0.028 A 
ATOM      8  C   UNL     1       4.134   1.284  -2.447  0.00  0.00    +0.098 A 
ATOM      9  N   UNL     1       5.228   1.036  -3.143  0.00  0.00    -0.172 NA
ATOM     10  N   UNL     1       6.341   1.329  -2.336  0.00  0.00    -0.263 N 
ATOM     11  H   UNL     1       7.272   1.248  -2.598  0.00  0.00    +0.190 HD
ATOM     12  H   UNL     1       7.540   2.299  -0.024  0.00  0.00    +0.156 HD
ENDROOT
BRANCH   1  15
ATOM     13  C   UNL     1      -0.015   1.367   0.069  0.00  0.00    +0.003 A 
ATOM     14  C   UNL     1       1.172   2.076   0.063  0.00  0.00    +0.004 A 
ATOM     15  C   UNL     1       2.379   1.406  -0.012  0.00  0.00    -0.037 A 
ATOM     16  C   UNL     1       2.400   0.025  -0.082  0.00  0.00    +0.042 A 
ATOM     17  C   UNL     1       1.212  -0.685  -0.075  0.00  0.00    +0.124 A 
ATOM     18  C   UNL     1       0.004  -0.013   0.001  0.00  0.00    +0.038 A 
ATOM     19  F   UNL     1       1.231  -2.035  -0.143  0.00  0.00    -0.205 F 
ENDBRANCH   1  15
BRANCH   8  20
ATOM     20  C   UNL     1       2.739   1.106  -2.921  0.00  0.00    +0.003 A 
ATOM     21  C   UNL     1       1.789   2.099  -2.688  0.00  0.00    +0.011 A 
ATOM     22  C   UNL     1       0.494   1.929  -3.132  0.00  0.00    +0.020 A 
ATOM     23  C   UNL     1       0.136   0.774  -3.807  0.00  0.00    +0.041 A 
ATOM     24  C   UNL     1       1.076  -0.215  -4.040  0.00  0.00    +0.020 A 
ATOM     25  C   UNL     1       2.375  -0.052  -3.606  0.00  0.00    +0.011 A 
ATOM     26 CL   UNL     1      -1.496   0.567  -4.361  0.00  0.00    -0.084 Cl
ENDBRANCH   8  20
TORSDOF 2
