REMARK  Name = ZINC13500763
REMARK  17 active torsions:
REMARK  status: ('A' for Active; 'I' for Inactive)
REMARK    1  A    between atoms: C_1  and  C_2
REMARK    2  A    between atoms: C_2  and  C_3
REMARK    3  A    between atoms: C_3  and  C_4
REMARK    4  A    between atoms: C_4  and  C_6
REMARK    5  A    between atoms: C_4  and  N_66
REMARK    6  A    between atoms: N_10  and  C_11
REMARK    7  A    between atoms: C_11  and  C_12
REMARK    8  A    between atoms: C_11  and  C_13
REMARK    9  A    between atoms: C_11  and  C_14
REMARK   10  A    between atoms: C_15  and  C_16
REMARK   11  A    between atoms: C_15  and  N_66
REMARK   12  A    between atoms: C_16  and  O_17
REMARK   13  A    between atoms: C_18  and  C_19
REMARK   14  A    between atoms: C_18  and  N_66
REMARK   15  A    between atoms: C_23  and  O_31
REMARK   16  A    between atoms: O_31  and  C_32
REMARK   17  A    between atoms: C_32  and  C_33
REMARK                            x       y       z     vdW  Elec       q    Type
REMARK                         _______ _______ _______ _____ _____    ______ ____
ROOT
ATOM      1  N   UNL     1      -0.471   3.532   0.866  0.00  0.00    +0.391 N 
ATOM      2  H   UNL     1       0.406   4.060   0.780  0.00  0.00    -0.080 HD
ENDROOT
BRANCH   1   3
ATOM      3  C   UNL     1      -0.153   2.099   1.036  0.00  0.00    +0.003 C 
BRANCH   3   4
ATOM      4  C   UNL     1       0.479   1.891   2.388  0.00  0.00    +0.139 A 
ATOM      5  N   UNL     1       1.469   2.579   2.903  0.00  0.00    -0.115 NA
ATOM      6  N   UNL     1       1.720   2.099   4.072  0.00  0.00    -0.023 NA
ATOM      7  N   UNL     1       0.922   1.119   4.313  0.00  0.00    -0.043 NA
ATOM      8  N   UNL     1       0.141   0.959   3.298  0.00  0.00    -0.226 N 
BRANCH   8   9
ATOM      9  C   UNL     1      -0.915  -0.048   3.163  0.00  0.00    +0.059 C 
ATOM     10  C   UNL     1      -0.644  -0.907   1.927  0.00  0.00    +0.036 C 
ATOM     11  C   UNL     1      -0.935  -0.936   4.408  0.00  0.00    +0.036 C 
ATOM     12  C   UNL     1      -2.268   0.650   3.012  0.00  0.00    +0.036 C 
ENDBRANCH   8   9
ENDBRANCH   3   4
BRANCH   3  13
ATOM     13  C   UNL     1       0.831   1.679  -0.058  0.00  0.00    -0.008 C 
BRANCH  13  15
ATOM     14  C   UNL     1       3.151   1.981  -0.935  0.00  0.00    +0.004 C 
ATOM     15  C   UNL     1       2.132   2.469   0.097  0.00  0.00    -0.005 C 
ENDBRANCH  13  15
ENDBRANCH   3  13
ENDBRANCH   1   3
BRANCH   1  16
ATOM     16  C   UNL     1      -1.216   4.028   2.042  0.00  0.00    -0.049 C 
BRANCH  16  17
ATOM     17  C   UNL     1      -1.163   5.557   2.049  0.00  0.00    +0.137 C 
BRANCH  17  18
ATOM     18  O   UNL     1      -1.916   6.064   0.946  0.00  0.00    -0.397 OA
ATOM     19  H   UNL     1      -1.863   7.024   0.842  0.00  0.00    +0.209 HD
ENDBRANCH  17  18
ENDBRANCH  16  17
ENDBRANCH   1  16
BRANCH   1  20
ATOM     20  C   UNL     1      -1.273   3.730  -0.360  0.00  0.00    -0.036 C 
BRANCH  20  21
ATOM     21  C   UNL     1      -2.582   2.991  -0.260  0.00  0.00    +0.001 A 
ATOM     22  C   UNL     1      -3.691   3.637   0.180  0.00  0.00    +0.017 A 
ATOM     23  C   UNL     1      -4.949   2.893   0.262  0.00  0.00    +0.002 A 
ATOM     24  C   UNL     1      -6.125   3.508   0.703  0.00  0.00    +0.055 A 
ATOM     25  C   UNL     1      -7.292   2.775   0.772  0.00  0.00    +0.121 A 
ATOM     26  C   UNL     1      -7.302   1.431   0.406  0.00  0.00    +0.047 A 
ATOM     27  C   UNL     1      -6.151   0.814  -0.029  0.00  0.00    +0.030 A 
ATOM     28  C   UNL     1      -4.963   1.534  -0.107  0.00  0.00    +0.049 A 
ATOM     29  N   UNL     1      -3.799   0.934  -0.542  0.00  0.00    -0.322 N 
ATOM     30  H   UNL     1      -3.809  -0.002  -0.796  0.00  0.00    +0.169 HD
ATOM     31  C   UNL     1      -2.650   1.628  -0.618  0.00  0.00    +0.251 A 
ATOM     32  O   UNL     1      -1.640   1.065  -1.006  0.00  0.00    -0.268 OA
BRANCH  25  33
ATOM     33  O   UNL     1      -8.438   3.368   1.201  0.00  0.00    -0.492 OA
BRANCH  33  34
ATOM     34  C   UNL     1      -9.611   2.553   1.249  0.00  0.00    +0.225 C 
ATOM     35  C   UNL     1     -10.791   3.388   1.752  0.00  0.00    +0.048 C 
ENDBRANCH  33  34
ENDBRANCH  25  33
ENDBRANCH  20  21
ENDBRANCH   1  20
TORSDOF 12
