REMARK  Name = ZINC38555966
REMARK  4 active torsions:
REMARK  status: ('A' for Active; 'I' for Inactive)
REMARK    1  A    between atoms: C_1  and  C_2
REMARK    2  A    between atoms: C_5  and  N_8
REMARK    3  A    between atoms: C_9  and  O_33
REMARK    4  A    between atoms: C_11  and  C_18
REMARK                            x       y       z     vdW  Elec       q    Type
REMARK                         _______ _______ _______ _____ _____    ______ ____
ROOT
ATOM      1  N   UNL     1       0.058  -4.170  -0.021  0.00  0.00    -0.228 N 
ATOM      2  C   UNL     1       0.179  -4.897   1.244  0.00  0.00    +0.225 C 
ATOM      3  C   UNL     1      -0.658  -6.177   1.180  0.00  0.00    +0.145 C 
ATOM      4  C   UNL     1      -0.386  -6.882  -0.125  0.00  0.00    +0.229 C 
ATOM      5  O   UNL     1      -0.394  -8.093  -0.173  0.00  0.00    -0.275 OA
ATOM      6  N   UNL     1      -0.136  -6.165  -1.236  0.00  0.00    -0.239 N 
ATOM      7  C   UNL     1      -0.041  -4.827  -1.188  0.00  0.00    +0.315 C 
ATOM      8  O   UNL     1      -0.040  -4.195  -2.226  0.00  0.00    -0.252 OA
ATOM      9  H   UNL     1      -0.026  -6.623  -2.085  0.00  0.00    +0.159 HD
ENDROOT
BRANCH   3  10
ATOM     10  C   UNL     1      -2.143  -5.822   1.271  0.00  0.00    +0.117 C 
ATOM     11  C   UNL     1      -2.966  -7.087   1.322  0.00  0.00    +0.038 A 
ATOM     12  H   UNL     1      -1.952  -8.329   2.653  0.00  0.00    +0.166 HD
ATOM     13  C   UNL     1      -4.101  -7.257   0.608  0.00  0.00    -0.016 A 
ATOM     14  C   UNL     1      -4.603  -8.579   0.910  0.00  0.00    +0.003 A 
ATOM     15  C   UNL     1      -5.723  -9.293   0.476  0.00  0.00    +0.010 A 
ATOM     16  C   UNL     1      -5.890 -10.558   0.985  0.00  0.00    +0.001 A 
ATOM     17  C   UNL     1      -4.997 -11.112   1.887  0.00  0.00    +0.002 A 
ATOM     18  C   UNL     1      -3.880 -10.428   2.334  0.00  0.00    +0.026 A 
ATOM     19  C   UNL     1      -3.684  -9.142   1.835  0.00  0.00    +0.047 A 
ATOM     20  N   UNL     1      -2.710  -8.211   2.059  0.00  0.00    -0.356 N 
ATOM     21  C   UNL     1      -4.672  -6.206  -0.310  0.00  0.00    +0.052 C 
ATOM     22  C   UNL     1      -3.999  -4.868   0.025  0.00  0.00    +0.086 C 
ATOM     23  N   UNL     1      -2.541  -5.049   0.083  0.00  0.00    -0.307 NA
ATOM     24  H   UNL     1      -2.061  -4.162   0.051  0.00  0.00    +0.123 HD
ENDBRANCH   3  10
BRANCH   1  29
ATOM     25  C   UNL     1      -0.016   1.503   0.011  0.00  0.00    +0.044 C 
ATOM     26  C   UNL     1       0.004  -0.004   0.003  0.00  0.00    -0.050 A 
ATOM     27  C   UNL     1      -1.016  -0.711   0.613  0.00  0.00    +0.005 A 
ATOM     28  C   UNL     1      -1.001  -2.092   0.607  0.00  0.00    +0.024 A 
ATOM     29  C   UNL     1       0.040  -2.771  -0.013  0.00  0.00    +0.040 A 
ATOM     30  C   UNL     1       1.062  -2.058  -0.625  0.00  0.00    +0.024 A 
ATOM     31  C   UNL     1       1.038  -0.677  -0.620  0.00  0.00    +0.005 A 
ENDBRANCH   1  29
BRANCH   2  32
ATOM     32  O   UNL     1       1.549  -5.235   1.470  0.00  0.00    -0.373 OA
ATOM     33  H   UNL     1       2.139  -4.471   1.523  0.00  0.00    +0.212 HD
ENDBRANCH   2  32
TORSDOF 3
