REMARK  Name = ZINC40744469
REMARK  10 active torsions:
REMARK  status: ('A' for Active; 'I' for Inactive)
REMARK    1  A    between atoms: C_1  and  C_2
REMARK    2  A    between atoms: C_2  and  C_3
REMARK    3  A    between atoms: C_2  and  O_4
REMARK    4  A    between atoms: O_4  and  C_5
REMARK    5  A    between atoms: C_10  and  C_11
REMARK    6  A    between atoms: C_11  and  N_12
REMARK    7  A    between atoms: N_12  and  C_13
REMARK    8  A    between atoms: C_13  and  C_14
REMARK    9  A    between atoms: C_14  and  N_15
REMARK   10  A    between atoms: C_16  and  C_18
REMARK                            x       y       z     vdW  Elec       q    Type
REMARK                         _______ _______ _______ _____ _____    ______ ____
ROOT
ATOM      1  N   UNL     1      -4.401  -0.237  -1.006  0.00  0.00    +0.383 N 
ATOM      2  H   UNL     1      -3.612   0.384  -1.111  0.00  0.00    -0.085 HD
ATOM      3  H   UNL     1      -4.688  -0.573  -1.913  0.00  0.00    -0.085 HD
ENDROOT
BRANCH   1   4
ATOM      4  C   UNL     1      -4.018  -1.376  -0.161  0.00  0.00    -0.043 C 
BRANCH   4  10
ATOM      5  C   UNL     1      -1.580  -1.639  -0.686  0.00  0.00    +0.122 A 
ATOM      6  C   UNL     1      -0.530  -2.328  -1.276  0.00  0.00    +0.047 A 
ATOM      7  C   UNL     1      -0.778  -3.487  -1.986  0.00  0.00    +0.019 A 
ATOM      8  C   UNL     1      -2.072  -3.961  -2.109  0.00  0.00    +0.018 A 
ATOM      9  C   UNL     1      -3.120  -3.275  -1.522  0.00  0.00    +0.020 A 
ATOM     10  C   UNL     1      -2.876  -2.119  -0.806  0.00  0.00    -0.022 A 
ATOM     11 BR   UNL     1      -2.409  -5.548  -3.081  0.00  0.00    -0.050 Br
BRANCH   5  12
ATOM     12  O   UNL     1      -1.339  -0.499   0.012  0.00  0.00    -0.489 OA
BRANCH  12  14
ATOM     13  C   UNL     1      -0.011   1.505   0.263  0.00  0.00    +0.051 C 
ATOM     14  C   UNL     1       0.001  -0.002  -0.000  0.00  0.00    +0.167 C 
ATOM     15  C   UNL     1       0.815  -0.703   1.089  0.00  0.00    +0.051 C 
ENDBRANCH  12  14
ENDBRANCH   5  12
ENDBRANCH   4  10
ENDBRANCH   1   4
BRANCH   1  16
ATOM     16  C   UNL     1      -5.513   0.487  -0.377  0.00  0.00    -0.063 C 
BRANCH  16  17
ATOM     17  C   UNL     1      -5.912   1.673  -1.258  0.00  0.00    +0.085 C 
BRANCH  17  18
ATOM     18  N   UNL     1      -7.022   2.396  -0.630  0.00  0.00    -0.312 N 
ATOM     19  C   UNL     1      -7.542   3.484  -1.231  0.00  0.00    +0.269 C 
ATOM     20  O   UNL     1      -7.091   3.867  -2.292  0.00  0.00    -0.268 OA
ATOM     21  H   UNL     1      -7.382   2.090   0.217  0.00  0.00    +0.149 HD
BRANCH  19  22
ATOM     22  C   UNL     1      -8.664   4.214  -0.597  0.00  0.00    +0.209 A 
ATOM     23  C   UNL     1      -9.330   5.405  -1.137  0.00  0.00    +0.192 A 
ATOM     24  N   UNL     1     -10.268   5.765  -0.303  0.00  0.00    -0.033 NA
ATOM     25  O   UNL     1     -10.258   4.855   0.782  0.00  0.00    -0.240 OA
ATOM     26  N   UNL     1      -9.236   3.905   0.538  0.00  0.00    -0.042 NA
ATOM     27  N   UNL     1      -9.015   6.041  -2.330  0.00  0.00    -0.339 N 
ATOM     28  H   UNL     1      -8.298   5.700  -2.887  0.00  0.00    +0.144 HD
ATOM     29  H   UNL     1      -9.513   6.826  -2.607  0.00  0.00    +0.144 HD
ENDBRANCH  19  22
ENDBRANCH  17  18
ENDBRANCH  16  17
ENDBRANCH   1  16
TORSDOF 8
