REMARK  Name = ZINC08586304
REMARK  9 active torsions:
REMARK  status: ('A' for Active; 'I' for Inactive)
REMARK    1  A    between atoms: C_1  and  O_2
REMARK    2  A    between atoms: O_2  and  C_3
REMARK    3  A    between atoms: C_7  and  C_16
REMARK    4  A    between atoms: C_8  and  O_15
REMARK    5  A    between atoms: C_12  and  O_13
REMARK    6  A    between atoms: O_13  and  C_14
REMARK    7  A    between atoms: C_16  and  C_18
REMARK    8  A    between atoms: C_16  and  N_65
REMARK    9  A    between atoms: N_22  and  C_23
REMARK                            x       y       z     vdW  Elec       q    Type
REMARK                         _______ _______ _______ _____ _____    ______ ____
ROOT
ATOM      1  C   UNL     1       3.608   2.245  -0.019  0.00  0.00    +0.039 C 
ENDROOT
BRANCH   1   6
ATOM      2  C   UNL     1       1.283  -3.435   0.305  0.00  0.00    +0.162 A 
ATOM      3  C   UNL     1       2.278  -2.504   0.243  0.00  0.00    +0.059 A 
ATOM      4  C   UNL     1       1.951  -1.139   0.178  0.00  0.00    +0.005 A 
ATOM      5  C   UNL     1       2.953  -0.152   0.113  0.00  0.00    +0.017 A 
ATOM      6  C   UNL     1       2.569   1.155   0.052  0.00  0.00    +0.008 A 
ATOM      7  C   UNL     1       1.209   1.484   0.055  0.00  0.00    +0.215 A 
ATOM      8  N   UNL     1       0.277   0.557   0.117  0.00  0.00    -0.213 NA
ATOM      9  C   UNL     1       0.591  -0.742   0.178  0.00  0.00    +0.079 A 
ATOM     10  C   UNL     1      -0.410  -1.724   0.243  0.00  0.00    +0.077 A 
ATOM     11  C   UNL     1      -0.064  -3.043   0.305  0.00  0.00    +0.164 A 
BRANCH   2  13
ATOM     12  C   UNL     1       2.989  -5.090   0.364  0.00  0.00    +0.277 C 
ATOM     13  O   UNL     1       1.599  -4.755   0.367  0.00  0.00    -0.491 OA
ENDBRANCH   2  13
BRANCH  11  14
ATOM     14  O   UNL     1      -1.037  -3.990   0.368  0.00  0.00    -0.491 OA
ATOM     15  C   UNL     1      -2.390  -3.530   0.365  0.00  0.00    +0.277 C 
ENDBRANCH  11  14
BRANCH   7  16
ATOM     16  O   UNL     1       0.843   2.788  -0.006  0.00  0.00    -0.492 OA
ATOM     17  H   UNL     1       0.750   3.211   0.859  0.00  0.00    +0.294 HD
ENDBRANCH   7  16
ENDBRANCH   1   6
BRANCH   1  24
ATOM     18  C   UNL     1       5.973   2.631  -0.426  0.00  0.00    -0.077 C 
ATOM     19  C   UNL     1       7.170   2.276  -1.265  0.00  0.00    -0.019 C 
ATOM     20  C   UNL     1       7.117   3.102  -2.568  0.00  0.00    -0.002 C 
ATOM     21  C   UNL     1       6.175   2.547  -3.533  0.00  0.00    -0.002 C 
ATOM     22  C   UNL     1       4.730   2.524  -2.992  0.00  0.00    -0.019 C 
ATOM     23  C   UNL     1       4.589   1.354  -2.057  0.00  0.00    -0.077 C 
ATOM     24  N   UNL     1       4.830   1.673  -0.608  0.00  0.00    +0.389 N 
ATOM     25  H   UNL     1       5.057   0.800  -0.118  0.00  0.00    -0.080 HD
ENDBRANCH   1  24
BRANCH   1  26
ATOM     26  C   UNL     1       3.924   2.731   1.372  0.00  0.00    +0.143 A 
ATOM     27  N   UNL     1       4.509   2.048   2.325  0.00  0.00    -0.115 NA
ATOM     28  N   UNL     1       4.599   2.808   3.361  0.00  0.00    -0.023 NA
ATOM     29  N   UNL     1       4.087   3.958   3.094  0.00  0.00    -0.044 NA
ATOM     30  N   UNL     1       3.664   3.952   1.875  0.00  0.00    -0.227 N 
BRANCH  30  31
ATOM     31  C   UNL     1       3.019   5.063   1.171  0.00  0.00    +0.111 C 
ATOM     32  C   UNL     1       3.950   6.294   1.162  0.00  0.00    +0.027 C 
ATOM     33  C   UNL     1       2.989   7.497   1.331  0.00  0.00    +0.002 C 
ATOM     34  C   UNL     1       1.936   6.957   2.330  0.00  0.00    +0.002 C 
ATOM     35  C   UNL     1       1.739   5.485   1.913  0.00  0.00    +0.027 C 
ENDBRANCH  30  31
ENDBRANCH   1  26
TORSDOF 7
