REMARK  Name = ZINC12466970
REMARK  16 active torsions:
REMARK  status: ('A' for Active; 'I' for Inactive)
REMARK    1  A    between atoms: C_1  and  N_75
REMARK    2  A    between atoms: C_2  and  C_3
REMARK    3  A    between atoms: C_2  and  N_75
REMARK    4  A    between atoms: C_3  and  C_5
REMARK    5  A    between atoms: C_3  and  O_26
REMARK    6  A    between atoms: C_5  and  O_6
REMARK    7  A    between atoms: O_6  and  C_7
REMARK    8  A    between atoms: C_10  and  O_13
REMARK    9  A    between atoms: O_13  and  C_14
REMARK   10  A    between atoms: C_14  and  C_15
REMARK   11  A    between atoms: C_15  and  C_17
REMARK   12  A    between atoms: C_15  and  O_25
REMARK   13  A    between atoms: C_17  and  N_77
REMARK   14  A    between atoms: C_18  and  N_77
REMARK   15  A    between atoms: C_19  and  N_77
REMARK   16  A    between atoms: C_27  and  N_75
REMARK                            x       y       z     vdW  Elec       q    Type
REMARK                         _______ _______ _______ _____ _____    ______ ____
ROOT
ATOM      1  C   UNL     1       1.246   2.000   0.663  0.00  0.00    +0.121 A 
ATOM      2  C   UNL     1       2.401   1.276   0.409  0.00  0.00    +0.049 A 
ATOM      3  C   UNL     1       3.620   1.922   0.341  0.00  0.00    +0.049 A 
ATOM      4  C   UNL     1       3.690   3.293   0.535  0.00  0.00    +0.121 A 
ATOM      5  C   UNL     1       2.536   4.017   0.795  0.00  0.00    +0.049 A 
ATOM      6  C   UNL     1       1.316   3.372   0.859  0.00  0.00    +0.049 A 
ENDROOT
BRANCH   1   7
ATOM      7  O   UNL     1       0.045   1.365   0.726  0.00  0.00    -0.489 OA
BRANCH   7   8
ATOM      8  C   UNL     1       0.047  -0.048   0.514  0.00  0.00    +0.258 C 
BRANCH   8   9
ATOM      9  C   UNL     1      -1.383  -0.582   0.622  0.00  0.00    +0.135 C 
BRANCH   9  10
ATOM     10  O   UNL     1      -1.860  -0.400   1.957  0.00  0.00    -0.390 OA
ATOM     11  H   UNL     1      -1.334  -0.855   2.628  0.00  0.00    +0.210 HD
ENDBRANCH   9  10
BRANCH   9  12
ATOM     12  C   UNL     1      -1.399  -2.071   0.274  0.00  0.00    -0.044 C 
BRANCH  12  14
ATOM     13  C   UNL     1      -3.551  -1.934  -0.829  0.00  0.00    -0.096 C 
ATOM     14  N   UNL     1      -2.798  -2.548   0.285  0.00  0.00    +0.381 N 
ATOM     15  H   UNL     1      -3.236  -2.277   1.173  0.00  0.00    -0.082 HD
BRANCH  14  16
ATOM     16  C   UNL     1      -2.831  -4.021   0.165  0.00  0.00    -0.069 C 
ATOM     17  C   UNL     1      -2.254  -4.462  -1.182  0.00  0.00    -0.015 C 
ATOM     18  C   UNL     1      -2.301  -5.988  -1.282  0.00  0.00    -0.002 C 
ATOM     19  C   UNL     1      -3.751  -6.463  -1.167  0.00  0.00    -0.000 C 
ATOM     20  C   UNL     1      -4.327  -6.022   0.180  0.00  0.00    -0.002 C 
ATOM     21  C   UNL     1      -4.280  -4.496   0.279  0.00  0.00    -0.015 C 
ENDBRANCH  14  16
ENDBRANCH  12  14
ENDBRANCH   9  12
ENDBRANCH   8   9
ENDBRANCH   7   8
ENDBRANCH   1   7
BRANCH   4  22
ATOM     22  O   UNL     1       4.891   3.928   0.472  0.00  0.00    -0.489 OA
BRANCH  22  23
ATOM     23  C   UNL     1       6.038   3.121   0.201  0.00  0.00    +0.258 C 
BRANCH  23  24
ATOM     24  C   UNL     1       7.287   4.004   0.168  0.00  0.00    +0.135 C 
BRANCH  24  25
ATOM     25  O   UNL     1       7.513   4.559   1.465  0.00  0.00    -0.390 OA
ATOM     26  H   UNL     1       7.650   3.898   2.157  0.00  0.00    +0.210 HD
ENDBRANCH  24  25
BRANCH  24  27
ATOM     27  C   UNL     1       8.497   3.163  -0.245  0.00  0.00    -0.044 C 
BRANCH  27  29
ATOM     28  C   UNL     1      10.916   3.213  -0.336  0.00  0.00    -0.096 C 
ATOM     29  N   UNL     1       9.688   4.036  -0.293  0.00  0.00    +0.381 N 
ATOM     30  H   UNL     1       9.708   4.620   0.550  0.00  0.00    -0.082 HD
BRANCH  29  31
ATOM     31  C   UNL     1       9.625   4.911  -1.483  0.00  0.00    -0.069 C 
ATOM     32  C   UNL     1       9.670   4.078  -2.765  0.00  0.00    -0.015 C 
ATOM     33  C   UNL     1       9.605   5.006  -3.979  0.00  0.00    -0.002 C 
ATOM     34  C   UNL     1      10.796   5.966  -3.952  0.00  0.00    -0.000 C 
ATOM     35  C   UNL     1      10.751   6.799  -2.670  0.00  0.00    -0.002 C 
ATOM     36  C   UNL     1      10.817   5.870  -1.456  0.00  0.00    -0.015 C 
ENDBRANCH  29  31
ENDBRANCH  27  29
ENDBRANCH  24  27
ENDBRANCH  23  24
ENDBRANCH  22  23
ENDBRANCH   4  22
TORSDOF 14
