REMARK  Name = ZINC09136079
REMARK  7 active torsions:
REMARK  status: ('A' for Active; 'I' for Inactive)
REMARK    1  A    between atoms: C_7  and  C_11
REMARK    2  A    between atoms: C_11  and  C_12
REMARK    3  A    between atoms: C_12  and  C_14
REMARK    4  A    between atoms: C_12  and  N_24
REMARK    5  A    between atoms: C_20  and  C_22
REMARK    6  A    between atoms: C_22  and  O_23
REMARK    7  A    between atoms: C_34  and  O_35
REMARK                            x       y       z     vdW  Elec       q    Type
REMARK                         _______ _______ _______ _____ _____    ______ ____
ROOT
ATOM      1  C   UNL     1       0.121   3.676  -0.005  0.00  0.00    +0.185 C 
ENDROOT
BRANCH   1   2
ATOM      2  N   UNL     1       1.384   3.061   0.412  0.00  0.00    -0.250 N 
ATOM      3  C   UNL     1       2.481   3.834   0.587  0.00  0.00    +0.265 A 
ATOM      4  O   UNL     1       2.441   5.037   0.403  0.00  0.00    -0.267 OA
ATOM      5  C   UNL     1       3.721   3.168   1.006  0.00  0.00    +0.065 A 
ATOM      6  C   UNL     1       4.905   3.874   1.213  0.00  0.00    +0.015 A 
ATOM      7  C   UNL     1       6.030   3.203   1.604  0.00  0.00    +0.001 A 
ATOM      8  C   UNL     1       6.005   1.827   1.796  0.00  0.00    +0.002 A 
ATOM      9  C   UNL     1       4.859   1.111   1.600  0.00  0.00    +0.029 A 
ATOM     10  C   UNL     1       3.692   1.768   1.201  0.00  0.00    +0.081 A 
ATOM     11  N   UNL     1       2.531   1.099   1.000  0.00  0.00    -0.196 NA
ATOM     12  C   UNL     1       1.443   1.716   0.622  0.00  0.00    +0.300 A 
BRANCH  12  13
ATOM     13  O   UNL     1       0.323   0.987   0.436  0.00  0.00    -0.479 OA
ATOM     14  H   UNL     1       0.437   0.041   0.602  0.00  0.00    +0.295 HD
ENDBRANCH  12  13
ENDBRANCH   1   2
BRANCH   1  15
ATOM     15  C   UNL     1      -0.933   3.420   1.041  0.00  0.00    +0.239 C 
ATOM     16  O   UNL     1      -0.763   2.554   1.874  0.00  0.00    -0.273 OA
ATOM     17  N   UNL     1      -2.064   4.152   1.052  0.00  0.00    -0.295 N 
ATOM     18  C   UNL     1      -2.439   5.169   0.052  0.00  0.00    +0.108 C 
ATOM     19  C   UNL     1      -3.986   5.247   0.131  0.00  0.00    +0.021 C 
ATOM     20  C   UNL     1      -4.227   5.074   1.654  0.00  0.00    +0.026 C 
ATOM     21  C   UNL     1      -3.125   4.075   2.067  0.00  0.00    +0.101 C 
BRANCH  21  22
ATOM     22  C   UNL     1      -2.563   4.457   3.438  0.00  0.00    +0.178 C 
BRANCH  22  23
ATOM     23  O   UNL     1      -2.161   5.828   3.422  0.00  0.00    -0.393 OA
ATOM     24  H   UNL     1      -1.794   6.140   4.261  0.00  0.00    +0.209 HD
ENDBRANCH  22  23
ENDBRANCH  21  22
ENDBRANCH   1  15
BRANCH   1  25
ATOM     25  C   UNL     1      -0.325   3.070  -1.337  0.00  0.00    +0.072 C 
BRANCH  25  32
ATOM     26  C   UNL     1       3.748   1.257  -2.784  0.00  0.00    +0.001 A 
ATOM     27  C   UNL     1       4.311   1.964  -3.838  0.00  0.00    +0.002 A 
ATOM     28  C   UNL     1       3.681   3.074  -4.355  0.00  0.00    +0.026 A 
ATOM     29  C   UNL     1       2.468   3.494  -3.817  0.00  0.00    +0.047 A 
ATOM     30  C   UNL     1       1.903   2.774  -2.749  0.00  0.00    +0.003 A 
ATOM     31  C   UNL     1       2.558   1.651  -2.240  0.00  0.00    +0.010 A 
ATOM     32  C   UNL     1       0.650   3.458  -2.418  0.00  0.00    -0.020 A 
ATOM     33  C   UNL     1       0.534   4.494  -3.264  0.00  0.00    +0.087 A 
ATOM     34  N   UNL     1       1.614   4.534  -4.104  0.00  0.00    -0.360 N 
ATOM     35  H   UNL     1       1.754   5.195  -4.799  0.00  0.00    +0.165 HD
ENDBRANCH  25  32
ENDBRANCH   1  25
TORSDOF 7
