REMARK  Name = ZINC09359166
REMARK  6 active torsions:
REMARK  status: ('A' for Active; 'I' for Inactive)
REMARK    1  A    between atoms: C_1  and  C_2
REMARK    2  A    between atoms: C_2  and  C_3
REMARK    3  A    between atoms: C_4  and  O_17
REMARK    4  A    between atoms: N_8  and  C_11
REMARK    5  A    between atoms: N_18  and  C_19
REMARK    6  A    between atoms: C_25  and  N_53
REMARK                            x       y       z     vdW  Elec       q    Type
REMARK                         _______ _______ _______ _____ _____    ______ ____
ROOT
ATOM      1  C   UNL     1      -2.711   7.169  -0.120  0.00  0.00    +0.202 C 
ATOM      2  C   UNL     1      -1.420   7.773  -0.474  0.00  0.00    +0.198 C 
ATOM      3  N   UNL     1      -0.378   6.977  -0.653  0.00  0.00    -0.131 NA
ATOM      4  C   UNL     1      -0.468   5.657  -0.516  0.00  0.00    +0.335 C 
ATOM      5  O   UNL     1       0.537   4.990  -0.692  0.00  0.00    -0.250 OA
ATOM      6  N   UNL     1      -1.605   5.019  -0.200  0.00  0.00    -0.220 N 
ATOM      7  C   UNL     1      -2.750   5.702   0.013  0.00  0.00    +0.241 C 
ATOM      8  O   UNL     1      -3.781   5.124   0.304  0.00  0.00    -0.274 OA
ENDROOT
BRANCH   6   9
ATOM      9  C   UNL     1      -1.602   3.559  -0.078  0.00  0.00    +0.086 C 
ATOM     10  C   UNL     1      -1.185   2.936  -1.411  0.00  0.00    +0.023 C 
ATOM     11  C   UNL     1      -1.182   1.412  -1.284  0.00  0.00    +0.002 C 
ATOM     12  C   UNL     1      -0.194   0.993  -0.194  0.00  0.00    +0.000 C 
ATOM     13  C   UNL     1      -0.611   1.616   1.140  0.00  0.00    +0.002 C 
ATOM     14  C   UNL     1      -0.613   3.140   1.012  0.00  0.00    +0.023 C 
ENDBRANCH   6   9
BRANCH   1  16
ATOM     15  C   UNL     1      -5.190   7.287   0.234  0.00  0.00    +0.061 C 
ATOM     16  C   UNL     1      -3.842   7.945   0.082  0.00  0.00    +0.031 C 
ATOM     17  N   UNL     1      -3.738   9.286   0.141  0.00  0.00    -0.290 NA
BRANCH  17  18
ATOM     18  C   UNL     1      -4.945  10.112   0.220  0.00  0.00    +0.091 C 
ATOM     19  C   UNL     1      -5.388  10.229   1.679  0.00  0.00    +0.025 C 
ATOM     20  C   UNL     1      -6.648  11.092   1.762  0.00  0.00    +0.002 C 
ATOM     21  C   UNL     1      -6.349  12.486   1.207  0.00  0.00    -0.001 C 
ATOM     22  C   UNL     1      -5.906  12.369  -0.253  0.00  0.00    -0.014 C 
ATOM     23  C   UNL     1      -4.646  11.506  -0.336  0.00  0.00    -0.050 C 
BRANCH  23  26
ATOM     24  H   UNL     1      -4.017  12.302  -2.128  0.00  0.00    -0.090 HD
ATOM     25  H   UNL     1      -3.427  10.776  -1.826  0.00  0.00    -0.090 HD
ATOM     26  N   UNL     1      -4.241  11.383  -1.748  0.00  0.00    +0.381 N 
ATOM     27  H   UNL     1      -5.016  10.978  -2.287  0.00  0.00    -0.090 HD
ENDBRANCH  23  26
ENDBRANCH  17  18
ENDBRANCH   1  16
BRANCH   2  28
ATOM     28  O   UNL     1      -1.298   9.110  -0.615  0.00  0.00    -0.496 OA
ATOM     29  H   UNL     1      -0.406   9.401  -0.849  0.00  0.00    +0.293 HD
ENDBRANCH   2  28
TORSDOF 5
