REMARK  Name = ZINC00087103
REMARK  3 active torsions:
REMARK  status: ('A' for Active; 'I' for Inactive)
REMARK    1  A    between atoms: C_4  and  C_7
REMARK    2  A    between atoms: N_18  and  C_19
REMARK    3  A    between atoms: C_22  and  O_25
REMARK                            x       y       z     vdW  Elec       q    Type
REMARK                         _______ _______ _______ _____ _____    ______ ____
ROOT
ATOM      1  C   UNL     1       3.644  -0.695  -0.026  0.00  0.00    +0.198 C 
ATOM      2  N   UNL     1       4.668   0.136   0.618  0.00  0.00    -0.321 N 
ATOM      3  C   UNL     1       4.729   0.166   2.006  0.00  0.00    +0.041 A 
ATOM      4  C   UNL     1       5.199   1.274   2.691  0.00  0.00    +0.024 A 
ATOM      5  C   UNL     1       5.251   1.253   4.072  0.00  0.00    +0.002 A 
ATOM      6  C   UNL     1       4.840   0.132   4.776  0.00  0.00    +0.001 A 
ATOM      7  C   UNL     1       4.366  -0.979   4.109  0.00  0.00    +0.015 A 
ATOM      8  C   UNL     1       4.302  -0.969   2.717  0.00  0.00    +0.058 A 
ATOM      9  C   UNL     1       3.781  -2.121   1.960  0.00  0.00    +0.254 C 
ATOM     10  O   UNL     1       3.558  -3.175   2.524  0.00  0.00    -0.270 OA
ATOM     11  N   UNL     1       3.555  -1.994   0.641  0.00  0.00    -0.244 N 
ATOM     12  H   UNL     1       5.290   0.654   0.084  0.00  0.00    +0.148 HD
ENDROOT
BRANCH   1  16
ATOM     13  C   UNL     1      -0.137   1.279   0.212  0.00  0.00    +0.000 A 
ATOM     14  C   UNL     1       1.029   2.021   0.162  0.00  0.00    +0.000 A 
ATOM     15  C   UNL     1       2.252   1.382   0.085  0.00  0.00    +0.007 A 
ATOM     16  C   UNL     1       2.310   0.002   0.059  0.00  0.00    -0.009 A 
ATOM     17  C   UNL     1       1.145  -0.740   0.110  0.00  0.00    +0.007 A 
ATOM     18  C   UNL     1      -0.079  -0.102   0.185  0.00  0.00    +0.000 A 
ENDBRANCH   1  16
BRANCH  11  19
ATOM     19  C   UNL     1       3.226  -3.131  -0.108  0.00  0.00    +0.039 A 
ATOM     20  C   UNL     1       4.017  -3.505  -1.187  0.00  0.00    +0.027 A 
ATOM     21  C   UNL     1       3.692  -4.626  -1.924  0.00  0.00    +0.047 A 
ATOM     22  C   UNL     1       2.576  -5.379  -1.588  0.00  0.00    +0.117 A 
ATOM     23  C   UNL     1       1.786  -5.006  -0.510  0.00  0.00    +0.047 A 
ATOM     24  C   UNL     1       2.113  -3.888   0.232  0.00  0.00    +0.027 A 
BRANCH  22  25
ATOM     25  O   UNL     1       2.257  -6.482  -2.315  0.00  0.00    -0.507 OA
ATOM     26  H   UNL     1       2.661  -7.298  -1.990  0.00  0.00    +0.292 HD
ENDBRANCH  22  25
ENDBRANCH  11  19
TORSDOF 3
