REMARK  Name = ZINC35929502
REMARK  6 active torsions:
REMARK  status: ('A' for Active; 'I' for Inactive)
REMARK    1  A    between atoms: C_4  and  C_7
REMARK    2  A    between atoms: C_9  and  N_32
REMARK    3  A    between atoms: N_10  and  C_25
REMARK    4  A    between atoms: N_16  and  C_17
REMARK    5  A    between atoms: C_17  and  C_18
REMARK    6  A    between atoms: C_18  and  C_19
REMARK                            x       y       z     vdW  Elec       q    Type
REMARK                         _______ _______ _______ _____ _____    ______ ____
ROOT
ATOM      1  C   UNL     1       3.779  -0.554   0.167  0.00  0.00    +0.089 A 
ATOM      2  C   UNL     1       3.921  -1.799   0.820  0.00  0.00    +0.086 A 
ATOM      3  C   UNL     1       3.107  -2.615   1.597  0.00  0.00    +0.131 A 
ATOM      4  N   UNL     1       3.828  -3.701   1.937  0.00  0.00    -0.216 N 
ATOM      5  N   UNL     1       5.113  -3.610   1.390  0.00  0.00    -0.144 NA
ATOM      6  C   UNL     1       5.220  -2.488   0.712  0.00  0.00    +0.189 A 
ATOM      7  N   UNL     1       6.193  -1.890  -0.003  0.00  0.00    -0.193 NA
ATOM      8  C   UNL     1       5.974  -0.727  -0.580  0.00  0.00    +0.218 A 
ATOM      9  N   UNL     1       4.816  -0.077  -0.509  0.00  0.00    -0.214 NA
ATOM     10  N   UNL     1       7.003  -0.151  -1.302  0.00  0.00    -0.313 N 
ATOM     11  H   UNL     1       6.871   0.705  -1.738  0.00  0.00    +0.149 HD
ENDROOT
BRANCH   4  12
ATOM     12  C   UNL     1       3.361  -4.763   2.720  0.00  0.00    +0.068 A 
ATOM     13  C   UNL     1       2.469  -4.522   3.758  0.00  0.00    +0.029 A 
ATOM     14  C   UNL     1       2.010  -5.572   4.529  0.00  0.00    +0.022 A 
ATOM     15  C   UNL     1       2.438  -6.862   4.270  0.00  0.00    +0.041 A 
ATOM     16  C   UNL     1       3.326  -7.104   3.237  0.00  0.00    +0.022 A 
ATOM     17  C   UNL     1       3.784  -6.060   2.458  0.00  0.00    +0.029 A 
ATOM     18 CL   UNL     1       1.859  -8.178   5.243  0.00  0.00    -0.084 Cl
ENDBRANCH   4  12
BRANCH   1  22
ATOM     19  C   UNL     1       0.120   1.599   0.351  0.00  0.00    +0.000 A 
ATOM     20  C   UNL     1       0.658   1.054   1.504  0.00  0.00    +0.001 A 
ATOM     21  C   UNL     1       1.845   0.354   1.451  0.00  0.00    +0.010 A 
ATOM     22  C   UNL     1       2.504   0.196   0.231  0.00  0.00    +0.001 A 
ATOM     23  C   UNL     1       1.956   0.747  -0.928  0.00  0.00    +0.010 A 
ATOM     24  C   UNL     1       0.768   1.445  -0.861  0.00  0.00    +0.001 A 
ENDBRANCH   1  22
BRANCH   3  25
ATOM     25  N   UNL     1       1.797  -2.358   1.955  0.00  0.00    -0.342 N 
ATOM     26  H   UNL     1       1.313  -1.630   1.535  0.00  0.00    +0.144 HD
ATOM     27  H   UNL     1       1.362  -2.906   2.626  0.00  0.00    +0.144 HD
ENDBRANCH   3  25
BRANCH  10  28
ATOM     28  C   UNL     1       8.294  -0.835  -1.410  0.00  0.00    +0.110 C 
BRANCH  28  29
ATOM     29  C   UNL     1       9.250   0.008  -2.257  0.00  0.00    +0.074 C 
BRANCH  29  30
ATOM     30  C   UNL     1      10.578  -0.695  -2.367  0.00  0.00    +0.043 A 
ATOM     31  C   UNL     1      11.112  -0.954  -3.616  0.00  0.00    +0.023 A 
ATOM     32  C   UNL     1      12.334  -1.601  -3.707  0.00  0.00    +0.003 A 
ATOM     33  C   UNL     1      12.976  -1.967  -2.533  0.00  0.00    +0.020 A 
ATOM     34  C   UNL     1      12.381  -1.675  -1.321  0.00  0.00    +0.111 A 
ATOM     35  N   UNL     1      11.219  -1.053  -1.272  0.00  0.00    -0.260 NA
ENDBRANCH  29  30
ENDBRANCH  28  29
ENDBRANCH  10  28
TORSDOF 6
