REMARK  Name = ZINC06819928
REMARK  4 active torsions:
REMARK  status: ('A' for Active; 'I' for Inactive)
REMARK    1  A    between atoms: C_3  and  C_8
REMARK    2  A    between atoms: N_14  and  C_15
REMARK    3  A    between atoms: C_15  and  C_16
REMARK    4  A    between atoms: C_16  and  C_17
REMARK                            x       y       z     vdW  Elec       q    Type
REMARK                         _______ _______ _______ _____ _____    ______ ____
ROOT
ATOM      1  C   UNL     1       3.672   2.184  -0.021  0.00  0.00    +0.203 C 
ATOM      2  N   UNL     1       3.494   3.455   0.690  0.00  0.00    -0.336 N 
ATOM      3  C   UNL     1       3.767   3.543   1.964  0.00  0.00    +0.191 C 
ATOM      4  N   UNL     1       4.256   2.502   2.660  0.00  0.00    -0.187 NA
ATOM      5  C   UNL     1       4.719   1.431   2.043  0.00  0.00    +0.185 C 
ATOM      6  N   UNL     1       4.715   1.410   0.669  0.00  0.00    -0.279 N 
ATOM      7  N   UNL     1       5.192   0.365   2.756  0.00  0.00    -0.331 N 
ATOM      8  N   UNL     1       3.546   4.739   2.616  0.00  0.00    -0.329 N 
ATOM      9  H   UNL     1       5.190   0.390   3.726  0.00  0.00    +0.145 HD
ATOM     10  H   UNL     1       5.529  -0.417   2.292  0.00  0.00    +0.145 HD
ATOM     11  H   UNL     1       3.194   5.500   2.127  0.00  0.00    +0.145 HD
ATOM     12  H   UNL     1       3.744   4.820   3.562  0.00  0.00    +0.145 HD
ATOM     13  H   UNL     1       3.172   4.235   0.211  0.00  0.00    +0.164 HD
ENDROOT
BRANCH   1  16
ATOM     14  C   UNL     1      -0.017   1.378   0.010  0.00  0.00    +0.002 A 
ATOM     15  C   UNL     1       1.171   2.086   0.002  0.00  0.00    +0.007 A 
ATOM     16  C   UNL     1       2.378   1.412  -0.013  0.00  0.00    -0.006 A 
ATOM     17  C   UNL     1       2.398   0.029  -0.021  0.00  0.00    +0.027 A 
ATOM     18  C   UNL     1       1.210  -0.679  -0.013  0.00  0.00    +0.041 A 
ATOM     19  C   UNL     1       0.002  -0.004   0.002  0.00  0.00    +0.020 A 
ATOM     20 CL   UNL     1       1.234  -2.415  -0.024  0.00  0.00    -0.084 Cl
ENDBRANCH   1  16
BRANCH   6  21
ATOM     21  C   UNL     1       5.715   0.646  -0.082  0.00  0.00    +0.115 C 
BRANCH  21  22
ATOM     22  C   UNL     1       6.930   1.532  -0.362  0.00  0.00    +0.054 C 
BRANCH  22  23
ATOM     23  C   UNL     1       7.957   0.746  -1.135  0.00  0.00    -0.046 A 
ATOM     24  C   UNL     1       8.924   0.023  -0.461  0.00  0.00    +0.006 A 
ATOM     25  C   UNL     1       9.866  -0.699  -1.168  0.00  0.00    +0.038 A 
ATOM     26  C   UNL     1       9.843  -0.697  -2.552  0.00  0.00    +0.123 A 
ATOM     27  C   UNL     1       8.875   0.027  -3.227  0.00  0.00    +0.038 A 
ATOM     28  C   UNL     1       7.930   0.744  -2.517  0.00  0.00    +0.006 A 
ATOM     29  F   UNL     1      10.764  -1.402  -3.245  0.00  0.00    -0.205 F 
ENDBRANCH  22  23
ENDBRANCH  21  22
ENDBRANCH   6  21
TORSDOF 4
