REMARK  Name = ZINC11783742
REMARK  13 active torsions:
REMARK  status: ('A' for Active; 'I' for Inactive)
REMARK    1  A    between atoms: C_1  and  O_2
REMARK    2  A    between atoms: O_2  and  C_3
REMARK    3  A    between atoms: C_5  and  C_13
REMARK    4  A    between atoms: C_6  and  O_11
REMARK    5  A    between atoms: C_8  and  O_9
REMARK    6  A    between atoms: O_9  and  C_10
REMARK    7  A    between atoms: O_11  and  C_12
REMARK    8  A    between atoms: C_13  and  N_70
REMARK    9  A    between atoms: C_16  and  C_19
REMARK   10  A    between atoms: C_19  and  C_26
REMARK   11  A    between atoms: C_26  and  C_27
REMARK   12  A    between atoms: C_27  and  C_28
REMARK   13  A    between atoms: C_28  and  C_29
REMARK                            x       y       z     vdW  Elec       q    Type
REMARK                         _______ _______ _______ _____ _____    ______ ____
ROOT
ATOM      1  C   UNL     1      -5.561  -2.367   1.412  0.00  0.00    -0.078 C 
ATOM      2  C   UNL     1      -5.485  -3.760   2.042  0.00  0.00    -0.013 C 
ATOM      3  C   UNL     1      -6.884  -4.187   2.494  0.00  0.00    +0.018 C 
ATOM      4  C   UNL     1      -7.433  -3.151   3.478  0.00  0.00    -0.013 C 
ATOM      5  C   UNL     1      -7.453  -1.776   2.807  0.00  0.00    -0.078 C 
ATOM      6  N   UNL     1      -6.074  -1.413   2.418  0.00  0.00    +0.382 N 
ATOM      7  H   UNL     1      -5.472  -1.450   3.249  0.00  0.00    -0.081 HD
ENDROOT
BRANCH   3   8
ATOM      8  C   UNL     1      -6.804  -5.553   3.179  0.00  0.00    +0.115 C 
ATOM      9  C   UNL     1      -8.175  -5.989   3.659  0.00  0.00    +0.244 C 
ATOM     10  O   UNL     1      -9.158  -6.193   2.980  0.00  0.00    -0.273 OA
ATOM     11  N   UNL     1      -8.072  -6.104   4.998  0.00  0.00    -0.238 N 
ATOM     12  C   UNL     1      -6.840  -5.805   5.426  0.00  0.00    +0.307 C 
ATOM     13  O   UNL     1      -6.505  -5.837   6.594  0.00  0.00    -0.252 OA
ATOM     14  N   UNL     1      -6.015  -5.465   4.420  0.00  0.00    -0.285 N 
ATOM     15  H   UNL     1      -8.801  -6.372   5.579  0.00  0.00    +0.159 HD
ATOM     16  H   UNL     1      -5.082  -5.211   4.496  0.00  0.00    +0.151 HD
BRANCH   8  17
ATOM     17  C   UNL     1      -6.209  -6.596   2.231  0.00  0.00    +0.036 C 
BRANCH  17  18
ATOM     18  C   UNL     1      -6.141  -7.950   2.940  0.00  0.00    +0.007 C 
BRANCH  18  19
ATOM     19  C   UNL     1      -5.545  -8.992   1.992  0.00  0.00    +0.035 C 
BRANCH  19  20
ATOM     20  C   UNL     1      -5.478 -10.326   2.691  0.00  0.00    -0.047 A 
ATOM     21  C   UNL     1      -4.348 -10.676   3.405  0.00  0.00    +0.003 A 
ATOM     22  C   UNL     1      -4.288 -11.897   4.050  0.00  0.00    +0.000 A 
ATOM     23  C   UNL     1      -5.355 -12.773   3.972  0.00  0.00    +0.000 A 
ATOM     24  C   UNL     1      -6.483 -12.425   3.252  0.00  0.00    +0.000 A 
ATOM     25  C   UNL     1      -6.545 -11.202   2.612  0.00  0.00    +0.003 A 
ENDBRANCH  19  20
ENDBRANCH  18  19
ENDBRANCH  17  18
ENDBRANCH   8  17
ENDBRANCH   3   8
BRANCH   6  26
ATOM     26  C   UNL     1      -6.049  -0.041   1.870  0.00  0.00    -0.039 C 
BRANCH  26  29
ATOM     27  C   UNL     1      -2.687   1.575   2.470  0.00  0.00    +0.162 A 
ATOM     28  C   UNL     1      -4.006   1.184   2.636  0.00  0.00    +0.054 A 
ATOM     29  C   UNL     1      -4.615   0.384   1.688  0.00  0.00    -0.019 A 
ATOM     30  C   UNL     1      -3.907  -0.029   0.568  0.00  0.00    +0.125 A 
ATOM     31  C   UNL     1      -2.589   0.365   0.396  0.00  0.00    +0.095 A 
ATOM     32  C   UNL     1      -1.976   1.163   1.348  0.00  0.00    +0.165 A 
BRANCH  27  34
ATOM     33  C   UNL     1      -2.879   2.748   4.531  0.00  0.00    +0.277 C 
ATOM     34  O   UNL     1      -2.088   2.363   3.405  0.00  0.00    -0.491 OA
ENDBRANCH  27  34
BRANCH  32  35
ATOM     35  O   UNL     1      -0.682   1.547   1.184  0.00  0.00    -0.491 OA
ATOM     36  C   UNL     1      -0.013   1.086   0.008  0.00  0.00    +0.277 C 
ENDBRANCH  32  35
BRANCH  30  37
ATOM     37  O   UNL     1      -4.508  -0.816  -0.363  0.00  0.00    -0.495 OA
ATOM     38  C   UNL     1      -3.721  -1.204  -1.491  0.00  0.00    +0.277 C 
ENDBRANCH  30  37
ENDBRANCH  26  29
ENDBRANCH   6  26
TORSDOF 10
