REMARK  Name = ZINC23402615
REMARK  14 active torsions:
REMARK  status: ('A' for Active; 'I' for Inactive)
REMARK    1  A    between atoms: C_1  and  N_2
REMARK    2  A    between atoms: N_2  and  C_3
REMARK    3  A    between atoms: C_3  and  C_4
REMARK    4  A    between atoms: C_4  and  C_6
REMARK    5  A    between atoms: C_4  and  O_40
REMARK    6  A    between atoms: C_6  and  O_7
REMARK    7  A    between atoms: O_7  and  C_8
REMARK    8  A    between atoms: C_14  and  C_18
REMARK    9  A    between atoms: C_18  and  C_19
REMARK   10  A    between atoms: C_19  and  N_20
REMARK   11  A    between atoms: N_20  and  C_21
REMARK   12  A    between atoms: C_21  and  C_22
REMARK   13  A    between atoms: C_21  and  C_28
REMARK   14  A    between atoms: C_21  and  C_34
REMARK                            x       y       z     vdW  Elec       q    Type
REMARK                         _______ _______ _______ _____ _____    ______ ____
ROOT
ATOM      1  C   UNL     1      -2.612   0.142   8.269  0.00  0.00    +0.087 C 
ENDROOT
BRANCH   1   2
ATOM      2  N   UNL     1      -4.031   0.300   8.614  0.00  0.00    -0.299 NA
ATOM      3  H   UNL     1      -4.124   0.533   9.685  0.00  0.00    +0.123 HD
BRANCH   2   4
ATOM      4  C   UNL     1      -4.782  -0.930   8.332  0.00  0.00    +0.096 C 
BRANCH   4   5
ATOM      5  C   UNL     1      -4.675  -1.259   6.866  0.00  0.00    -0.019 A 
ATOM      6  C   UNL     1      -3.725  -2.163   6.428  0.00  0.00    +0.006 A 
ATOM      7  C   UNL     1      -3.630  -2.469   5.083  0.00  0.00    +0.000 A 
ATOM      8  C   UNL     1      -4.478  -1.863   4.175  0.00  0.00    +0.000 A 
ATOM      9  C   UNL     1      -5.424  -0.955   4.612  0.00  0.00    +0.000 A 
ATOM     10  C   UNL     1      -5.523  -0.653   5.958  0.00  0.00    +0.006 A 
ENDBRANCH   4   5
BRANCH   4  11
ATOM     11  C   UNL     1      -4.211  -2.064   9.145  0.00  0.00    -0.019 A 
ATOM     12  C   UNL     1      -4.476  -3.373   8.787  0.00  0.00    +0.006 A 
ATOM     13  C   UNL     1      -3.948  -4.413   9.528  0.00  0.00    +0.000 A 
ATOM     14  C   UNL     1      -3.163  -4.144  10.634  0.00  0.00    +0.000 A 
ATOM     15  C   UNL     1      -2.903  -2.836  10.996  0.00  0.00    +0.000 A 
ATOM     16  C   UNL     1      -3.426  -1.796  10.251  0.00  0.00    +0.006 A 
ENDBRANCH   4  11
BRANCH   4  17
ATOM     17  C   UNL     1      -6.230  -0.730   8.698  0.00  0.00    -0.019 A 
ATOM     18  C   UNL     1      -7.217  -1.409   8.008  0.00  0.00    +0.006 A 
ATOM     19  C   UNL     1      -8.545  -1.229   8.347  0.00  0.00    +0.000 A 
ATOM     20  C   UNL     1      -8.887  -0.363   9.368  0.00  0.00    +0.000 A 
ATOM     21  C   UNL     1      -7.900   0.320  10.055  0.00  0.00    +0.000 A 
ATOM     22  C   UNL     1      -6.571   0.136   9.720  0.00  0.00    +0.006 A 
ENDBRANCH   4  17
ENDBRANCH   2   4
ENDBRANCH   1   2
BRANCH   1  23
ATOM     23  C   UNL     1      -1.864   1.441   8.576  0.00  0.00    +0.052 C 
BRANCH  23  30
ATOM     24  C   UNL     1       0.546   1.932   4.572  0.00  0.00    +0.121 A 
ATOM     25  C   UNL     1       1.905   1.667   4.728  0.00  0.00    +0.048 A 
ATOM     26  C   UNL     1       2.413   1.315   5.958  0.00  0.00    +0.030 A 
ATOM     27  C   UNL     1       1.567   1.211   7.057  0.00  0.00    +0.047 A 
ATOM     28  C   UNL     1       0.194   1.472   6.901  0.00  0.00    +0.006 A 
ATOM     29  C   UNL     1      -0.310   1.834   5.649  0.00  0.00    +0.056 A 
ATOM     30  C   UNL     1      -0.408   1.279   8.222  0.00  0.00    -0.021 A 
ATOM     31  C   UNL     1       0.582   0.930   9.058  0.00  0.00    +0.087 A 
ATOM     32  N   UNL     1       1.770   0.884   8.381  0.00  0.00    -0.360 N 
ATOM     33  H   UNL     1       2.781   0.638   8.738  0.00  0.00    +0.165 HD
BRANCH  24  34
ATOM     34  O   UNL     1       0.061   2.283   3.351  0.00  0.00    -0.489 OA
BRANCH  34  35
ATOM     35  C   UNL     1       1.002   2.366   2.278  0.00  0.00    +0.258 C 
BRANCH  35  36
ATOM     36  C   UNL     1       0.276   2.771   0.994  0.00  0.00    +0.135 C 
BRANCH  36  37
ATOM     37  O   UNL     1      -0.249   4.092   1.139  0.00  0.00    -0.390 OA
ATOM     38  H   UNL     1      -0.976   4.310   1.935  0.00  0.00    +0.210 HD
ENDBRANCH  36  37
BRANCH  36  39
ATOM     39  C   UNL     1       1.258   2.739  -0.179  0.00  0.00    -0.048 C 
BRANCH  39  41
ATOM     40  C   UNL     1       1.476   3.108  -2.562  0.00  0.00    -0.100 C 
ATOM     41  N   UNL     1       0.561   3.128  -1.412  0.00  0.00    +0.379 N 
ATOM     42  H   UNL     1       0.156   4.142  -1.284  0.00  0.00    -0.086 HD
ATOM     43  H   UNL     1      -0.264   2.422  -1.588  0.00  0.00    -0.086 HD
ENDBRANCH  39  41
ENDBRANCH  36  39
ENDBRANCH  35  36
ENDBRANCH  34  35
ENDBRANCH  24  34
ENDBRANCH  23  30
ENDBRANCH   1  23
TORSDOF 13
