REMARK  Name = ZINC25384377
REMARK  11 active torsions:
REMARK  status: ('A' for Active; 'I' for Inactive)
REMARK    1  A    between atoms: C_1  and  C_2
REMARK    2  A    between atoms: C_2  and  C_3
REMARK    3  A    between atoms: C_2  and  C_4
REMARK    4  A    between atoms: C_4  and  C_6
REMARK    5  A    between atoms: C_4  and  N_22
REMARK    6  A    between atoms: N_8  and  C_9
REMARK    7  A    between atoms: C_9  and  C_10
REMARK    8  A    between atoms: C_10  and  C_12
REMARK    9  A    between atoms: C_10  and  N_17
REMARK   10  A    between atoms: N_22  and  S_23
REMARK   11  A    between atoms: S_23  and  C_26
REMARK                            x       y       z     vdW  Elec       q    Type
REMARK                         _______ _______ _______ _____ _____    ______ ____
ROOT
ATOM      1  C   UNL     1      -5.278   2.144  -3.480  0.00  0.00    +0.165 C 
ENDROOT
BRANCH   1   2
ATOM      2  C   UNL     1      -3.901   2.299  -4.072  0.00  0.00    +0.232 C 
ATOM      3  O   UNL     1      -3.751   2.918  -5.104  0.00  0.00    -0.274 OA
ATOM      4  N   UNL     1      -2.836   1.751  -3.454  0.00  0.00    -0.315 N 
ATOM      5  H   UNL     1      -2.959   1.259  -2.478  0.00  0.00    +0.149 HD
BRANCH   4   6
ATOM      6  C   UNL     1      -1.514   1.809  -4.083  0.00  0.00    +0.094 C 
BRANCH   6   7
ATOM      7  C   UNL     1      -0.515   1.008  -3.245  0.00  0.00    -0.013 C 
BRANCH   7   8
ATOM      8  N   UNL     1       0.836   1.181  -3.797  0.00  0.00    +0.386 N 
ATOM      9  C   UNL     1       1.848   0.501  -2.948  0.00  0.00    -0.078 C 
ATOM     10  C   UNL     1       3.183   1.188  -3.305  0.00  0.00    -0.020 C 
ATOM     11  C   UNL     1       2.782   2.578  -3.850  0.00  0.00    -0.020 C 
ATOM     12  C   UNL     1       1.241   2.610  -3.775  0.00  0.00    -0.078 C 
ATOM     13  H   UNL     1       0.787   0.767  -4.815  0.00  0.00    -0.081 HD
ENDBRANCH   7   8
BRANCH   7  14
ATOM     14  C   UNL     1      -0.888  -0.452  -3.279  0.00  0.00    -0.022 A 
ATOM     15  C   UNL     1      -1.553  -1.184  -2.352  0.00  0.00    +0.009 A 
ATOM     16  C   UNL     1      -1.787  -2.524  -2.599  0.00  0.00    +0.008 A 
ATOM     17  C   UNL     1      -1.346  -3.066  -3.760  0.00  0.00    +0.045 A 
ATOM     18  S   UNL     1      -0.577  -1.663  -4.553  0.00  0.00    -0.103 S 
ENDBRANCH   7  14
ENDBRANCH   6   7
ENDBRANCH   4   6
ENDBRANCH   1   2
BRANCH   1  20
ATOM     19  C   UNL     1      -4.499   3.038  -1.281  0.00  0.00    +0.009 C 
ATOM     20  C   UNL     1      -5.503   3.224  -2.420  0.00  0.00    +0.010 C 
ATOM     21  C   UNL     1      -5.308   4.605  -3.051  0.00  0.00    +0.009 C 
ENDBRANCH   1  20
BRANCH   1  22
ATOM     22  N   UNL     1      -6.282   2.280  -4.537  0.00  0.00    -0.178 NA
ATOM     23  H   UNL     1      -6.205   3.099  -5.267  0.00  0.00    +0.149 HD
BRANCH  22  24
ATOM     24  S   UNL     1      -7.661   1.363  -4.494  0.00  0.00    +0.059 S 
ATOM     25  O   UNL     1      -8.423   1.721  -5.638  0.00  0.00    -0.153 OA
ATOM     26  O   UNL     1      -7.252   0.027  -4.238  0.00  0.00    -0.153 OA
BRANCH  24  27
ATOM     27  C   UNL     1      -8.588   1.884  -3.088  0.00  0.00    +0.106 A 
ATOM     28  C   UNL     1      -8.364   1.276  -1.855  0.00  0.00    +0.029 A 
ATOM     29  C   UNL     1      -9.059   1.658  -0.749  0.00  0.00    +0.010 A 
ATOM     30  C   UNL     1     -10.026   2.673  -0.851  0.00  0.00    -0.018 A 
ATOM     31  C   UNL     1     -10.768   3.089   0.267  0.00  0.00    +0.008 A 
ATOM     32  C   UNL     1     -11.696   4.075   0.130  0.00  0.00    +0.001 A 
ATOM     33  C   UNL     1     -11.924   4.680  -1.105  0.00  0.00    +0.001 A 
ATOM     34  C   UNL     1     -11.225   4.302  -2.210  0.00  0.00    +0.008 A 
ATOM     35  C   UNL     1     -10.258   3.287  -2.107  0.00  0.00    -0.016 A 
ATOM     36  C   UNL     1      -9.516   2.870  -3.226  0.00  0.00    +0.037 A 
ENDBRANCH  24  27
ENDBRANCH  22  24
ENDBRANCH   1  22
TORSDOF 9
