REMARK  Name = ZINC36704373
REMARK  12 active torsions:
REMARK  status: ('A' for Active; 'I' for Inactive)
REMARK    1  A    between atoms: C_1  and  C_2
REMARK    2  A    between atoms: C_2  and  N_3
REMARK    3  A    between atoms: N_3  and  C_4
REMARK    4  A    between atoms: N_3  and  C_6
REMARK    5  A    between atoms: C_4  and  C_5
REMARK    6  A    between atoms: C_6  and  C_7
REMARK    7  A    between atoms: C_7  and  N_8
REMARK    8  A    between atoms: C_12  and  O_18
REMARK    9  A    between atoms: O_18  and  C_19
REMARK   10  A    between atoms: C_20  and  C_22
REMARK   11  A    between atoms: N_27  and  S_28
REMARK   12  A    between atoms: S_28  and  C_31
REMARK                            x       y       z     vdW  Elec       q    Type
REMARK                         _______ _______ _______ _____ _____    ______ ____
ROOT
ATOM      1  N   UNL     1      -0.968  -3.804   1.866  0.00  0.00    -0.251 N 
ATOM      2  C   UNL     1       0.174  -4.589   1.827  0.00  0.00    +0.168 A 
ATOM      3  N   UNL     1       0.600  -5.465   2.706  0.00  0.00    -0.221 NA
ATOM      4  C   UNL     1       1.743  -6.166   2.537  0.00  0.00    +0.122 A 
ATOM      5  C   UNL     1       2.312  -7.134   3.403  0.00  0.00    +0.146 A 
ATOM      6  C   UNL     1       3.493  -7.758   3.076  0.00  0.00    +0.048 A 
ATOM      7  C   UNL     1       4.165  -7.465   1.898  0.00  0.00    +0.005 A 
ATOM      8  C   UNL     1       3.636  -6.526   1.032  0.00  0.00    +0.017 A 
ATOM      9  C   UNL     1       2.456  -5.896   1.349  0.00  0.00    +0.044 A 
ATOM     10  S   UNL     1       1.436  -4.672   0.565  0.00  0.00    -0.052 S 
ATOM     11  C   UNL     1      -1.808  -3.886   2.917  0.00  0.00    +0.240 C 
ATOM     12  O   UNL     1      -1.519  -4.578   3.870  0.00  0.00    -0.273 OA
ENDROOT
BRANCH  11  13
ATOM     13  C   UNL     1      -3.104  -3.119   2.908  0.00  0.00    +0.166 C 
ATOM     14  C   UNL     1      -2.914  -1.759   3.613  0.00  0.00    +0.031 C 
ATOM     15  C   UNL     1      -4.247  -1.580   4.388  0.00  0.00    +0.019 C 
ATOM     16  C   UNL     1      -4.564  -3.039   4.802  0.00  0.00    +0.110 C 
ATOM     17  N   UNL     1      -4.131  -3.861   3.654  0.00  0.00    -0.164 NA
BRANCH  17  18
ATOM     18  S   UNL     1      -4.703  -5.367   3.269  0.00  0.00    +0.068 S 
ATOM     19  O   UNL     1      -5.997  -5.469   3.848  0.00  0.00    -0.152 OA
ATOM     20  O   UNL     1      -4.475  -5.545   1.878  0.00  0.00    -0.152 OA
BRANCH  18  21
ATOM     21  C   UNL     1      -3.685  -6.540   4.101  0.00  0.00    +0.143 A 
ATOM     22  C   UNL     1      -3.838  -7.080   5.334  0.00  0.00    +0.036 A 
ATOM     23  C   UNL     1      -2.904  -7.993   5.787  0.00  0.00    +0.010 A 
ATOM     24  C   UNL     1      -1.862  -8.321   4.983  0.00  0.00    +0.047 A 
ATOM     25  S   UNL     1      -2.188  -7.330   3.534  0.00  0.00    -0.077 S 
ENDBRANCH  18  21
ENDBRANCH  17  18
ENDBRANCH  11  13
BRANCH   5  26
ATOM     26  O   UNL     1       1.685  -7.449   4.567  0.00  0.00    -0.493 OA
ATOM     27  C   UNL     1       2.308  -8.431   5.396  0.00  0.00    +0.277 C 
ENDBRANCH   5  26
BRANCH   1  28
ATOM     28  C   UNL     1      -1.263  -2.885   0.763  0.00  0.00    +0.097 C 
BRANCH  28  29
ATOM     29  C   UNL     1      -2.038  -3.628  -0.327  0.00  0.00    -0.059 C 
BRANCH  29  30
ATOM     30  N   UNL     1      -2.333  -2.707  -1.432  0.00  0.00    +0.380 N 
ATOM     31  H   UNL     1      -2.817  -1.897  -1.075  0.00  0.00    -0.082 HD
BRANCH  30  33
ATOM     32  C   UNL     1      -1.375  -1.238  -3.142  0.00  0.00    -0.017 C 
ATOM     33  C   UNL     1      -1.077  -2.285  -2.067  0.00  0.00    -0.082 C 
ENDBRANCH  30  33
BRANCH  30  34
ATOM     34  C   UNL     1      -3.179  -3.385  -2.423  0.00  0.00    -0.082 C 
ATOM     35  C   UNL     1      -4.537  -3.710  -1.797  0.00  0.00    -0.017 C 
ENDBRANCH  30  34
ENDBRANCH  29  30
ENDBRANCH  28  29
ENDBRANCH   1  28
TORSDOF 9
