REMARK  Name = ZINC59133371
REMARK  6 active torsions:
REMARK  status: ('A' for Active; 'I' for Inactive)
REMARK    1  A    between atoms: C_4  and  O_14
REMARK    2  A    between atoms: C_5  and  C_7
REMARK    3  A    between atoms: C_8  and  C_9
REMARK    4  A    between atoms: C_8  and  C_11
REMARK    5  A    between atoms: O_14  and  C_15
REMARK    6  A    between atoms: C_15  and  C_16
REMARK                            x       y       z     vdW  Elec       q    Type
REMARK                         _______ _______ _______ _____ _____    ______ ____
ROOT
ATOM      1  C   UNL     1      -0.038   1.352   0.275  0.00  0.00    +0.001 A 
ATOM      2  C   UNL     1       1.125   2.086   0.103  0.00  0.00    +0.004 A 
ATOM      3  C   UNL     1       2.332   1.448  -0.109  0.00  0.00    +0.046 A 
ATOM      4  C   UNL     1       2.389   0.064  -0.153  0.00  0.00    +0.128 A 
ATOM      5  C   UNL     1       1.212  -0.686   0.021  0.00  0.00    +0.018 A 
ATOM      6  C   UNL     1      -0.005  -0.024   0.236  0.00  0.00    +0.011 A 
ENDROOT
BRANCH   5   7
ATOM      7  C   UNL     1       1.257  -2.149  -0.023  0.00  0.00    +0.035 C 
ATOM      8  C   UNL     1       0.185  -2.857  -0.521  0.00  0.00    +0.114 C 
BRANCH   8   9
ATOM      9  C   UNL     1       0.166  -4.325  -0.430  0.00  0.00    +0.252 C 
ATOM     10  O   UNL     1       1.097  -4.914   0.085  0.00  0.00    -0.270 OA
ATOM     11  N   UNL     1      -0.882  -5.017  -0.918  0.00  0.00    -0.325 N 
ATOM     12  H   UNL     1      -1.625  -4.547  -1.329  0.00  0.00    +0.145 HD
ATOM     13  H   UNL     1      -0.895  -5.985  -0.858  0.00  0.00    +0.145 HD
ENDBRANCH   8   9
BRANCH   8  14
ATOM     14  C   UNL     1      -0.911  -2.163  -1.128  0.00  0.00    +0.104 C 
ATOM     15  N   UNL     1      -1.781  -1.613  -1.609  0.00  0.00    -0.191 NA
ENDBRANCH   8  14
ENDBRANCH   5   7
BRANCH   4  16
ATOM     16  O   UNL     1       3.573  -0.563  -0.362  0.00  0.00    -0.487 OA
BRANCH  16  17
ATOM     17  C   UNL     1       4.725   0.265  -0.531  0.00  0.00    +0.264 C 
BRANCH  17  18
ATOM     18  C   UNL     1       5.938  -0.601  -0.751  0.00  0.00    -0.010 A 
ATOM     19  C   UNL     1       6.685  -1.032   0.330  0.00  0.00    +0.008 A 
ATOM     20  C   UNL     1       7.798  -1.826   0.128  0.00  0.00    +0.015 A 
ATOM     21  C   UNL     1       8.164  -2.191  -1.155  0.00  0.00    +0.018 A 
ATOM     22  C   UNL     1       7.417  -1.759  -2.236  0.00  0.00    +0.015 A 
ATOM     23  C   UNL     1       6.301  -0.969  -2.033  0.00  0.00    +0.008 A 
ATOM     24 BR   UNL     1       9.687  -3.277  -1.431  0.00  0.00    -0.050 Br
ENDBRANCH  17  18
ENDBRANCH  16  17
ENDBRANCH   4  16
TORSDOF 6
