REMARK  Name = ZINC16667333
REMARK  7 active torsions:
REMARK  status: ('A' for Active; 'I' for Inactive)
REMARK    1  A    between atoms: C_1  and  C_2
REMARK    2  A    between atoms: C_5  and  N_8
REMARK    3  A    between atoms: N_8  and  C_9
REMARK    4  A    between atoms: C_9  and  C_10
REMARK    5  A    between atoms: N_12  and  N_13
REMARK    6  A    between atoms: C_14  and  C_15
REMARK    7  A    between atoms: C_20  and  O_21
REMARK                            x       y       z     vdW  Elec       q    Type
REMARK                         _______ _______ _______ _____ _____    ______ ____
ROOT
ATOM      1  C   UNL     1       2.562   0.739  -1.197  0.00  0.00    +0.249 C 
ATOM      2  O   UNL     1       2.262  -0.400  -0.907  0.00  0.00    -0.272 OA
ATOM      3  N   UNL     1       3.820   1.178  -0.993  0.00  0.00    -0.206 N 
ATOM      4  H   UNL     1       4.060   2.088  -1.225  0.00  0.00    +0.177 HD
ENDROOT
BRANCH   3   5
ATOM      5  N   UNL     1       4.781   0.318  -0.445  0.00  0.00    -0.188 NA
ATOM      6  C   UNL     1       5.962   0.769  -0.148  0.00  0.00    +0.142 C 
BRANCH   6   7
ATOM      7  C   UNL     1       6.216   2.221  -0.143  0.00  0.00    +0.038 A 
ATOM      8  C   UNL     1       5.168   3.117   0.081  0.00  0.00    +0.028 A 
ATOM      9  C   UNL     1       5.412   4.474   0.084  0.00  0.00    +0.020 A 
ATOM     10  C   UNL     1       6.694   4.954  -0.134  0.00  0.00    +0.034 A 
ATOM     11  C   UNL     1       7.739   4.077  -0.357  0.00  0.00    +0.061 A 
ATOM     12  C   UNL     1       7.511   2.710  -0.358  0.00  0.00    +0.139 A 
ATOM     13 BR   UNL     1       9.484   4.744  -0.654  0.00  0.00    -0.046 Br
ATOM     14 BR   UNL     1       3.993   5.686   0.388  0.00  0.00    -0.050 Br
BRANCH  12  15
ATOM     15  O   UNL     1       8.539   1.847  -0.571  0.00  0.00    -0.505 OA
ATOM     16  H   UNL     1       8.634   1.568  -1.492  0.00  0.00    +0.292 HD
ENDBRANCH  12  15
ENDBRANCH   6   7
ENDBRANCH   3   5
BRANCH   1  17
ATOM     17  C   UNL     1       1.529   1.664  -1.787  0.00  0.00    +0.199 C 
BRANCH  17  18
ATOM     18  N   UNL     1       0.252   0.955  -1.907  0.00  0.00    -0.335 N 
ATOM     19  H   UNL     1       0.182   0.030  -1.624  0.00  0.00    +0.147 HD
BRANCH  18  24
ATOM     20  C   UNL     1      -4.273   3.613  -4.056  0.00  0.00    +0.044 C 
ATOM     21  C   UNL     1      -3.071   2.907  -3.485  0.00  0.00    -0.050 A 
ATOM     22  C   UNL     1      -3.172   1.588  -3.081  0.00  0.00    +0.005 A 
ATOM     23  C   UNL     1      -2.072   0.938  -2.558  0.00  0.00    +0.023 A 
ATOM     24  C   UNL     1      -0.863   1.610  -2.437  0.00  0.00    +0.028 A 
ATOM     25  C   UNL     1      -0.765   2.936  -2.839  0.00  0.00    +0.023 A 
ATOM     26  C   UNL     1      -1.868   3.579  -3.366  0.00  0.00    +0.005 A 
ENDBRANCH  18  24
ENDBRANCH  17  18
ENDBRANCH   1  17
TORSDOF 6
