REMARK  Name = ZINC37357969
REMARK  6 active torsions:
REMARK  status: ('A' for Active; 'I' for Inactive)
REMARK    1  A    between atoms: C_5  and  C_7
REMARK    2  A    between atoms: C_7  and  C_8
REMARK    3  A    between atoms: C_8  and  N_9
REMARK    4  A    between atoms: C_12  and  C_27
REMARK    5  A    between atoms: C_14  and  N_26
REMARK    6  A    between atoms: N_15  and  C_19
REMARK                            x       y       z     vdW  Elec       q    Type
REMARK                         _______ _______ _______ _____ _____    ______ ____
ROOT
ATOM      1  N   UNL     1       2.839  -4.085  -0.844  0.00  0.00    -0.313 N 
ATOM      2  C   UNL     1       3.237  -4.770  -1.978  0.00  0.00    +0.218 A 
ATOM      3  N   UNL     1       3.272  -6.098  -1.931  0.00  0.00    -0.214 NA
ATOM      4  C   UNL     1       3.641  -6.832  -2.973  0.00  0.00    +0.089 A 
ATOM      5  C   UNL     1       4.007  -6.166  -4.164  0.00  0.00    +0.086 A 
ATOM      6  C   UNL     1       4.436  -6.551  -5.428  0.00  0.00    +0.131 A 
ATOM      7  N   UNL     1       4.631  -5.430  -6.150  0.00  0.00    -0.216 N 
ATOM      8  N   UNL     1       4.333  -4.306  -5.372  0.00  0.00    -0.144 NA
ATOM      9  C   UNL     1       3.954  -4.692  -4.173  0.00  0.00    +0.189 A 
ATOM     10  N   UNL     1       3.556  -4.070  -3.047  0.00  0.00    -0.193 NA
ATOM     11  H   UNL     1       2.598  -4.575  -0.042  0.00  0.00    +0.149 HD
ENDROOT
BRANCH   7  12
ATOM     12  C   UNL     1       5.067  -5.395  -7.480  0.00  0.00    +0.070 A 
ATOM     13  C   UNL     1       5.974  -6.340  -7.940  0.00  0.00    +0.028 A 
ATOM     14  C   UNL     1       6.403  -6.304  -9.252  0.00  0.00    +0.005 A 
ATOM     15  C   UNL     1       5.930  -5.328 -10.110  0.00  0.00    +0.038 A 
ATOM     16  C   UNL     1       5.025  -4.383  -9.655  0.00  0.00    +0.125 A 
ATOM     17  C   UNL     1       4.588  -4.419  -8.343  0.00  0.00    +0.066 A 
ATOM     18  F   UNL     1       4.565  -3.430 -10.495  0.00  0.00    -0.205 F 
ENDBRANCH   7  12
BRANCH   4  19
ATOM     19  C   UNL     1       3.670  -8.309  -2.890  0.00  0.00    +0.001 A 
ATOM     20  C   UNL     1       4.774  -9.016  -3.366  0.00  0.00    +0.011 A 
ATOM     21  C   UNL     1       4.795 -10.393  -3.285  0.00  0.00    +0.020 A 
ATOM     22  C   UNL     1       3.723 -11.074  -2.732  0.00  0.00    +0.041 A 
ATOM     23  C   UNL     1       2.624 -10.377  -2.258  0.00  0.00    +0.020 A 
ATOM     24  C   UNL     1       2.595  -9.000  -2.329  0.00  0.00    +0.011 A 
ATOM     25 CL   UNL     1       3.757 -12.806  -2.634  0.00  0.00    -0.084 Cl
ENDBRANCH   4  19
BRANCH   6  26
ATOM     26  N   UNL     1       4.629  -7.848  -5.866  0.00  0.00    -0.342 N 
ATOM     27  H   UNL     1       4.319  -8.593  -5.327  0.00  0.00    +0.144 HD
ATOM     28  H   UNL     1       5.075  -8.014  -6.711  0.00  0.00    +0.144 HD
ENDBRANCH   6  26
BRANCH   1  29
ATOM     29  C   UNL     1       2.781  -2.622  -0.853  0.00  0.00    +0.110 C 
BRANCH  29  30
ATOM     30  C   UNL     1       2.314  -2.120   0.515  0.00  0.00    +0.074 C 
BRANCH  30  35
ATOM     31  C   UNL     1       1.034   1.410   0.836  0.00  0.00    +0.003 A 
ATOM     32  C   UNL     1       2.179   2.104   0.475  0.00  0.00    +0.020 A 
ATOM     33  C   UNL     1       3.319   1.396   0.142  0.00  0.00    +0.111 A 
ATOM     34  N   UNL     1       3.324   0.077   0.166  0.00  0.00    -0.260 NA
ATOM     35  C   UNL     1       2.255  -0.615   0.504  0.00  0.00    +0.043 A 
ATOM     36  C   UNL     1       1.079   0.025   0.850  0.00  0.00    +0.023 A 
ENDBRANCH  30  35
ENDBRANCH  29  30
ENDBRANCH   1  29
TORSDOF 6
