REMARK  Name = ZINC15989045
REMARK  4 active torsions:
REMARK  status: ('A' for Active; 'I' for Inactive)
REMARK    1  A    between atoms: C_1  and  C_2
REMARK    2  A    between atoms: C_2  and  C_4
REMARK    3  A    between atoms: C_7  and  N_10
REMARK    4  A    between atoms: C_26  and  C_32
REMARK                            x       y       z     vdW  Elec       q    Type
REMARK                         _______ _______ _______ _____ _____    ______ ____
ROOT
ATOM      1  N   UNL     1      -4.842  -2.889   0.034  0.00  0.00    -0.210 N 
ATOM      2  C   UNL     1      -4.908  -4.252   0.039  0.00  0.00    +0.232 C 
ATOM      3  O   UNL     1      -4.019  -5.026   0.323  0.00  0.00    -0.274 OA
ATOM      4  C   UNL     1      -6.319  -4.601  -0.383  0.00  0.00    +0.115 C 
ATOM      5  C   UNL     1      -7.090  -5.665   0.292  0.00  0.00    +0.117 C 
ATOM      6  C   UNL     1      -6.662  -6.794   1.091  0.00  0.00    -0.019 A 
ATOM      7  C   UNL     1      -5.343  -7.156   1.271  0.00  0.00    +0.006 A 
ATOM      8  C   UNL     1      -5.006  -8.253   2.039  0.00  0.00    +0.000 A 
ATOM      9  C   UNL     1      -5.992  -9.014   2.643  0.00  0.00    +0.001 A 
ATOM     10  C   UNL     1      -7.317  -8.673   2.482  0.00  0.00    +0.008 A 
ATOM     11  C   UNL     1      -7.671  -7.565   1.714  0.00  0.00    -0.019 A 
ATOM     12  C   UNL     1      -9.088  -7.186   1.564  0.00  0.00    +0.023 C 
ATOM     13  C   UNL     1      -9.460  -6.024   0.995  0.00  0.00    +0.072 C 
ATOM     14  N   UNL     1      -8.446  -5.179   0.588  0.00  0.00    -0.316 N 
ATOM     15  C   UNL     1      -8.429  -3.705   0.408  0.00  0.00    +0.172 C 
ATOM     16  C   UNL     1      -6.987  -3.366   0.363  0.00  0.00    +0.119 C 
ATOM     17  C   UNL     1      -6.079  -2.295   0.045  0.00  0.00    +0.232 C 
ATOM     18  O   UNL     1      -6.348  -1.132  -0.168  0.00  0.00    -0.274 OA
ENDROOT
BRANCH   1  22
ATOM     19  C   UNL     1      -1.260  -0.756   0.010  0.00  0.00    +0.017 A 
ATOM     20  C   UNL     1      -2.483  -0.074   0.020  0.00  0.00    +0.013 A 
ATOM     21  C   UNL     1      -3.663  -0.783   0.027  0.00  0.00    +0.024 A 
ATOM     22  C   UNL     1      -3.641  -2.174   0.026  0.00  0.00    +0.044 A 
ATOM     23  C   UNL     1      -2.428  -2.856   0.016  0.00  0.00    +0.024 A 
ATOM     24  C   UNL     1      -1.244  -2.156   0.002  0.00  0.00    +0.013 A 
BRANCH  19  26
ATOM     25  C   UNL     1      -0.018   1.503   0.010  0.00  0.00    +0.091 C 
ATOM     26  C   UNL     1       0.002  -0.004   0.002  0.00  0.00    +0.160 C 
ATOM     27  O   UNL     1       1.060  -0.596  -0.011  0.00  0.00    -0.292 OA
ENDBRANCH  19  26
ENDBRANCH   1  22
BRANCH  15  28
ATOM     28  C   UNL     1      -9.082  -3.321  -0.894  0.00  0.00    +0.232 C 
ATOM     29  O   UNL     1      -9.225  -4.149  -1.769  0.00  0.00    -0.274 OA
ATOM     30  N   UNL     1      -9.508  -2.057  -1.088  0.00  0.00    -0.328 N 
ATOM     31  H   UNL     1      -9.394  -1.394  -0.388  0.00  0.00    +0.145 HD
ATOM     32  H   UNL     1      -9.929  -1.810  -1.926  0.00  0.00    +0.145 HD
ENDBRANCH  15  28
TORSDOF 3
