REMARK  Name = ZINC39658050
REMARK  6 active torsions:
REMARK  status: ('A' for Active; 'I' for Inactive)
REMARK    1  A    between atoms: C_3  and  O_8
REMARK    2  A    between atoms: O_8  and  C_9
REMARK    3  A    between atoms: C_9  and  C_10
REMARK    4  A    between atoms: C_14  and  C_23
REMARK    5  A    between atoms: N_25  and  C_26
REMARK    6  A    between atoms: C_29  and  C_32
REMARK                            x       y       z     vdW  Elec       q    Type
REMARK                         _______ _______ _______ _____ _____    ______ ____
ROOT
ATOM      1  C   UNL     1       5.813   2.010   0.069  0.00  0.00    +0.253 C 
ATOM      2  O   UNL     1       5.541   3.191   0.113  0.00  0.00    -0.272 OA
ATOM      3  N   UNL     1       7.101   1.616   0.015  0.00  0.00    -0.297 N 
ATOM      4  C   UNL     1       7.625   0.232  -0.050  0.00  0.00    +0.121 C 
ATOM      5  C   UNL     1       8.815   0.310  -1.033  0.00  0.00    +0.100 C 
ATOM      6  C   UNL     1       9.262   1.781  -0.991  0.00  0.00    -0.004 C 
ATOM      7  C   UNL     1       8.312   2.471  -0.000  0.00  0.00    +0.115 C 
ATOM      8  C   UNL     1      10.703   1.881  -0.499  0.00  0.00    -0.010 C 
ATOM      9  C   UNL     1      11.144   3.348  -0.521  0.00  0.00    -0.082 C 
ATOM     10  N   UNL     1      11.034   3.873  -1.887  0.00  0.00    +0.379 N 
ATOM     11  C   UNL     1       9.631   3.860  -2.317  0.00  0.00    -0.082 C 
ATOM     12  C   UNL     1       9.126   2.415  -2.372  0.00  0.00    -0.010 C 
ATOM     13  H   UNL     1      11.383   4.820  -1.910  0.00  0.00    -0.086 HD
ATOM     14  H   UNL     1      11.582   3.301  -2.511  0.00  0.00    -0.086 HD
ENDROOT
BRANCH   5  15
ATOM     15  C   UNL     1       8.372  -0.066  -2.424  0.00  0.00    +0.218 C 
ATOM     16  O   UNL     1       7.232   0.153  -2.777  0.00  0.00    -0.275 OA
ATOM     17  N   UNL     1       9.242  -0.645  -3.274  0.00  0.00    -0.312 N 
ATOM     18  H   UNL     1      10.153  -0.820  -2.992  0.00  0.00    +0.149 HD
BRANCH  17  19
ATOM     19  C   UNL     1       8.811  -1.011  -4.626  0.00  0.00    +0.073 C 
ATOM     20  C   UNL     1       8.149  -2.390  -4.595  0.00  0.00    +0.023 C 
ATOM     21  C   UNL     1       7.699  -2.772  -6.007  0.00  0.00    +0.016 C 
ATOM     22  C   UNL     1       8.914  -2.810  -6.936  0.00  0.00    +0.102 C 
ATOM     23  C   UNL     1       9.576  -1.431  -6.967  0.00  0.00    +0.016 C 
ATOM     24  C   UNL     1      10.025  -1.049  -5.556  0.00  0.00    +0.023 C 
BRANCH  22  25
ATOM     25  C   UNL     1       8.471  -3.186  -8.326  0.00  0.00    +0.359 C 
ATOM     26  O   UNL     1       9.085  -2.771  -9.295  0.00  0.00    -0.246 OA
ATOM     27  O   UNL     1       7.498  -3.905  -8.483  0.00  0.00    -0.246 OA
ENDBRANCH  22  25
ENDBRANCH  17  19
ENDBRANCH   5  15
BRANCH   1  28
ATOM     28  C   UNL     1       4.711   0.982   0.076  0.00  0.00    +0.324 C 
BRANCH  28  29
ATOM     29  O   UNL     1       3.445   1.642   0.138  0.00  0.00    -0.483 OA
BRANCH  29  32
ATOM     30  C   UNL     1      -0.048   0.624   0.224  0.00  0.00    +0.005 A 
ATOM     31  C   UNL     1       1.076   1.427   0.210  0.00  0.00    +0.046 A 
ATOM     32  C   UNL     1       2.338   0.853   0.151  0.00  0.00    +0.123 A 
ATOM     33  C   UNL     1       2.468  -0.527   0.106  0.00  0.00    +0.065 A 
ATOM     34  C   UNL     1       1.341  -1.327   0.119  0.00  0.00    +0.044 A 
ATOM     35  C   UNL     1       0.083  -0.751   0.178  0.00  0.00    +0.020 A 
ATOM     36 CL   UNL     1       1.502  -3.055   0.062  0.00  0.00    -0.083 Cl
ENDBRANCH  29  32
ENDBRANCH  28  29
ENDBRANCH   1  28
TORSDOF 6
