REMARK  Name = ZINC13442878
REMARK  9 active torsions:
REMARK  status: ('A' for Active; 'I' for Inactive)
REMARK    1  A    between atoms: C_1  and  C_2
REMARK    2  A    between atoms: C_5  and  C_32
REMARK    3  A    between atoms: N_8  and  S_10
REMARK    4  A    between atoms: S_10  and  C_13
REMARK    5  A    between atoms: C_17  and  C_19
REMARK    6  A    between atoms: N_21  and  C_22
REMARK    7  A    between atoms: C_22  and  C_23
REMARK    8  A    between atoms: C_23  and  C_24
REMARK    9  A    between atoms: C_27  and  C_30
REMARK                            x       y       z     vdW  Elec       q    Type
REMARK                         _______ _______ _______ _____ _____    ______ ____
ROOT
ATOM      1  C   UNL     1       1.167   3.166   0.007  0.00  0.00    +0.106 A 
ATOM      2  C   UNL     1       1.177   1.782   0.000  0.00  0.00    +0.028 A 
ATOM      3  C   UNL     1      -0.013   1.076   0.008  0.00  0.00    +0.003 A 
ATOM      4  C   UNL     1      -1.218   1.748   0.017  0.00  0.00    +0.013 A 
ATOM      5  C   UNL     1      -1.235   3.143   0.030  0.00  0.00    +0.039 A 
ATOM      6  C   UNL     1      -0.031   3.850   0.022  0.00  0.00    +0.041 A 
ENDROOT
BRANCH   5   7
ATOM      7  C   UNL     1      -2.522   3.870   0.046  0.00  0.00    +0.244 C 
ATOM      8  O   UNL     1      -2.534   5.085   0.052  0.00  0.00    -0.270 OA
ATOM      9  N   UNL     1      -3.683   3.185   0.054  0.00  0.00    -0.311 N 
ATOM     10  H   UNL     1      -3.673   2.215   0.049  0.00  0.00    +0.149 HD
BRANCH   9  11
ATOM     11  C   UNL     1      -4.958   3.905   0.069  0.00  0.00    +0.109 C 
BRANCH  11  12
ATOM     12  C   UNL     1      -6.112   2.899   0.076  0.00  0.00    +0.054 C 
BRANCH  12  13
ATOM     13  C   UNL     1      -7.424   3.640   0.092  0.00  0.00    -0.046 A 
ATOM     14  C   UNL     1      -8.015   3.968   1.299  0.00  0.00    +0.004 A 
ATOM     15  C   UNL     1      -9.214   4.650   1.321  0.00  0.00    +0.015 A 
ATOM     16  C   UNL     1      -9.836   5.000   0.121  0.00  0.00    +0.063 A 
ATOM     17  C   UNL     1      -9.236   4.662  -1.094  0.00  0.00    +0.015 A 
ATOM     18  C   UNL     1      -8.035   3.984  -1.101  0.00  0.00    +0.004 A 
BRANCH  16  19
ATOM     19  C   UNL     1     -11.122   5.726   0.137  0.00  0.00    +0.387 C 
ATOM     20  O   UNL     1     -11.661   6.030  -0.909  0.00  0.00    -0.241 OA
ATOM     21  O   UNL     1     -11.698   6.051   1.310  0.00  0.00    -0.241 OA
ENDBRANCH  16  19
ENDBRANCH  12  13
ENDBRANCH  11  12
ENDBRANCH   9  11
ENDBRANCH   5   7
BRANCH   1  22
ATOM     22  S   UNL     1       2.688   4.056  -0.003  0.00  0.00    +0.061 S 
ATOM     23  O   UNL     1       2.414   5.333   0.557  0.00  0.00    -0.153 OA
ATOM     24  O   UNL     1       3.672   3.184   0.534  0.00  0.00    -0.153 OA
BRANCH  22  30
ATOM     25  C   UNL     1       4.090   2.028  -4.440  0.00  0.00    +0.009 C 
ATOM     26  C   UNL     1       3.189   2.939  -3.603  0.00  0.00    +0.002 C 
ATOM     27  C   UNL     1       2.853   4.200  -4.404  0.00  0.00    +0.009 C 
ATOM     28  C   UNL     1       1.926   5.097  -3.580  0.00  0.00    +0.002 C 
ATOM     29  C   UNL     1       2.640   5.518  -2.292  0.00  0.00    +0.112 C 
ATOM     30  N   UNL     1       3.095   4.311  -1.588  0.00  0.00    -0.176 NA
ATOM     31  C   UNL     1       3.922   3.339  -2.314  0.00  0.00    +0.112 C 
ATOM     32  C   UNL     1       0.651   4.327  -3.229  0.00  0.00    +0.009 C 
ENDBRANCH  22  30
ENDBRANCH   1  22
TORSDOF 7
