REMARK  Name = ZINC36531025
REMARK  9 active torsions:
REMARK  status: ('A' for Active; 'I' for Inactive)
REMARK    1  A    between atoms: C_1  and  N_2
REMARK    2  A    between atoms: N_2  and  C_3
REMARK    3  A    between atoms: C_3  and  C_5
REMARK    4  A    between atoms: C_3  and  C_12
REMARK    5  A    between atoms: C_10  and  O_11
REMARK    6  A    between atoms: N_14  and  C_15
REMARK    7  A    between atoms: C_21  and  C_23
REMARK    8  A    between atoms: C_24  and  O_30
REMARK    9  A    between atoms: C_28  and  O_29
REMARK                            x       y       z     vdW  Elec       q    Type
REMARK                         _______ _______ _______ _____ _____    ______ ____
ROOT
ATOM      1  C   UNL     1       0.148  -0.748   1.279  0.00  0.00    +0.196 C 
ENDROOT
BRANCH   1   2
ATOM      2  C   UNL     1      -1.030   0.006   1.840  0.00  0.00    +0.023 A 
ATOM      3  C   UNL     1      -0.833   1.195   2.515  0.00  0.00    +0.009 A 
ATOM      4  C   UNL     1      -1.913   1.887   3.030  0.00  0.00    +0.001 A 
ATOM      5  C   UNL     1      -3.194   1.391   2.872  0.00  0.00    +0.004 A 
ATOM      6  C   UNL     1      -3.397   0.203   2.197  0.00  0.00    +0.046 A 
ATOM      7  C   UNL     1      -2.315  -0.491   1.675  0.00  0.00    +0.122 A 
BRANCH   7   8
ATOM      8  O   UNL     1      -2.513  -1.657   1.006  0.00  0.00    -0.506 OA
ATOM      9  H   UNL     1      -2.572  -2.434   1.579  0.00  0.00    +0.292 HD
ENDBRANCH   7   8
ENDBRANCH   1   2
BRANCH   1  11
ATOM     10  C   UNL     1       0.265   0.834  -0.702  0.00  0.00    +0.133 C 
ATOM     11  N   UNL     1       0.223  -0.530  -0.168  0.00  0.00    -0.285 N 
ATOM     12  C   UNL     1       0.254  -1.583  -1.007  0.00  0.00    +0.254 C 
ATOM     13  O   UNL     1       0.219  -2.715  -0.564  0.00  0.00    -0.270 OA
BRANCH  12  14
ATOM     14  C   UNL     1       0.329  -1.364  -2.461  0.00  0.00    +0.119 A 
ATOM     15  C   UNL     1       1.575  -1.278  -3.099  0.00  0.00    +0.133 A 
ATOM     16  C   UNL     1       1.635  -1.072  -4.468  0.00  0.00    +0.046 A 
ATOM     17  C   UNL     1       0.472  -0.952  -5.205  0.00  0.00    +0.007 A 
ATOM     18  C   UNL     1      -0.762  -1.034  -4.586  0.00  0.00    +0.046 A 
ATOM     19  C   UNL     1      -0.845  -1.246  -3.220  0.00  0.00    +0.133 A 
BRANCH  19  20
ATOM     20  O   UNL     1      -2.057  -1.333  -2.616  0.00  0.00    -0.506 OA
ATOM     21  H   UNL     1      -2.405  -0.484  -2.309  0.00  0.00    +0.292 HD
ENDBRANCH  19  20
BRANCH  15  22
ATOM     22  O   UNL     1       2.719  -1.396  -2.378  0.00  0.00    -0.506 OA
ATOM     23  H   UNL     1       3.043  -2.303  -2.300  0.00  0.00    +0.292 HD
ENDBRANCH  15  22
ENDBRANCH  12  14
ENDBRANCH   1  11
BRANCH   1  24
ATOM     24  C   UNL     1       1.415  -0.254   1.928  0.00  0.00    +0.238 C 
ATOM     25  O   UNL     1       2.116   0.553   1.355  0.00  0.00    -0.273 OA
ATOM     26  N   UNL     1       1.770  -0.709   3.146  0.00  0.00    -0.311 N 
ATOM     27  H   UNL     1       1.249  -1.406   3.574  0.00  0.00    +0.149 HD
BRANCH  26  28
ATOM     28  C   UNL     1       2.943  -0.151   3.823  0.00  0.00    +0.073 C 
ATOM     29  C   UNL     1       4.202  -0.879   3.346  0.00  0.00    +0.022 C 
ATOM     30  C   UNL     1       5.427  -0.296   4.054  0.00  0.00    +0.002 C 
ATOM     31  C   UNL     1       5.276  -0.476   5.566  0.00  0.00    +0.000 C 
ATOM     32  C   UNL     1       4.018   0.252   6.043  0.00  0.00    +0.002 C 
ATOM     33  C   UNL     1       2.792  -0.331   5.335  0.00  0.00    +0.022 C 
ENDBRANCH  26  28
ENDBRANCH   1  24
TORSDOF 8
