REMARK  Name = ZINC51850271
REMARK  2 active torsions:
REMARK  status: ('A' for Active; 'I' for Inactive)
REMARK    1  A    between atoms: C_1  and  C_2
REMARK    2  A    between atoms: C_2  and  N_8
REMARK                            x       y       z     vdW  Elec       q    Type
REMARK                         _______ _______ _______ _____ _____    ______ ____
ROOT
ATOM      1  N   UNL     1      -1.366  -0.512   0.133  0.00  0.00    -0.324 N 
ATOM      2  C   UNL     1      -2.155  -0.110   1.198  0.00  0.00    +0.124 A 
ATOM      3  C   UNL     1      -1.698   0.860   2.093  0.00  0.00    +0.063 A 
ATOM      4  C   UNL     1      -2.521   1.227   3.139  0.00  0.00    +0.117 A 
ATOM      5  N   UNL     1      -3.709   0.651   3.261  0.00  0.00    -0.226 NA
ATOM      6  C   UNL     1      -4.112  -0.263   2.400  0.00  0.00    +0.224 A 
ATOM      7  N   UNL     1      -3.361  -0.639   1.383  0.00  0.00    -0.203 NA
ATOM      8 CL   UNL     1      -5.677  -0.986   2.606  0.00  0.00    -0.041 Cl
ATOM      9  H   UNL     1      -1.726  -1.114  -0.537  0.00  0.00    +0.148 HD
ENDROOT
BRANCH   1  11
ATOM     10  C   UNL     1       0.003   1.488  -0.197  0.00  0.00    +0.031 C 
ATOM     11  C   UNL     1       0.012  -0.027   0.018  0.00  0.00    +0.031 C 
ATOM     12  C   UNL     1       0.694  -0.706  -1.171  0.00  0.00    +0.025 C 
ATOM     13  C   UNL     1       0.703  -2.221  -0.957  0.00  0.00    +0.002 C 
ATOM     14  C   UNL     1       1.468  -2.550   0.327  0.00  0.00    +0.000 C 
ATOM     15  C   UNL     1       0.786  -1.870   1.516  0.00  0.00    +0.002 C 
ATOM     16  C   UNL     1       0.777  -0.355   1.301  0.00  0.00    +0.025 C 
ENDBRANCH   1  11
TORSDOF 1
