REMARK  Name = ZINC12385442
REMARK  5 active torsions:
REMARK  status: ('A' for Active; 'I' for Inactive)
REMARK    1  A    between atoms: C_7  and  C_11
REMARK    2  A    between atoms: C_11  and  N_54
REMARK    3  A    between atoms: C_15  and  C_18
REMARK    4  A    between atoms: C_18  and  N_19
REMARK    5  A    between atoms: C_20  and  C_22
REMARK                            x       y       z     vdW  Elec       q    Type
REMARK                         _______ _______ _______ _____ _____    ______ ____
ROOT
ATOM      1  C   UNL     1       3.296  -1.548   1.782  0.00  0.00    -0.078 C 
ATOM      2  C   UNL     1       3.584  -1.885   3.246  0.00  0.00    -0.018 C 
ATOM      3  C   UNL     1       3.817  -3.393   3.381  0.00  0.00    +0.001 C 
ATOM      4  C   UNL     1       2.585  -4.139   2.862  0.00  0.00    -0.011 C 
ATOM      5  C   UNL     1       2.325  -3.737   1.409  0.00  0.00    -0.073 C 
ATOM      6  N   UNL     1       2.085  -2.279   1.350  0.00  0.00    +0.383 N 
ATOM      7  H   UNL     1       1.311  -2.043   1.982  0.00  0.00    -0.081 HD
ENDROOT
BRANCH   6   8
ATOM      8  C   UNL     1       1.719  -1.883  -0.025  0.00  0.00    -0.041 C 
BRANCH   8  15
ATOM      9  C   UNL     1       4.026   2.198  -0.024  0.00  0.00    +0.001 A 
ATOM     10  C   UNL     1       3.180   3.298  -0.011  0.00  0.00    +0.002 A 
ATOM     11  C   UNL     1       1.812   3.132   0.002  0.00  0.00    +0.026 A 
ATOM     12  C   UNL     1       1.272   1.850  -0.000  0.00  0.00    +0.047 A 
ATOM     13  C   UNL     1       2.134   0.739  -0.014  0.00  0.00    +0.001 A 
ATOM     14  C   UNL     1       3.517   0.930  -0.026  0.00  0.00    +0.010 A 
ATOM     15  C   UNL     1       1.270  -0.444  -0.012  0.00  0.00    -0.039 A 
ATOM     16  C   UNL     1       0.002  -0.004   0.002  0.00  0.00    +0.085 A 
ATOM     17  N   UNL     1      -0.017   1.364   0.009  0.00  0.00    -0.360 N 
ATOM     18  H   UNL     1      -0.818   1.911   0.017  0.00  0.00    +0.165 HD
ENDBRANCH   8  15
ENDBRANCH   6   8
BRANCH   4  19
ATOM     19  C   UNL     1       2.832  -5.647   2.938  0.00  0.00    +0.106 C 
BRANCH  19  20
ATOM     20  N   UNL     1       2.962  -6.051   4.340  0.00  0.00    -0.311 N 
ATOM     21  C   UNL     1       3.185  -7.343   4.652  0.00  0.00    +0.244 C 
ATOM     22  O   UNL     1       3.279  -8.174   3.769  0.00  0.00    -0.270 OA
ATOM     23  H   UNL     1       2.887  -5.388   5.045  0.00  0.00    +0.149 HD
BRANCH  21  24
ATOM     24  C   UNL     1       3.316  -7.750   6.065  0.00  0.00    +0.040 A 
ATOM     25  C   UNL     1       3.215  -6.796   7.080  0.00  0.00    +0.017 A 
ATOM     26  C   UNL     1       3.331  -7.178   8.399  0.00  0.00    +0.050 A 
ATOM     27  C   UNL     1       3.562  -8.508   8.723  0.00  0.00    +0.166 A 
ATOM     28  C   UNL     1       3.670  -9.465   7.713  0.00  0.00    +0.167 A 
ATOM     29  C   UNL     1       3.548  -9.089   6.390  0.00  0.00    +0.062 A 
ATOM     30  O   UNL     1       3.894 -10.683   8.289  0.00  0.00    -0.453 OA
ATOM     31  C   UNL     1       4.328 -10.398   9.632  0.00  0.00    +0.466 C 
ATOM     32  O   UNL     1       3.717  -9.128   9.928  0.00  0.00    -0.453 OA
ENDBRANCH  21  24
ENDBRANCH  19  20
ENDBRANCH   4  19
TORSDOF 5
