REMARK  Name = ZINC09118212
REMARK  11 active torsions:
REMARK  status: ('A' for Active; 'I' for Inactive)
REMARK    1  A    between atoms: C_1  and  C_2
REMARK    2  A    between atoms: C_6  and  N_8
REMARK    3  A    between atoms: C_9  and  C_11
REMARK    4  A    between atoms: C_11  and  C_13
REMARK    5  A    between atoms: C_11  and  N_16
REMARK    6  A    between atoms: C_13  and  C_14
REMARK    7  A    between atoms: C_13  and  C_15
REMARK    8  A    between atoms: N_16  and  S_17
REMARK    9  A    between atoms: S_17  and  C_20
REMARK   10  A    between atoms: C_27  and  C_33
REMARK   11  A    between atoms: C_30  and  C_32
REMARK                            x       y       z     vdW  Elec       q    Type
REMARK                         _______ _______ _______ _____ _____    ______ ____
ROOT
ATOM      1  N   UNL     1      -2.470  -4.274  -0.446  0.00  0.00    -0.178 NA
ATOM      2  H   UNL     1      -1.708  -4.691  -0.013  0.00  0.00    +0.149 HD
ENDROOT
BRANCH   1   3
ATOM      3  S   UNL     1      -3.564  -5.205  -1.270  0.00  0.00    +0.059 S 
ATOM      4  O   UNL     1      -3.102  -6.546  -1.186  0.00  0.00    -0.153 OA
ATOM      5  O   UNL     1      -4.853  -4.813  -0.818  0.00  0.00    -0.153 OA
BRANCH   3   6
ATOM      6  C   UNL     1      -3.464  -4.744  -2.968  0.00  0.00    +0.106 A 
ATOM      7  C   UNL     1      -2.584  -5.395  -3.813  0.00  0.00    +0.030 A 
ATOM      8  C   UNL     1      -2.504  -5.037  -5.141  0.00  0.00    +0.026 A 
ATOM      9  C   UNL     1      -3.310  -4.014  -5.645  0.00  0.00    +0.040 A 
ATOM     10  C   UNL     1      -4.188  -3.368  -4.790  0.00  0.00    -0.022 A 
ATOM     11  C   UNL     1      -4.270  -3.734  -3.461  0.00  0.00    +0.034 A 
ATOM     12  C   UNL     1      -4.935  -2.313  -5.576  0.00  0.00    +0.059 C 
ATOM     13  C   UNL     1      -4.378  -2.427  -7.004  0.00  0.00    +0.083 C 
ATOM     14  N   UNL     1      -3.384  -3.502  -6.944  0.00  0.00    -0.268 N 
ATOM     15  C   UNL     1      -2.649  -3.933  -7.988  0.00  0.00    +0.217 C 
ATOM     16  O   UNL     1      -1.917  -4.892  -7.859  0.00  0.00    -0.276 OA
ATOM     17  C   UNL     1      -2.735  -3.225  -9.315  0.00  0.00    +0.109 C 
ATOM     18  C   UNL     1      -3.717  -1.112  -7.423  0.00  0.00    +0.029 C 
ENDBRANCH   3   6
ENDBRANCH   1   3
BRANCH   1  19
ATOM     19  C   UNL     1      -2.653  -2.823  -0.369  0.00  0.00    +0.165 C 
BRANCH  19  21
ATOM     20  N   UNL     1      -1.226  -0.813  -0.583  0.00  0.00    -0.269 N 
ATOM     21  C   UNL     1      -1.307  -2.145  -0.391  0.00  0.00    +0.237 C 
ATOM     22  O   UNL     1      -0.297  -2.798  -0.235  0.00  0.00    -0.274 OA
ATOM     23  H   UNL     1      -2.035  -0.287  -0.675  0.00  0.00    +0.156 HD
BRANCH  20  29
ATOM     24  C   UNL     1       1.366   2.971  -1.961  0.00  0.00    +0.065 C 
ATOM     25  C   UNL     1       1.292   1.618  -1.302  0.00  0.00    +0.040 A 
ATOM     26  C   UNL     1       2.441   1.044  -0.793  0.00  0.00    +0.023 A 
ATOM     27  C   UNL     1       2.367  -0.203  -0.188  0.00  0.00    +0.005 A 
ATOM     28  C   UNL     1       1.135  -0.830  -0.115  0.00  0.00    +0.044 A 
ATOM     29  C   UNL     1       0.021  -0.193  -0.648  0.00  0.00    +0.125 A 
ATOM     30  N   UNL     1       0.132   0.996  -1.219  0.00  0.00    -0.237 NA
ENDBRANCH  20  29
ENDBRANCH  19  21
BRANCH  19  31
ATOM     31  C   UNL     1      -3.382  -2.468   0.928  0.00  0.00    +0.010 C 
ATOM     32  C   UNL     1      -2.517  -2.870   2.125  0.00  0.00    +0.009 C 
ATOM     33  C   UNL     1      -3.643  -0.962   0.971  0.00  0.00    +0.009 C 
ENDBRANCH  19  31
ENDBRANCH   1  19
TORSDOF 6
