REMARK  Name = ZINC20566752
REMARK  5 active torsions:
REMARK  status: ('A' for Active; 'I' for Inactive)
REMARK    1  A    between atoms: C_1  and  C_2
REMARK    2  A    between atoms: C_5  and  O_22
REMARK    3  A    between atoms: C_8  and  C_21
REMARK    4  A    between atoms: C_11  and  N_13
REMARK    5  A    between atoms: N_13  and  C_14
REMARK                            x       y       z     vdW  Elec       q    Type
REMARK                         _______ _______ _______ _____ _____    ______ ____
ROOT
ATOM      1  C   UNL     1      -2.118   3.931  -2.848  0.00  0.00    +0.044 C 
ATOM      2  C   UNL     1      -2.106   3.924  -1.341  0.00  0.00    -0.046 A 
ATOM      3  C   UNL     1      -2.685   4.967  -0.645  0.00  0.00    +0.007 A 
ATOM      4  C   UNL     1      -2.677   4.964   0.736  0.00  0.00    +0.046 A 
ATOM      5  C   UNL     1      -2.087   3.913   1.421  0.00  0.00    +0.122 A 
ATOM      6  C   UNL     1      -1.505   2.864   0.720  0.00  0.00    +0.018 A 
ATOM      7  C   UNL     1      -1.516   2.872  -0.662  0.00  0.00    -0.033 A 
ATOM      8  C   UNL     1      -0.826   1.630  -1.186  0.00  0.00    +0.019 C 
ATOM      9  C   UNL     1      -0.013   1.086   0.008  0.00  0.00    +0.035 C 
ATOM     10  C   UNL     1      -0.803   1.617   1.223  0.00  0.00    +0.105 C 
ATOM     11  C   UNL     1      -1.859   0.597  -1.639  0.00  0.00    +0.012 C 
ENDROOT
BRANCH  10  12
ATOM     12  N   UNL     1      -1.786   0.624   1.664  0.00  0.00    -0.337 N 
ATOM     13  H   UNL     1      -2.171  -0.121   0.953  0.00  0.00    +0.147 HD
BRANCH  12  14
ATOM     14  C   UNL     1      -2.233   0.624   2.987  0.00  0.00    +0.028 A 
ATOM     15  C   UNL     1      -1.743   1.562   3.888  0.00  0.00    +0.024 A 
ATOM     16  C   UNL     1      -2.192   1.563   5.194  0.00  0.00    +0.017 A 
ATOM     17  C   UNL     1      -3.120   0.625   5.609  0.00  0.00    +0.018 A 
ATOM     18  C   UNL     1      -3.606  -0.314   4.716  0.00  0.00    +0.017 A 
ATOM     19  C   UNL     1      -3.165  -0.316   3.407  0.00  0.00    +0.024 A 
ATOM     20 BR   UNL     1      -3.726   0.625   7.400  0.00  0.00    -0.050 Br
ENDBRANCH  12  14
ENDBRANCH  10  12
BRANCH   5  21
ATOM     21  O   UNL     1      -2.078   3.908   2.780  0.00  0.00    -0.506 OA
ATOM     22  H   UNL     1      -1.611   3.074   3.324  0.00  0.00    +0.292 HD
ENDBRANCH   5  21
TORSDOF 3
