REMARK  Name = ZINC25463624
REMARK  10 active torsions:
REMARK  status: ('A' for Active; 'I' for Inactive)
REMARK    1  A    between atoms: C_1  and  C_2
REMARK    2  A    between atoms: C_2  and  C_3
REMARK    3  A    between atoms: C_7  and  N_9
REMARK    4  A    between atoms: C_13  and  C_27
REMARK    5  A    between atoms: C_14  and  N_22
REMARK    6  A    between atoms: C_18  and  N_20
REMARK    7  A    between atoms: N_22  and  C_23
REMARK    8  A    between atoms: N_22  and  C_24
REMARK    9  A    between atoms: C_24  and  C_25
REMARK   10  A    between atoms: C_24  and  C_26
REMARK                            x       y       z     vdW  Elec       q    Type
REMARK                         _______ _______ _______ _____ _____    ______ ____
ROOT
ATOM      1  N   UNL     1      -3.586   1.330   7.700  0.00  0.00    -0.224 N 
ATOM      2  C   UNL     1      -2.662   0.830   6.786  0.00  0.00    +0.138 A 
ATOM      3  C   UNL     1      -2.581   1.666   5.686  0.00  0.00    +0.011 A 
ATOM      4  C   UNL     1      -1.714   1.356   4.644  0.00  0.00    +0.016 A 
ATOM      5  C   UNL     1      -1.565   2.182   3.447  0.00  0.00    +0.100 A 
ATOM      6  C   UNL     1      -0.654   1.752   2.469  0.00  0.00    +0.141 A 
ATOM      7  N   UNL     1       0.043   0.634   2.624  0.00  0.00    -0.216 NA
ATOM      8  C   UNL     1      -0.051  -0.143   3.688  0.00  0.00    +0.129 A 
ATOM      9  C   UNL     1      -0.930   0.176   4.741  0.00  0.00    +0.063 A 
ATOM     10  C   UNL     1      -1.068  -0.624   5.889  0.00  0.00    +0.129 A 
ATOM     11  N   UNL     1      -1.909  -0.275   6.844  0.00  0.00    -0.216 NA
ATOM     12  N   UNL     1       0.717  -1.285   3.766  0.00  0.00    -0.343 N 
ATOM     13  C   UNL     1      -3.546   2.801   5.935  0.00  0.00    +0.136 C 
ATOM     14  C   UNL     1      -4.149   2.477   7.285  0.00  0.00    +0.230 C 
ATOM     15  O   UNL     1      -4.982   3.128   7.879  0.00  0.00    -0.275 OA
ATOM     16  H   UNL     1       0.645  -1.938   4.649  0.00  0.00    +0.144 HD
ATOM     17  H   UNL     1       1.403  -1.544   2.946  0.00  0.00    +0.144 HD
ENDROOT
BRANCH   1  22
ATOM     18  C   UNL     1      -5.128   0.659  10.971  0.00  0.00    -0.046 A 
ATOM     19  C   UNL     1      -4.498  -0.522  11.320  0.00  0.00    +0.004 A 
ATOM     20  C   UNL     1      -3.567  -1.089  10.470  0.00  0.00    +0.002 A 
ATOM     21  C   UNL     1      -3.266  -0.481   9.267  0.00  0.00    +0.024 A 
ATOM     22  C   UNL     1      -3.892   0.708   8.916  0.00  0.00    +0.043 A 
ATOM     23  C   UNL     1      -4.827   1.275   9.772  0.00  0.00    +0.027 A 
BRANCH  18  25
ATOM     24  C   UNL     1      -7.534   0.732  11.566  0.00  0.00    +0.009 C 
ATOM     25  C   UNL     1      -6.143   1.274  11.900  0.00  0.00    +0.032 C 
ENDBRANCH  18  25
ENDBRANCH   1  22
BRANCH  10  26
ATOM     26  N   UNL     1      -0.321  -1.780   6.017  0.00  0.00    -0.343 N 
ATOM     27  H   UNL     1      -0.428  -2.407   6.915  0.00  0.00    +0.144 HD
ATOM     28  H   UNL     1       0.380  -2.074   5.222  0.00  0.00    +0.144 HD
ENDBRANCH  10  26
BRANCH   6  29
ATOM     29  N   UNL     1      -0.484   2.505   1.323  0.00  0.00    -0.315 N 
ATOM     30  C   UNL     1      -0.957   1.775   0.139  0.00  0.00    +0.131 C 
BRANCH  29  31
ATOM     31  C   UNL     1       0.918   2.913   1.164  0.00  0.00    +0.068 C 
ATOM     32  C   UNL     1       1.361   3.708   2.394  0.00  0.00    +0.028 C 
ATOM     33  C   UNL     1       1.057   3.786  -0.085  0.00  0.00    +0.028 C 
ENDBRANCH  29  31
ENDBRANCH   6  29
BRANCH   5  34
ATOM     34  C   UNL     1      -2.321   3.386   3.278  0.00  0.00    +0.103 C 
ATOM     35  N   UNL     1      -2.921   4.341   3.144  0.00  0.00    -0.191 NA
ENDBRANCH   5  34
TORSDOF 6
