REMARK  Name = ZINC01095833
REMARK  6 active torsions:
REMARK  status: ('A' for Active; 'I' for Inactive)
REMARK    1  A    between atoms: C_1  and  C_2
REMARK    2  A    between atoms: C_3  and  N_9
REMARK    3  A    between atoms: C_4  and  C_8
REMARK    4  A    between atoms: N_5  and  C_7
REMARK    5  A    between atoms: C_10  and  C_11
REMARK    6  A    between atoms: C_20  and  O_21
REMARK                            x       y       z     vdW  Elec       q    Type
REMARK                         _______ _______ _______ _____ _____    ______ ____
ROOT
ATOM      1  C   UNL     1       1.105   0.271  -4.469  0.00  0.00    +0.042 A 
ATOM      2  C   UNL     1       2.356   0.515  -5.189  0.00  0.00    -0.006 A 
ATOM      3  C   UNL     1       3.599   0.324  -4.576  0.00  0.00    +0.010 A 
ATOM      4  C   UNL     1       4.742   0.561  -5.280  0.00  0.00    +0.016 A 
ATOM      5  C   UNL     1       4.689   0.992  -6.604  0.00  0.00    +0.018 A 
ATOM      6  C   UNL     1       3.494   1.188  -7.231  0.00  0.00    +0.023 A 
ATOM      7  C   UNL     1       2.297   0.952  -6.534  0.00  0.00    -0.016 A 
ATOM      8  C   UNL     1       1.046   1.142  -7.148  0.00  0.00    +0.012 A 
ATOM      9  C   UNL     1      -0.106   0.912  -6.466  0.00  0.00    +0.046 A 
ATOM     10  C   UNL     1      -0.102   0.476  -5.142  0.00  0.00    +0.126 A 
ATOM     11 BR   UNL     1       6.297   1.311  -7.546  0.00  0.00    -0.050 Br
ENDROOT
BRANCH   1  13
ATOM     12  N   UNL     1      -0.005  -0.401  -2.449  0.00  0.00    -0.251 NA
ATOM     13  C   UNL     1       1.119  -0.183  -3.075  0.00  0.00    +0.123 C 
BRANCH  12  16
ATOM     14  C   UNL     1      -0.018   1.503   0.010  0.00  0.00    +0.070 C 
ATOM     15  C   UNL     1       0.002  -0.004   0.002  0.00  0.00    +0.085 A 
ATOM     16  C   UNL     1       0.008  -0.826  -1.145  0.00  0.00    +0.107 A 
ATOM     17  C   UNL     1       0.028  -2.133  -0.713  0.00  0.00    +0.061 A 
ATOM     18  N   UNL     1       0.034  -2.111   0.637  0.00  0.00    -0.269 N 
ATOM     19  N   UNL     1       0.023  -0.776   1.056  0.00  0.00    -0.174 NA
ATOM     20  C   UNL     1       0.054  -3.285   1.514  0.00  0.00    +0.172 C 
ATOM     21  C   UNL     1       0.041  -3.362  -1.585  0.00  0.00    +0.067 C 
ENDBRANCH  12  16
ENDBRANCH   1  13
BRANCH  10  22
ATOM     22  O   UNL     1      -1.277   0.253  -4.501  0.00  0.00    -0.506 OA
ATOM     23  H   UNL     1      -1.627   1.028  -4.042  0.00  0.00    +0.292 HD
ENDBRANCH  10  22
TORSDOF 3
