REMARK  Name = ZINC39669679
REMARK  11 active torsions:
REMARK  status: ('A' for Active; 'I' for Inactive)
REMARK    1  A    between atoms: C_1  and  C_2
REMARK    2  A    between atoms: C_2  and  C_3
REMARK    3  A    between atoms: C_3  and  C_4
REMARK    4  A    between atoms: C_3  and  C_6
REMARK    5  A    between atoms: C_4  and  C_5
REMARK    6  A    between atoms: C_10  and  C_19
REMARK    7  A    between atoms: N_21  and  C_22
REMARK    8  A    between atoms: C_22  and  C_23
REMARK    9  A    between atoms: C_23  and  C_24
REMARK   10  A    between atoms: C_23  and  C_25
REMARK   11  A    between atoms: C_23  and  N_26
REMARK                            x       y       z     vdW  Elec       q    Type
REMARK                         _______ _______ _______ _____ _____    ______ ____
ROOT
ATOM      1  C   UNL     1       1.910  -1.780   0.199  0.00  0.00    +0.219 C 
ATOM      2  O   UNL     1       1.156  -2.473   0.849  0.00  0.00    -0.275 OA
ATOM      3  N   UNL     1       2.821  -2.352  -0.612  0.00  0.00    -0.300 N 
ATOM      4  C   UNL     1       3.881  -1.683  -1.403  0.00  0.00    +0.121 C 
ATOM      5  C   UNL     1       5.106  -2.617  -1.284  0.00  0.00    +0.100 C 
ATOM      6  C   UNL     1       4.514  -4.001  -0.967  0.00  0.00    -0.004 C 
ATOM      7  C   UNL     1       2.993  -3.794  -0.912  0.00  0.00    +0.115 C 
ATOM      8  C   UNL     1       4.873  -4.994  -2.067  0.00  0.00    -0.010 C 
ATOM      9  C   UNL     1       4.323  -6.376  -1.701  0.00  0.00    -0.082 C 
ATOM     10  N   UNL     1       4.894  -6.808  -0.420  0.00  0.00    +0.379 N 
ATOM     11  C   UNL     1       4.466  -5.898   0.650  0.00  0.00    -0.082 C 
ATOM     12  C   UNL     1       5.023  -4.496   0.384  0.00  0.00    -0.010 C 
ATOM     13  H   UNL     1       4.578  -7.743  -0.210  0.00  0.00    -0.086 HD
ATOM     14  H   UNL     1       5.901  -6.802  -0.482  0.00  0.00    -0.086 HD
ENDROOT
BRANCH   5  15
ATOM     15  C   UNL     1       6.008  -2.161  -0.166  0.00  0.00    +0.218 C 
ATOM     16  O   UNL     1       5.538  -1.599   0.801  0.00  0.00    -0.275 OA
ATOM     17  N   UNL     1       7.336  -2.378  -0.240  0.00  0.00    -0.313 N 
ATOM     18  H   UNL     1       7.720  -2.761  -1.044  0.00  0.00    +0.149 HD
BRANCH  17  19
ATOM     19  C   UNL     1       8.199  -2.034   0.892  0.00  0.00    +0.126 C 
BRANCH  19  20
ATOM     20  C   UNL     1       9.663  -2.247   0.501  0.00  0.00    +0.032 C 
ATOM     21  C   UNL     1      10.011  -1.341  -0.682  0.00  0.00    +0.029 C 
ATOM     22  C   UNL     1      10.563  -1.903   1.689  0.00  0.00    +0.029 C 
BRANCH  20  23
ATOM     23  N   UNL     1       9.869  -3.651   0.120  0.00  0.00    -0.291 NA
ATOM     24  C   UNL     1       9.536  -4.553   1.233  0.00  0.00    +0.113 C 
ATOM     25  C   UNL     1       9.708  -6.003   0.775  0.00  0.00    +0.175 C 
ATOM     26  O   UNL     1      11.045  -6.195   0.304  0.00  0.00    -0.377 OA
ATOM     27  C   UNL     1      11.402  -5.332  -0.780  0.00  0.00    +0.175 C 
ATOM     28  C   UNL     1      11.248  -3.875  -0.338  0.00  0.00    +0.113 C 
ENDBRANCH  20  23
ENDBRANCH  19  20
ENDBRANCH  17  19
ENDBRANCH   5  15
BRANCH   1  29
ATOM     29  C   UNL     1       1.828  -0.278   0.300  0.00  0.00    +0.075 C 
BRANCH  29  31
ATOM     30  C   UNL     1       1.264   1.780  -1.000  0.00  0.00    +0.004 C 
ATOM     31  C   UNL     1       1.038   0.270  -0.889  0.00  0.00    +0.009 C 
ENDBRANCH  29  31
BRANCH  29  32
ATOM     32  C   UNL     1       1.124   0.108   1.602  0.00  0.00    +0.009 C 
ATOM     33  C   UNL     1       1.196   1.625   1.790  0.00  0.00    +0.004 C 
ENDBRANCH  29  32
ENDBRANCH   1  29
TORSDOF 7
