REMARK  Name = ZINC39167692
REMARK  8 active torsions:
REMARK  status: ('A' for Active; 'I' for Inactive)
REMARK    1  A    between atoms: C_1  and  C_2
REMARK    2  A    between atoms: C_2  and  C_3
REMARK    3  A    between atoms: C_3  and  C_4
REMARK    4  A    between atoms: C_6  and  C_24
REMARK    5  A    between atoms: C_8  and  C_22
REMARK    6  A    between atoms: C_9  and  N_21
REMARK    7  A    between atoms: N_10  and  C_15
REMARK    8  A    between atoms: C_25  and  C_30
REMARK                            x       y       z     vdW  Elec       q    Type
REMARK                         _______ _______ _______ _____ _____    ______ ____
ROOT
ATOM      1  C   UNL     1      -1.235  -1.532   0.119  0.00  0.00    +0.067 C 
ATOM      2  C   UNL     1      -1.449  -2.465   1.016  0.00  0.00    +0.010 C 
ATOM      3  C   UNL     1      -1.446  -2.477   2.519  0.00  0.00    +0.100 C 
ATOM      4  C   UNL     1      -0.673  -3.713   2.933  0.00  0.00    +0.075 C 
ATOM      5  C   UNL     1      -0.318  -4.664   2.063  0.00  0.00    +0.089 C 
ATOM      6  N   UNL     1      -0.575  -4.649   0.716  0.00  0.00    -0.261 N 
ATOM      7  C   UNL     1      -1.627  -3.754   0.212  0.00  0.00    +0.249 C 
ATOM      8  N   UNL     1      -1.361  -3.300  -1.156  0.00  0.00    -0.159 NA
ATOM      9  N   UNL     1      -1.190  -2.075  -1.124  0.00  0.00    -0.157 NA
ENDROOT
BRANCH   3  10
ATOM     10  C   UNL     1      -2.858  -2.548   3.039  0.00  0.00    +0.045 A 
ATOM     11  C   UNL     1      -3.510  -1.567   3.692  0.00  0.00    +0.140 A 
ATOM     12  O   UNL     1      -4.741  -2.012   3.988  0.00  0.00    -0.358 OA
ATOM     13  N   UNL     1      -4.856  -3.335   3.495  0.00  0.00    -0.066 NA
ATOM     14  C   UNL     1      -3.727  -3.649   2.923  0.00  0.00    +0.176 A 
ATOM     15 CL   UNL     1      -3.359  -5.162   2.155  0.00  0.00    -0.058 Cl
ATOM     16  C   UNL     1      -2.955  -0.207   4.030  0.00  0.00    +0.089 C 
ENDBRANCH   3  10
BRANCH   6  17
ATOM     17  C   UNL     1       0.148  -5.465  -0.158  0.00  0.00    +0.037 A 
ATOM     18  C   UNL     1      -0.516  -6.376  -0.970  0.00  0.00    +0.023 A 
ATOM     19  C   UNL     1       0.201  -7.181  -1.832  0.00  0.00    +0.002 A 
ATOM     20  C   UNL     1       1.579  -7.081  -1.889  0.00  0.00    +0.000 A 
ATOM     21  C   UNL     1       2.244  -6.175  -1.083  0.00  0.00    +0.002 A 
ATOM     22  C   UNL     1       1.532  -5.363  -0.222  0.00  0.00    +0.023 A 
ENDBRANCH   6  17
BRANCH   5  23
ATOM     23  N   UNL     1       0.375  -5.768   2.570  0.00  0.00    -0.404 NA
ATOM     24  H   UNL     1       0.415  -5.706   3.576  0.00  0.00    +0.122 HD
ATOM     25  H   UNL     1      -0.103  -6.616   2.304  0.00  0.00    +0.122 HD
ATOM     26  H   UNL     1       1.311  -5.778   2.195  0.00  0.00    +0.122 HD
ENDBRANCH   5  23
BRANCH   4  27
ATOM     27  C   UNL     1      -0.310  -3.869   4.309  0.00  0.00    +0.099 C 
ATOM     28  N   UNL     1      -0.022  -3.993   5.401  0.00  0.00    -0.191 NA
ENDBRANCH   4  27
BRANCH   1  29
ATOM     29  C   UNL     1      -1.070  -0.066   0.425  0.00  0.00    +0.057 C 
BRANCH  29  31
ATOM     30  C   UNL     1       0.587   1.755   0.851  0.00  0.00    +0.004 C 
ATOM     31  C   UNL     1       0.419   0.267   0.541  0.00  0.00    +0.003 C 
ENDBRANCH  29  31
ENDBRANCH   1  29
TORSDOF 6
