REMARK  Name = ZINC06963546
REMARK  6 active torsions:
REMARK  status: ('A' for Active; 'I' for Inactive)
REMARK    1  A    between atoms: C_1  and  C_2
REMARK    2  A    between atoms: C_4  and  N_27
REMARK    3  A    between atoms: C_9  and  C_18
REMARK    4  A    between atoms: C_21  and  C_24
REMARK    5  A    between atoms: C_24  and  C_25
REMARK    6  A    between atoms: C_24  and  C_26
REMARK                            x       y       z     vdW  Elec       q    Type
REMARK                         _______ _______ _______ _____ _____    ______ ____
ROOT
ATOM      1  C   UNL     1       4.292   4.693  -2.239  0.00  0.00    +0.046 C 
ATOM      2  C   UNL     1       2.936   4.336  -1.688  0.00  0.00    -0.027 A 
ATOM      3  C   UNL     1       1.907   5.249  -1.768  0.00  0.00    +0.038 A 
ATOM      4  C   UNL     1       0.658   4.935  -1.265  0.00  0.00    +0.127 A 
ATOM      5  C   UNL     1       0.448   3.703  -0.676  0.00  0.00    +0.038 A 
ATOM      6  C   UNL     1       1.473   2.786  -0.586  0.00  0.00    -0.017 A 
ATOM      7  C   UNL     1       2.737   3.084  -1.102  0.00  0.00    +0.034 A 
ATOM      8  N   UNL     1       3.814   2.200  -1.092  0.00  0.00    -0.336 N 
ATOM      9  C   UNL     1       3.610   0.917  -0.401  0.00  0.00    +0.105 C 
ATOM     10  C   UNL     1       2.200   0.461  -0.713  0.00  0.00    +0.029 C 
ATOM     11  C   UNL     1       1.283   1.466   0.053  0.00  0.00    +0.049 C 
ATOM     12  C   UNL     1      -0.027   0.771   0.080  0.00  0.00    -0.023 C 
ATOM     13  C   UNL     1       0.189  -0.540   0.049  0.00  0.00    -0.030 C 
ATOM     14  C   UNL     1       1.692  -0.819  -0.040  0.00  0.00    +0.033 C 
ATOM     15  H   UNL     1       4.654   2.656  -0.769  0.00  0.00    +0.147 HD
ENDROOT
BRANCH   9  16
ATOM     16  C   UNL     1       3.772   1.103   1.086  0.00  0.00    -0.027 A 
ATOM     17  C   UNL     1       3.582   2.350   1.651  0.00  0.00    +0.006 A 
ATOM     18  C   UNL     1       3.727   2.520   3.015  0.00  0.00    +0.004 A 
ATOM     19  C   UNL     1       4.071   1.445   3.813  0.00  0.00    -0.045 A 
ATOM     20  C   UNL     1       4.266   0.199   3.247  0.00  0.00    +0.004 A 
ATOM     21  C   UNL     1       4.118   0.028   1.883  0.00  0.00    +0.006 A 
BRANCH  19  22
ATOM     22  C   UNL     1       4.234   1.631   5.300  0.00  0.00    +0.013 C 
ATOM     23  C   UNL     1       5.336   2.659   5.567  0.00  0.00    +0.012 C 
ATOM     24  C   UNL     1       2.917   2.129   5.898  0.00  0.00    +0.012 C 
ENDBRANCH  19  22
ENDBRANCH   9  16
BRANCH   4  25
ATOM     25  N   UNL     1      -0.448   5.914  -1.358  0.00  0.00    +0.056 N 
ATOM     26  O   UNL     1      -1.548   5.635  -0.914  0.00  0.00    -0.126 OA
ATOM     27  O   UNL     1      -0.260   6.999  -1.878  0.00  0.00    -0.126 OA
ENDBRANCH   4  25
TORSDOF 3
