REMARK  Name = ZINC39696540
REMARK  11 active torsions:
REMARK  status: ('A' for Active; 'I' for Inactive)
REMARK    1  A    between atoms: C_1  and  C_2
REMARK    2  A    between atoms: C_2  and  C_3
REMARK    3  A    between atoms: C_2  and  C_4
REMARK    4  A    between atoms: C_2  and  S_5
REMARK    5  A    between atoms: S_5  and  C_6
REMARK    6  A    between atoms: C_6  and  C_7
REMARK    7  A    between atoms: C_7  and  N_8
REMARK    8  A    between atoms: C_9  and  C_11
REMARK    9  A    between atoms: C_22  and  C_24
REMARK   10  A    between atoms: C_27  and  O_31
REMARK   11  A    between atoms: O_31  and  C_32
REMARK                            x       y       z     vdW  Elec       q    Type
REMARK                         _______ _______ _______ _____ _____    ______ ____
ROOT
ATOM      1  C   UNL     1       6.535   0.896  -3.733  0.00  0.00    +0.100 C 
ATOM      2  C   UNL     1       6.738   2.424  -3.629  0.00  0.00    +0.121 C 
ATOM      3  N   UNL     1       8.000   2.685  -4.360  0.00  0.00    -0.296 N 
ATOM      4  C   UNL     1       7.941   1.780  -5.532  0.00  0.00    +0.115 C 
ATOM      5  C   UNL     1       7.325   0.477  -4.984  0.00  0.00    -0.004 C 
ATOM      6  C   UNL     1       6.389  -0.139  -6.019  0.00  0.00    -0.010 C 
ATOM      7  C   UNL     1       7.206  -0.601  -7.229  0.00  0.00    -0.082 C 
ATOM      8  N   UNL     1       8.208  -1.584  -6.799  0.00  0.00    +0.379 N 
ATOM      9  C   UNL     1       9.160  -0.956  -5.875  0.00  0.00    -0.082 C 
ATOM     10  C   UNL     1       8.426  -0.510  -4.607  0.00  0.00    -0.010 C 
ATOM     11  C   UNL     1       8.981   3.550  -4.032  0.00  0.00    +0.247 C 
ATOM     12  O   UNL     1       8.945   4.134  -2.966  0.00  0.00    -0.270 OA
ATOM     13  H   UNL     1       7.747  -2.352  -6.334  0.00  0.00    -0.086 HD
ATOM     14  H   UNL     1       8.704  -1.932  -7.606  0.00  0.00    -0.086 HD
ENDROOT
BRANCH  11  15
ATOM     15  C   UNL     1      10.098   3.787  -4.967  0.00  0.00    +0.040 A 
ATOM     16  C   UNL     1       9.950   3.489  -6.324  0.00  0.00    +0.036 A 
ATOM     17  C   UNL     1      10.995   3.713  -7.195  0.00  0.00    +0.085 A 
ATOM     18  C   UNL     1      12.196   4.233  -6.723  0.00  0.00    +0.157 A 
ATOM     19  C   UNL     1      12.346   4.531  -5.373  0.00  0.00    +0.085 A 
ATOM     20  C   UNL     1      11.303   4.316  -4.498  0.00  0.00    +0.036 A 
ATOM     21 CL   UNL     1      13.847   5.180  -4.791  0.00  0.00    -0.080 Cl
ATOM     22 CL   UNL     1      10.814   3.343  -8.881  0.00  0.00    -0.080 Cl
BRANCH  18  23
ATOM     23  O   UNL     1      13.223   4.451  -7.583  0.00  0.00    -0.492 OA
ATOM     24  C   UNL     1      13.286   5.735  -8.207  0.00  0.00    +0.277 C 
ENDBRANCH  18  23
ENDBRANCH  11  15
BRANCH   1  26
ATOM     25  N   UNL     1       4.582  -0.591  -3.430  0.00  0.00    -0.314 N 
ATOM     26  C   UNL     1       5.073   0.571  -3.903  0.00  0.00    +0.218 C 
ATOM     27  O   UNL     1       4.339   1.356  -4.465  0.00  0.00    -0.275 OA
ATOM     28  H   UNL     1       5.169  -1.219  -2.980  0.00  0.00    +0.149 HD
BRANCH  25  29
ATOM     29  C   UNL     1       3.160  -0.907  -3.595  0.00  0.00    +0.115 C 
BRANCH  29  30
ATOM     30  C   UNL     1       2.866  -2.274  -2.974  0.00  0.00    +0.088 C 
BRANCH  30  31
ATOM     31  S   UNL     1       1.107  -2.665  -3.179  0.00  0.00    -0.153 S 
BRANCH  31  33
ATOM     32  C   UNL     1       1.329  -4.202  -0.927  0.00  0.00    +0.022 C 
ATOM     33  C   UNL     1       0.926  -4.293  -2.400  0.00  0.00    +0.008 C 
ATOM     34  C   UNL     1       1.827  -5.303  -3.114  0.00  0.00    +0.022 C 
ATOM     35  C   UNL     1      -0.531  -4.749  -2.503  0.00  0.00    +0.022 C 
ENDBRANCH  31  33
ENDBRANCH  30  31
ENDBRANCH  29  30
ENDBRANCH  25  29
ENDBRANCH   1  26
TORSDOF 7
