REMARK  Name = ZINC37210652
REMARK  10 active torsions:
REMARK  status: ('A' for Active; 'I' for Inactive)
REMARK    1  A    between atoms: C_1  and  C_2
REMARK    2  A    between atoms: C_2  and  C_4
REMARK    3  A    between atoms: C_2  and  N_9
REMARK    4  A    between atoms: N_9  and  C_10
REMARK    5  A    between atoms: C_10  and  C_11
REMARK    6  A    between atoms: C_14  and  C_31
REMARK    7  A    between atoms: C_16  and  O_30
REMARK    8  A    between atoms: C_18  and  C_20
REMARK    9  A    between atoms: C_34  and  O_37
REMARK   10  A    between atoms: O_37  and  C_38
REMARK                            x       y       z     vdW  Elec       q    Type
REMARK                         _______ _______ _______ _____ _____    ______ ____
ROOT
ATOM      1  C   UNL     1      -3.440  -0.661   1.287  0.00  0.00    +0.218 C 
ATOM      2  O   UNL     1      -3.864  -1.283   0.335  0.00  0.00    -0.276 OA
ATOM      3  N   UNL     1      -4.233  -0.437   2.353  0.00  0.00    -0.184 N 
ATOM      4  C   UNL     1      -5.624  -0.893   2.496  0.00  0.00    +0.165 C 
ATOM      5  C   UNL     1      -6.037  -0.368   3.885  0.00  0.00    +0.192 C 
ATOM      6  C   UNL     1      -4.802   0.345   4.387  0.00  0.00    +0.099 C 
ATOM      7  N   UNL     1      -3.866   0.259   3.503  0.00  0.00    -0.178 NA
ENDROOT
BRANCH   6   8
ATOM      8  C   UNL     1      -4.683   1.026   5.686  0.00  0.00    +0.025 A 
ATOM      9  C   UNL     1      -5.645   1.125   6.643  0.00  0.00    +0.093 A 
ATOM     10  N   UNL     1      -5.164   1.831   7.706  0.00  0.00    -0.360 N 
ATOM     11  H   UNL     1      -5.667   2.031   8.511  0.00  0.00    +0.165 HD
ATOM     12  C   UNL     1      -3.862   2.217   7.473  0.00  0.00    +0.047 A 
ATOM     13  C   UNL     1      -3.498   1.730   6.207  0.00  0.00    +0.009 A 
ATOM     14  C   UNL     1      -2.219   1.969   5.708  0.00  0.00    +0.010 A 
ATOM     15  C   UNL     1      -1.314   2.681   6.464  0.00  0.00    +0.001 A 
ATOM     16  C   UNL     1      -1.671   3.160   7.716  0.00  0.00    +0.002 A 
ATOM     17  C   UNL     1      -2.935   2.939   8.218  0.00  0.00    +0.026 A 
ENDBRANCH   6   8
BRANCH   4  18
ATOM     18  C   UNL     1      -6.492  -0.294   1.420  0.00  0.00    -0.022 A 
ATOM     19  C   UNL     1      -6.287   1.013   1.017  0.00  0.00    +0.009 A 
ATOM     20  C   UNL     1      -7.082   1.565   0.030  0.00  0.00    +0.046 A 
ATOM     21  C   UNL     1      -8.085   0.808  -0.556  0.00  0.00    +0.120 A 
ATOM     22  C   UNL     1      -8.288  -0.503  -0.150  0.00  0.00    +0.046 A 
ATOM     23  C   UNL     1      -7.487  -1.053   0.833  0.00  0.00    +0.009 A 
BRANCH  21  24
ATOM     24  O   UNL     1      -8.868   1.349  -1.526  0.00  0.00    -0.495 OA
ATOM     25  C   UNL     1      -9.881   0.510  -2.085  0.00  0.00    +0.277 C 
ENDBRANCH  21  24
ENDBRANCH   4  18
BRANCH   5  26
ATOM     26  O   UNL     1      -7.133   0.542   3.772  0.00  0.00    -0.383 OA
ATOM     27  H   UNL     1      -7.433   0.903   4.617  0.00  0.00    +0.210 HD
ENDBRANCH   5  26
BRANCH   1  28
ATOM     28  C   UNL     1      -2.026  -0.140   1.276  0.00  0.00    +0.018 C 
BRANCH  28  29
ATOM     29  N   UNL     1      -1.376  -0.512   0.012  0.00  0.00    +0.389 N 
ATOM     30  H   UNL     1      -1.888  -0.113  -0.760  0.00  0.00    -0.084 HD
ATOM     31  H   UNL     1      -1.364  -1.518  -0.076  0.00  0.00    -0.084 HD
BRANCH  29  33
ATOM     32  C   UNL     1      -0.019   1.526   0.010  0.00  0.00    -0.008 C 
ATOM     33  C   UNL     1       0.002  -0.004   0.002  0.00  0.00    -0.037 C 
BRANCH  33  34
ATOM     34  C   UNL     1       0.707  -0.490  -1.238  0.00  0.00    -0.024 A 
ATOM     35  C   UNL     1       1.980  -0.934  -1.377  0.00  0.00    +0.009 A 
ATOM     36  C   UNL     1       2.418  -1.335  -2.625  0.00  0.00    +0.008 A 
ATOM     37  C   UNL     1       1.561  -1.273  -3.674  0.00  0.00    +0.045 A 
ATOM     38  S   UNL     1       0.081  -0.638  -2.903  0.00  0.00    -0.103 S 
ENDBRANCH  33  34
ENDBRANCH  29  33
ENDBRANCH  28  29
ENDBRANCH   1  28
TORSDOF 8
