REMARK  Name = ZINC63571393
REMARK  5 active torsions:
REMARK  status: ('A' for Active; 'I' for Inactive)
REMARK    1  A    between atoms: C_1  and  C_2
REMARK    2  A    between atoms: N_4  and  C_5
REMARK    3  A    between atoms: C_5  and  C_11
REMARK    4  A    between atoms: C_11  and  N_13
REMARK    5  A    between atoms: N_15  and  C_19
REMARK                            x       y       z     vdW  Elec       q    Type
REMARK                         _______ _______ _______ _____ _____    ______ ____
ROOT
ATOM      1  C   UNL     1      -0.019  -2.239  -1.194  0.00  0.00    +0.113 C 
ATOM      2  C   UNL     1       1.199  -2.860  -0.505  0.00  0.00    +0.035 C 
ATOM      3  C   UNL     1       2.473  -2.417  -1.227  0.00  0.00    +0.003 C 
ATOM      4  C   UNL     1       2.421  -2.879  -2.684  0.00  0.00    +0.000 C 
ATOM      5  C   UNL     1       1.203  -2.259  -3.373  0.00  0.00    +0.003 C 
ATOM      6  C   UNL     1      -0.071  -2.701  -2.651  0.00  0.00    +0.035 C 
ENDROOT
BRANCH   1  10
ATOM      7  C   UNL     1       0.254   1.358   0.087  0.00  0.00    +0.109 C 
ATOM      8  C   UNL     1       0.147  -0.144   0.040  0.00  0.00    +0.211 C 
ATOM      9  O   UNL     1       0.115  -0.783   1.070  0.00  0.00    -0.276 OA
ATOM     10  N   UNL     1       0.086  -0.779  -1.148  0.00  0.00    -0.302 N 
ATOM     11  H   UNL     1       0.111  -0.268  -1.972  0.00  0.00    +0.150 HD
ENDBRANCH   1  10
BRANCH   1  12
ATOM     12  C   UNL     1      -1.274  -2.676  -0.483  0.00  0.00    +0.262 C 
ATOM     13  O   UNL     1      -1.899  -3.638  -0.888  0.00  0.00    -0.271 OA
BRANCH  12  14
ATOM     14  N   UNL     1      -1.698  -2.010   0.584  0.00  0.00    -0.155 NA
ATOM     15  C   UNL     1      -1.947  -2.663   1.722  0.00  0.00    +0.165 A 
ATOM     16  N   UNL     1      -1.683  -3.962   2.026  0.00  0.00    -0.331 N 
ATOM     17  C   UNL     1      -2.022  -4.429   3.257  0.00  0.00    +0.094 A 
ATOM     18  C   UNL     1      -2.602  -3.569   4.101  0.00  0.00    +0.066 A 
ATOM     19  S   UNL     1      -2.657  -2.076   3.128  0.00  0.00    -0.061 S 
ATOM     20  C   UNL     1      -1.045  -4.842   1.044  0.00  0.00    +0.150 C 
ENDBRANCH  12  14
ENDBRANCH   1  12
TORSDOF 3
