REMARK  Name = ZINC39578641
REMARK  4 active torsions:
REMARK  status: ('A' for Active; 'I' for Inactive)
REMARK    1  A    between atoms: C_6  and  N_7
REMARK    2  A    between atoms: N_7  and  S_8
REMARK    3  A    between atoms: S_8  and  C_11
REMARK    4  A    between atoms: CA_14  and  C_17
REMARK                            x       y       z     vdW  Elec       q    Type
REMARK                         _______ _______ _______ _____ _____    ______ ____
ROOT
ATOM      1  S   UNL     1      -1.173  -2.376   0.001  0.00  0.00    +0.074 S 
ATOM      2  O   UNL     1      -0.577  -2.723  -1.242  0.00  0.00    -0.153 OA
ATOM      3  O   UNL     1      -0.552  -2.736   1.228  0.00  0.00    -0.153 OA
ENDROOT
BRANCH   1   4
ATOM      4  C   UNL     1      -2.919  -2.868   0.016  0.00  0.00    +0.217 C 
ATOM      5  C   UNL     1      -3.051  -4.378  -0.050  0.00  0.00    +0.039 C 
ATOM      6  CA  UNL     1      -3.721  -4.620  -1.192  0.00  0.00    +0.127 C 
ATOM      7  N   UNL     1      -4.028  -3.467  -1.851  0.00  0.00    -0.357 N 
ATOM      8  C   UNL     1      -3.617  -2.403  -1.247  0.00  0.00    +0.088 C 
ATOM      9  H   UNL     1      -4.509  -3.448  -2.693  0.00  0.00    +0.165 HD
BRANCH   6  10
ATOM     10  C   UNL     1      -4.081  -5.968  -1.671  0.00  0.00    +0.402 C 
ATOM     11  O   UNL     1      -3.767  -6.953  -1.017  0.00  0.00    -0.239 OA
ATOM     12  OXT UNL     1      -4.692  -6.100  -2.722  0.00  0.00    -0.239 OA
ENDBRANCH   6  10
ENDBRANCH   1   4
BRANCH   1  13
ATOM     13  N   UNL     1      -1.197  -0.720   0.010  0.00  0.00    -0.102 NA
BRANCH  13  19
ATOM     14  C   UNL     1      -0.017   1.385   0.010  0.00  0.00    +0.028 A 
ATOM     15  C   UNL     1       1.171   2.090   0.002  0.00  0.00    +0.016 A 
ATOM     16  C   UNL     1       2.378   1.415  -0.013  0.00  0.00    +0.013 A 
ATOM     17  C   UNL     1       2.400   0.032  -0.022  0.00  0.00    +0.016 A 
ATOM     18  C   UNL     1       1.216  -0.679  -0.014  0.00  0.00    +0.028 A 
ATOM     19  C   UNL     1       0.002  -0.004   0.002  0.00  0.00    +0.074 A 
ATOM     20  I   UNL     1       4.176   2.489  -0.026  0.00  0.00    -0.044 I 
ENDBRANCH  13  19
ENDBRANCH   1  13
TORSDOF 4
