REMARK  Name = ZINC32772807
REMARK  6 active torsions:
REMARK  status: ('A' for Active; 'I' for Inactive)
REMARK    1  A    between atoms: C_1  and  C_2
REMARK    2  A    between atoms: C_9  and  N_14
REMARK    3  A    between atoms: C_15  and  C_17
REMARK    4  A    between atoms: C_17  and  C_19
REMARK    5  A    between atoms: C_17  and  S_25
REMARK    6  A    between atoms: S_25  and  C_26
REMARK                            x       y       z     vdW  Elec       q    Type
REMARK                         _______ _______ _______ _____ _____    ______ ____
ROOT
ATOM      1  N   UNL     1       6.352   2.381   0.595  0.00  0.00    -0.284 N 
ATOM      2  C   UNL     1       5.387   1.710  -0.065  0.00  0.00    +0.235 C 
ATOM      3  O   UNL     1       5.633   0.635  -0.570  0.00  0.00    -0.274 OA
ATOM      4  H   UNL     1       6.154   3.393   0.978  0.00  0.00    +0.155 HD
ENDROOT
BRANCH   1  12
ATOM      5  C   UNL     1      11.165  -0.668   3.682  0.00  0.00    +0.062 C 
ATOM      6  C   UNL     1      11.341  -1.102   2.226  0.00  0.00    +0.256 C 
ATOM      7  C   UNL     1      10.226  -2.043   1.844  0.00  0.00    +0.258 C 
ATOM      8  O   UNL     1      10.366  -3.240   1.982  0.00  0.00    -0.271 OA
ATOM      9  N   UNL     1       9.071  -1.547   1.349  0.00  0.00    -0.279 N 
ATOM     10  C   UNL     1       8.948  -0.162   1.167  0.00  0.00    +0.077 A 
ATOM     11  C   UNL     1       7.706   0.418   0.978  0.00  0.00    +0.050 A 
ATOM     12  C   UNL     1       7.606   1.790   0.793  0.00  0.00    +0.035 A 
ATOM     13  C   UNL     1       8.750   2.578   0.809  0.00  0.00    +0.027 A 
ATOM     14  C   UNL     1       9.990   2.000   1.004  0.00  0.00    +0.049 A 
ATOM     15  C   UNL     1      10.094   0.632   1.184  0.00  0.00    +0.143 A 
ATOM     16  O   UNL     1      11.309   0.049   1.379  0.00  0.00    -0.478 OA
ATOM     17  H   UNL     1       8.245  -2.228   1.095  0.00  0.00    +0.155 HD
ENDBRANCH   1  12
BRANCH   2  18
ATOM     18  C   UNL     1       4.002   2.294  -0.174  0.00  0.00    +0.167 C 
BRANCH  18  19
ATOM     19  C   UNL     1       3.947   3.238  -1.348  0.00  0.00    -0.025 A 
ATOM     20  C   UNL     1       4.221   2.774  -2.621  0.00  0.00    +0.005 A 
ATOM     21  C   UNL     1       4.166   3.638  -3.699  0.00  0.00    +0.000 A 
ATOM     22  C   UNL     1       3.846   4.969  -3.502  0.00  0.00    +0.000 A 
ATOM     23  C   UNL     1       3.577   5.434  -2.228  0.00  0.00    +0.000 A 
ATOM     24  C   UNL     1       3.628   4.568  -1.151  0.00  0.00    +0.005 A 
ENDBRANCH  18  19
BRANCH  18  25
ATOM     25  S   UNL     1       2.799   0.958  -0.416  0.00  0.00    -0.108 S 
BRANCH  25  26
ATOM     26  C   UNL     1       1.240   1.776  -0.376  0.00  0.00    +0.009 A 
ATOM     27  C   UNL     1       0.066   1.048  -0.532  0.00  0.00    +0.015 A 
ATOM     28  C   UNL     1      -1.154   1.693  -0.506  0.00  0.00    +0.001 A 
ATOM     29  C   UNL     1      -1.210   3.062  -0.313  0.00  0.00    +0.000 A 
ATOM     30  C   UNL     1      -0.045   3.790  -0.158  0.00  0.00    +0.001 A 
ATOM     31  C   UNL     1       1.179   3.152  -0.189  0.00  0.00    +0.015 A 
ENDBRANCH  25  26
ENDBRANCH  18  25
ENDBRANCH   2  18
TORSDOF 5
