REMARK  Name = ZINC23199994
REMARK  10 active torsions:
REMARK  status: ('A' for Active; 'I' for Inactive)
REMARK    1  A    between atoms: C_1  and  C_2
REMARK    2  A    between atoms: C_4  and  C_26
REMARK    3  A    between atoms: C_6  and  C_22
REMARK    4  A    between atoms: C_10  and  C_11
REMARK    5  A    between atoms: N_13  and  C_14
REMARK    6  A    between atoms: C_14  and  C_16
REMARK    7  A    between atoms: C_14  and  C_17
REMARK    8  A    between atoms: C_22  and  C_23
REMARK    9  A    between atoms: C_22  and  C_24
REMARK   10  A    between atoms: C_22  and  C_25
REMARK                            x       y       z     vdW  Elec       q    Type
REMARK                         _______ _______ _______ _____ _____    ______ ____
ROOT
ATOM      1  C   UNL     1       4.815   0.018  -0.536  0.00  0.00    +0.046 C 
ATOM      2  C   UNL     1       3.452  -0.623  -0.481  0.00  0.00    -0.020 A 
ATOM      3  C   UNL     1       2.321   0.153  -0.180  0.00  0.00    +0.032 A 
ATOM      4  C   UNL     1       2.233   1.539   0.103  0.00  0.00    +0.050 A 
ATOM      5  N   UNL     1       1.058   2.070   0.361  0.00  0.00    -0.236 NA
ATOM      6  C   UNL     1      -0.056   1.358   0.369  0.00  0.00    +0.136 A 
ATOM      7  N   UNL     1      -0.045   0.064   0.114  0.00  0.00    -0.224 NA
ATOM      8  C   UNL     1       1.087  -0.548  -0.154  0.00  0.00    +0.113 A 
ATOM      9  S   UNL     1       1.558  -2.214  -0.543  0.00  0.00    -0.064 S 
ATOM     10  C   UNL     1       3.314  -1.954  -0.724  0.00  0.00    +0.079 A 
ATOM     11  C   UNL     1       3.473   2.395   0.107  0.00  0.00    +0.066 C 
ENDROOT
BRANCH  10  12
ATOM     12  C   UNL     1       4.356  -2.937  -1.054  0.00  0.00    +0.251 C 
ATOM     13  O   UNL     1       5.518  -2.586  -1.138  0.00  0.00    -0.270 OA
ATOM     14  N   UNL     1       4.024  -4.226  -1.263  0.00  0.00    -0.304 N 
ATOM     15  H   UNL     1       2.974  -4.543  -1.187  0.00  0.00    +0.150 HD
BRANCH  14  16
ATOM     16  C   UNL     1       5.063  -5.205  -1.591  0.00  0.00    +0.107 C 
ATOM     17  C   UNL     1       5.328  -5.182  -3.098  0.00  0.00    +0.033 C 
BRANCH  16  18
ATOM     18  C   UNL     1       4.603  -6.581  -1.184  0.00  0.00    +0.010 A 
ATOM     19  C   UNL     1       5.312  -7.584  -0.611  0.00  0.00    +0.013 A 
ATOM     20  C   UNL     1       4.675  -8.775  -0.320  0.00  0.00    +0.008 A 
ATOM     21  C   UNL     1       3.358  -8.906  -0.616  0.00  0.00    +0.045 A 
ATOM     22  S   UNL     1       2.979  -7.311  -1.323  0.00  0.00    -0.100 S 
ENDBRANCH  16  18
ENDBRANCH  14  16
ENDBRANCH  10  12
BRANCH   6  23
ATOM     23  C   UNL     1      -1.366   2.040   0.668  0.00  0.00    +0.022 C 
ATOM     24  C   UNL     1      -2.500   1.015   0.611  0.00  0.00    +0.019 C 
ATOM     25  C   UNL     1      -1.310   2.662   2.065  0.00  0.00    +0.019 C 
ATOM     26  C   UNL     1      -1.618   3.137  -0.368  0.00  0.00    +0.019 C 
ENDBRANCH   6  23
TORSDOF 4
