REMARK  Name = ZINC20895514
REMARK  8 active torsions:
REMARK  status: ('A' for Active; 'I' for Inactive)
REMARK    1  A    between atoms: C_1  and  C_2
REMARK    2  A    between atoms: C_9  and  N_15
REMARK    3  A    between atoms: C_10  and  C_11
REMARK    4  A    between atoms: C_11  and  O_13
REMARK    5  A    between atoms: O_13  and  C_14
REMARK    6  A    between atoms: C_16  and  C_18
REMARK    7  A    between atoms: C_18  and  N_19
REMARK    8  A    between atoms: C_27  and  C_29
REMARK                            x       y       z     vdW  Elec       q    Type
REMARK                         _______ _______ _______ _____ _____    ______ ____
ROOT
ATOM      1  N   UNL     1       4.526   0.942  -4.491  0.00  0.00    -0.278 N 
ATOM      2  C   UNL     1       5.816   1.147  -4.161  0.00  0.00    +0.236 C 
ATOM      3  O   UNL     1       6.112   1.432  -3.019  0.00  0.00    -0.274 OA
ATOM      4  H   UNL     1       4.258   0.683  -5.526  0.00  0.00    +0.155 HD
ENDROOT
BRANCH   1  12
ATOM      5  C   UNL     1      -0.735   1.582   1.262  0.00  0.00    +0.008 C 
ATOM      6  C   UNL     1      -0.013   1.086   0.008  0.00  0.00    -0.009 C 
ATOM      7  C   UNL     1      -0.738   1.596  -1.241  0.00  0.00    +0.008 C 
ATOM      8  C   UNL     1      -0.177   0.908  -2.486  0.00  0.00    +0.037 C 
ATOM      9  C   UNL     1       1.339   1.061  -2.490  0.00  0.00    -0.021 A 
ATOM     10  C   UNL     1       2.009   1.379  -1.361  0.00  0.00    -0.004 A 
ATOM     11  S   UNL     1       3.710   1.446  -1.848  0.00  0.00    -0.077 S 
ATOM     12  C   UNL     1       3.537   1.055  -3.527  0.00  0.00    +0.086 A 
ATOM     13  C   UNL     1       2.167   0.883  -3.672  0.00  0.00    +0.091 A 
ATOM     14  C   UNL     1       1.427   1.620  -0.003  0.00  0.00    +0.046 C 
BRANCH  13  15
ATOM     15  C   UNL     1       1.577   0.535  -4.966  0.00  0.00    +0.342 C 
ATOM     16  O   UNL     1       1.228   1.414  -5.731  0.00  0.00    -0.245 OA
BRANCH  15  17
ATOM     17  O   UNL     1       1.422  -0.760  -5.311  0.00  0.00    -0.464 OA
ATOM     18  C   UNL     1       0.831  -1.030  -6.609  0.00  0.00    +0.280 C 
ENDBRANCH  15  17
ENDBRANCH  13  15
ENDBRANCH   1  12
BRANCH   2  19
ATOM     19  C   UNL     1       6.892   1.024  -5.209  0.00  0.00    +0.214 C 
BRANCH  19  20
ATOM     20  N   UNL     1       8.198   1.292  -4.603  0.00  0.00    -0.215 N 
ATOM     21  C   UNL     1       8.985   0.348  -4.048  0.00  0.00    +0.247 C 
ATOM     22  O   UNL     1       8.755  -0.839  -3.958  0.00  0.00    -0.273 OA
ATOM     23  C   UNL     1      10.214   1.081  -3.561  0.00  0.00    +0.115 C 
ATOM     24  C   UNL     1      10.352   0.940  -2.049  0.00  0.00    +0.035 C 
ATOM     25  C   UNL     1      10.573  -0.532  -1.691  0.00  0.00    +0.003 C 
ATOM     26  C   UNL     1      11.838  -1.040  -2.386  0.00  0.00    +0.000 C 
ATOM     27  C   UNL     1      11.676  -0.912  -3.902  0.00  0.00    +0.006 C 
ATOM     28  C   UNL     1      11.459   0.558  -4.268  0.00  0.00    +0.018 C 
ATOM     29  C   UNL     1      11.277   0.686  -5.782  0.00  0.00    +0.010 C 
ATOM     30  N   UNL     1       9.962   2.481  -3.927  0.00  0.00    -0.285 N 
ATOM     31  C   UNL     1       8.761   2.505  -4.536  0.00  0.00    +0.310 C 
ATOM     32  O   UNL     1       8.246   3.515  -4.973  0.00  0.00    -0.252 OA
ATOM     33  H   UNL     1      10.706   3.254  -3.685  0.00  0.00    +0.151 HD
ENDBRANCH  19  20
ENDBRANCH   2  19
TORSDOF 5
