REMARK  Name = ZINC12080389
REMARK  3 active torsions:
REMARK  status: ('A' for Active; 'I' for Inactive)
REMARK    1  A    between atoms: C_3  and  C_7
REMARK    2  A    between atoms: N_32  and  C_35
REMARK    3  A    between atoms: C_35  and  C_36
REMARK                            x       y       z     vdW  Elec       q    Type
REMARK                         _______ _______ _______ _____ _____    ______ ____
ROOT
ATOM      1  C   UNL     1      -2.471   3.938   0.045  0.00  0.00    +0.064 C 
ATOM      2  C   UNL     1      -2.570   4.732   1.324  0.00  0.00    +0.032 A 
ATOM      3  C   UNL     1      -2.299   6.033   1.586  0.00  0.00    +0.087 A 
ATOM      4  N   UNL     1      -2.541   6.464   2.864  0.00  0.00    -0.311 N 
ATOM      5  H   UNL     1      -2.400   7.395   3.096  0.00  0.00    +0.170 HD
ATOM      6  C   UNL     1      -2.976   5.595   3.800  0.00  0.00    +0.289 A 
ATOM      7  O   UNL     1      -3.218   5.797   4.977  0.00  0.00    -0.260 OA
ATOM      8  S   UNL     1      -3.104   4.115   2.902  0.00  0.00    -0.030 S 
ATOM      9  S   UNL     1      -1.616   7.090   0.302  0.00  0.00    -0.103 S 
ATOM     10  C   UNL     1      -1.232   5.830  -0.896  0.00  0.00    +0.061 C 
ATOM     11  C   UNL     1      -2.481   4.928  -1.103  0.00  0.00    +0.019 C 
ATOM     12  C   UNL     1      -2.213   4.387  -2.545  0.00  0.00    +0.007 C 
ATOM     13  C   UNL     1      -0.631   4.463  -2.602  0.00  0.00    +0.010 C 
ATOM     14  C   UNL     1      -0.519   6.015  -2.184  0.00  0.00    +0.015 C 
ATOM     15  C   UNL     1      -1.322   6.541  -3.370  0.00  0.00    +0.092 C 
ATOM     16  C   UNL     1      -2.592   5.623  -3.284  0.00  0.00    +0.091 C 
ATOM     17  C   UNL     1      -3.533   6.283  -4.149  0.00  0.00    +0.226 C 
ATOM     18  O   UNL     1      -4.362   5.774  -4.872  0.00  0.00    -0.275 OA
ATOM     19  N   UNL     1      -3.251   7.626  -3.974  0.00  0.00    -0.231 N 
ATOM     20  C   UNL     1      -2.057   7.843  -3.335  0.00  0.00    +0.226 C 
ATOM     21  O   UNL     1      -1.675   8.882  -2.841  0.00  0.00    -0.275 OA
ENDROOT
BRANCH   1  24
ATOM     22  C   UNL     1       1.050   2.786   0.759  0.00  0.00    +0.020 A 
ATOM     23  C   UNL     1      -0.112   3.541   0.809  0.00  0.00    +0.007 A 
ATOM     24  C   UNL     1      -1.188   3.147   0.029  0.00  0.00    -0.021 A 
ATOM     25  C   UNL     1      -1.072   2.017  -0.758  0.00  0.00    +0.115 A 
ATOM     26  N   UNL     1       0.047   1.320  -0.776  0.00  0.00    -0.263 NA
ATOM     27  C   UNL     1       1.093   1.668  -0.052  0.00  0.00    +0.111 A 
ENDBRANCH   1  24
BRANCH  19  28
ATOM     28  C   UNL     1      -4.135   8.703  -4.425  0.00  0.00    +0.241 C 
BRANCH  28  29
ATOM     29  C   UNL     1      -3.771   9.095  -5.834  0.00  0.00    +0.373 C 
ATOM     30  O   UNL     1      -2.865   8.532  -6.403  0.00  0.00    -0.245 OA
ATOM     31  O   UNL     1      -4.452  10.070  -6.457  0.00  0.00    -0.245 OA
ENDBRANCH  28  29
ENDBRANCH  19  28
TORSDOF 3
