REMARK  Name = ZINC39688885
REMARK  6 active torsions:
REMARK  status: ('A' for Active; 'I' for Inactive)
REMARK    1  A    between atoms: C_1  and  N_2
REMARK    2  A    between atoms: C_6  and  C_7
REMARK    3  A    between atoms: C_7  and  N_8
REMARK    4  A    between atoms: C_9  and  C_11
REMARK    5  A    between atoms: C_22  and  C_24
REMARK    6  A    between atoms: C_27  and  C_31
REMARK                            x       y       z     vdW  Elec       q    Type
REMARK                         _______ _______ _______ _____ _____    ______ ____
ROOT
ATOM      1  C   UNL     1       3.762   0.685   4.570  0.00  0.00    +0.100 C 
ATOM      2  C   UNL     1       4.046   1.833   3.575  0.00  0.00    +0.121 C 
ATOM      3  N   UNL     1       3.758   3.070   4.338  0.00  0.00    -0.296 N 
ATOM      4  C   UNL     1       4.282   2.795   5.698  0.00  0.00    +0.115 C 
ATOM      5  C   UNL     1       3.921   1.319   5.961  0.00  0.00    -0.004 C 
ATOM      6  C   UNL     1       5.044   0.630   6.731  0.00  0.00    -0.010 C 
ATOM      7  C   UNL     1       5.144   1.239   8.132  0.00  0.00    -0.082 C 
ATOM      8  N   UNL     1       3.867   1.070   8.835  0.00  0.00    +0.379 N 
ATOM      9  C   UNL     1       2.810   1.813   8.138  0.00  0.00    -0.082 C 
ATOM     10  C   UNL     1       2.610   1.228   6.737  0.00  0.00    -0.010 C 
ATOM     11  C   UNL     1       3.155   4.191   3.897  0.00  0.00    +0.247 C 
ATOM     12  O   UNL     1       2.665   4.220   2.785  0.00  0.00    -0.270 OA
ATOM     13  H   UNL     1       3.626   0.090   8.860  0.00  0.00    -0.086 HD
ATOM     14  H   UNL     1       3.954   1.417   9.778  0.00  0.00    -0.086 HD
ENDROOT
BRANCH  11  15
ATOM     15  C   UNL     1       3.091   5.387   4.764  0.00  0.00    +0.040 A 
ATOM     16  C   UNL     1       3.988   5.533   5.823  0.00  0.00    +0.014 A 
ATOM     17  C   UNL     1       3.924   6.651   6.629  0.00  0.00    +0.016 A 
ATOM     18  C   UNL     1       2.973   7.626   6.391  0.00  0.00    +0.090 A 
ATOM     19  C   UNL     1       2.078   7.488   5.342  0.00  0.00    +0.136 A 
ATOM     20  C   UNL     1       2.136   6.376   4.524  0.00  0.00    +0.052 A 
ATOM     21  F   UNL     1       1.151   8.444   5.116  0.00  0.00    -0.205 F 
BRANCH  18  22
ATOM     22  C   UNL     1       2.909   8.844   7.276  0.00  0.00    +0.420 C 
ATOM     23  F   UNL     1       3.903   8.761   8.257  0.00  0.00    -0.166 F 
ATOM     24  F   UNL     1       3.111   9.993   6.504  0.00  0.00    -0.166 F 
ATOM     25  F   UNL     1       1.653   8.910   7.890  0.00  0.00    -0.166 F 
ENDBRANCH  18  22
ENDBRANCH  11  15
BRANCH   1  27
ATOM     26  N   UNL     1       2.045  -1.085   4.773  0.00  0.00    -0.308 N 
ATOM     27  C   UNL     1       2.358   0.168   4.386  0.00  0.00    +0.219 C 
ATOM     28  O   UNL     1       1.510   0.879   3.891  0.00  0.00    -0.275 OA
ATOM     29  H   UNL     1       2.724  -1.654   5.169  0.00  0.00    +0.149 HD
BRANCH  26  30
ATOM     30  C   UNL     1       0.681  -1.587   4.595  0.00  0.00    +0.176 C 
BRANCH  30  36
ATOM     31  C   UNL     1       1.394  -4.158   3.019  0.00  0.00    +0.150 C 
ATOM     32  N   UNL     1       0.911  -4.112   4.401  0.00  0.00    -0.338 N 
ATOM     33  C   UNL     1       0.702  -5.186   5.224  0.00  0.00    +0.104 A 
ATOM     34  C   UNL     1       0.261  -4.697   6.399  0.00  0.00    +0.101 A 
ATOM     35  N   UNL     1       0.203  -3.361   6.296  0.00  0.00    -0.348 N 
ATOM     36  C   UNL     1       0.596  -3.003   5.104  0.00  0.00    +0.104 A 
ATOM     37  H   UNL     1      -0.082  -2.755   6.998  0.00  0.00    +0.166 HD
ENDBRANCH  30  36
ENDBRANCH  26  30
ENDBRANCH   1  27
TORSDOF 5
