REMARK  Name = ZINC12653073
REMARK  7 active torsions:
REMARK  status: ('A' for Active; 'I' for Inactive)
REMARK    1  A    between atoms: C_1  and  C_2
REMARK    2  A    between atoms: C_7  and  C_10
REMARK    3  A    between atoms: C_11  and  C_13
REMARK    4  A    between atoms: C_13  and  O_14
REMARK    5  A    between atoms: O_14  and  C_15
REMARK    6  A    between atoms: C_15  and  C_17
REMARK    7  A    between atoms: C_22  and  N_23
REMARK                            x       y       z     vdW  Elec       q    Type
REMARK                         _______ _______ _______ _____ _____    ______ ____
ROOT
ATOM      1  C   UNL     1      -6.584  -1.463  -4.392  0.00  0.00    +0.080 A 
ATOM      2  C   UNL     1      -5.793  -1.606  -5.532  0.00  0.00    +0.017 A 
ATOM      3  C   UNL     1      -6.275  -2.280  -6.638  0.00  0.00    +0.013 A 
ATOM      4  C   UNL     1      -7.557  -2.823  -6.629  0.00  0.00    +0.035 A 
ATOM      5  C   UNL     1      -8.369  -2.689  -5.489  0.00  0.00    +0.054 A 
ATOM      6  C   UNL     1      -7.879  -2.011  -4.363  0.00  0.00    +0.050 A 
ATOM      7  C   UNL     1      -9.725  -3.261  -5.475  0.00  0.00    +0.196 C 
ATOM      8  O   UNL     1     -10.425  -3.144  -4.487  0.00  0.00    -0.287 OA
ATOM      9  C   UNL     1     -10.236  -3.980  -6.662  0.00  0.00    +0.033 A 
ATOM     10  C   UNL     1     -11.517  -4.523  -6.655  0.00  0.00    +0.012 A 
ATOM     11  C   UNL     1     -11.988  -5.194  -7.771  0.00  0.00    +0.001 A 
ATOM     12  C   UNL     1     -11.193  -5.328  -8.894  0.00  0.00    +0.001 A 
ATOM     13  C   UNL     1      -9.916  -4.794  -8.918  0.00  0.00    +0.012 A 
ATOM     14  C   UNL     1      -9.427  -4.116  -7.804  0.00  0.00    +0.033 A 
ATOM     15  C   UNL     1      -8.066  -3.542  -7.819  0.00  0.00    +0.195 C 
ATOM     16  O   UNL     1      -7.367  -3.660  -8.805  0.00  0.00    -0.287 OA
ENDROOT
BRANCH   6  17
ATOM     17  N   UNL     1      -8.665  -1.878  -3.237  0.00  0.00    -0.357 N 
ATOM     18  H   UNL     1      -9.677  -2.307  -3.218  0.00  0.00    +0.142 HD
ATOM     19  H   UNL     1      -8.279  -1.341  -2.357  0.00  0.00    +0.142 HD
ENDBRANCH   6  17
BRANCH   1  20
ATOM     20  C   UNL     1      -6.060  -0.743  -3.216  0.00  0.00    +0.341 C 
ATOM     21  O   UNL     1      -6.769  -0.570  -2.244  0.00  0.00    -0.245 OA
BRANCH  20  22
ATOM     22  O   UNL     1      -4.796  -0.278  -3.219  0.00  0.00    -0.452 OA
BRANCH  22  23
ATOM     23  C   UNL     1      -4.348   0.421  -2.027  0.00  0.00    +0.328 C 
BRANCH  23  32
ATOM     24  C   UNL     1       1.301   2.137  -0.200  0.00  0.00    +0.039 C 
ATOM     25  C   UNL     1      -0.102   1.527  -0.157  0.00  0.00    +0.133 C 
ATOM     26  C   UNL     1      -0.896   1.982  -1.387  0.00  0.00    +0.139 C 
ATOM     27  N   UNL     1      -2.290   1.538  -1.229  0.00  0.00    -0.294 N 
ATOM     28  C   UNL     1      -2.977   1.850   0.035  0.00  0.00    +0.139 C 
ATOM     29  C   UNL     1      -2.081   1.401   1.195  0.00  0.00    +0.133 C 
ATOM     30  O   UNL     1      -0.775   1.961   1.027  0.00  0.00    -0.371 OA
ATOM     31  C   UNL     1      -2.678   1.884   2.518  0.00  0.00    +0.039 C 
ATOM     32  C   UNL     1      -2.920   0.865  -2.212  0.00  0.00    +0.253 C 
ATOM     33  O   UNL     1      -2.337   0.617  -3.247  0.00  0.00    -0.272 OA
ENDBRANCH  23  32
ENDBRANCH  22  23
ENDBRANCH  20  22
ENDBRANCH   1  20
TORSDOF 5
