REMARK  Name = ZINC54698995
REMARK  6 active torsions:
REMARK  status: ('A' for Active; 'I' for Inactive)
REMARK    1  A    between atoms: C_1  and  C_2
REMARK    2  A    between atoms: C_2  and  C_3
REMARK    3  A    between atoms: C_2  and  C_4
REMARK    4  A    between atoms: C_4  and  C_5
REMARK    5  A    between atoms: C_7  and  C_11
REMARK    6  A    between atoms: N_8  and  C_10
REMARK                            x       y       z     vdW  Elec       q    Type
REMARK                         _______ _______ _______ _____ _____    ______ ____
ROOT
ATOM      1  C   UNL     1      -0.840   2.122   5.197  0.00  0.00    +0.257 C 
ATOM      2  C   UNL     1      -1.587   3.307   4.569  0.00  0.00    +0.154 C 
ATOM      3  N   UNL     1      -1.651   4.378   5.579  0.00  0.00    -0.337 N 
ATOM      4  C   UNL     1      -0.500   4.624   6.343  0.00  0.00    +0.070 A 
ATOM      5  C   UNL     1      -0.399   5.784   7.095  0.00  0.00    +0.026 A 
ATOM      6  C   UNL     1       0.735   6.020   7.849  0.00  0.00    +0.002 A 
ATOM      7  C   UNL     1       1.767   5.100   7.854  0.00  0.00    +0.004 A 
ATOM      8  C   UNL     1       1.673   3.942   7.105  0.00  0.00    +0.047 A 
ATOM      9  C   UNL     1       0.540   3.697   6.344  0.00  0.00    +0.142 A 
ATOM     10  O   UNL     1       0.459   2.557   5.607  0.00  0.00    -0.478 OA
ATOM     11  H   UNL     1      -2.461   4.896   5.710  0.00  0.00    +0.146 HD
ENDROOT
BRANCH   1  14
ATOM     12  C   UNL     1      -0.030  -0.130   2.478  0.00  0.00    +0.152 A 
ATOM     13  N   UNL     1       0.118   1.003   3.165  0.00  0.00    -0.212 NA
ATOM     14  C   UNL     1      -0.705   1.016   4.182  0.00  0.00    +0.170 A 
ATOM     15  N   UNL     1      -1.408  -0.130   4.164  0.00  0.00    -0.249 N 
ATOM     16  N   UNL     1      -0.957  -0.853   3.048  0.00  0.00    -0.155 NA
ATOM     17  C   UNL     1      -2.443  -0.539   5.117  0.00  0.00    +0.174 C 
BRANCH  12  18
ATOM     18  C   UNL     1       0.742  -0.511   1.242  0.00  0.00    +0.081 C 
BRANCH  18  20
ATOM     19  C   UNL     1      -0.019   1.526   0.010  0.00  0.00    +0.007 C 
ATOM     20  C   UNL     1       0.002  -0.004   0.002  0.00  0.00    -0.010 C 
ATOM     21  C   UNL     1       0.718  -0.497  -1.257  0.00  0.00    +0.007 C 
ENDBRANCH  18  20
ENDBRANCH  12  18
ENDBRANCH   1  14
TORSDOF 3
