REMARK  Name = ZINC64069771
REMARK  6 active torsions:
REMARK  status: ('A' for Active; 'I' for Inactive)
REMARK    1  A    between atoms: C_1  and  C_2
REMARK    2  A    between atoms: C_2  and  N_3
REMARK    3  A    between atoms: N_14  and  N_15
REMARK    4  A    between atoms: C_16  and  C_18
REMARK    5  A    between atoms: C_18  and  C_19
REMARK    6  A    between atoms: C_27  and  C_29
REMARK                            x       y       z     vdW  Elec       q    Type
REMARK                         _______ _______ _______ _____ _____    ______ ____
ROOT
ATOM      1  N   UNL     1      -1.922  -0.832  -3.574  0.00  0.00    -0.234 N 
ATOM      2  C   UNL     1      -1.279  -0.568  -4.729  0.00  0.00    +0.233 C 
ATOM      3  O   UNL     1      -0.114  -0.232  -4.712  0.00  0.00    -0.274 OA
ATOM      4  H   UNL     1      -2.853  -1.101  -3.588  0.00  0.00    +0.173 HD
ENDROOT
BRANCH   1  16
ATOM      5  N   UNL     1      -1.208  -0.865  -0.007  0.00  0.00    -0.280 N 
ATOM      6  C   UNL     1      -1.813  -1.113   1.177  0.00  0.00    +0.263 A 
ATOM      7  O   UNL     1      -1.210  -1.004   2.229  0.00  0.00    -0.267 OA
ATOM      8  C   UNL     1      -3.224  -1.520   1.147  0.00  0.00    +0.065 A 
ATOM      9  C   UNL     1      -3.937  -1.798   2.313  0.00  0.00    +0.015 A 
ATOM     10  C   UNL     1      -5.249  -2.172   2.227  0.00  0.00    +0.001 A 
ATOM     11  C   UNL     1      -5.878  -2.278   0.993  0.00  0.00    +0.002 A 
ATOM     12  C   UNL     1      -5.204  -2.011  -0.165  0.00  0.00    +0.028 A 
ATOM     13  C   UNL     1      -3.861  -1.626  -0.110  0.00  0.00    +0.080 A 
ATOM     14  N   UNL     1      -3.154  -1.352  -1.232  0.00  0.00    -0.214 NA
ATOM     15  C   UNL     1      -1.898  -0.986  -1.178  0.00  0.00    +0.216 A 
ATOM     16  N   UNL     1      -1.244  -0.717  -2.353  0.00  0.00    -0.234 N 
ATOM     17  H   UNL     1      -0.312  -0.448  -2.339  0.00  0.00    +0.173 HD
BRANCH   5  19
ATOM     18  C   UNL     1       0.288   1.069   0.052  0.00  0.00    +0.027 C 
ATOM     19  C   UNL     1       0.199  -0.456  -0.032  0.00  0.00    +0.125 C 
ENDBRANCH   5  19
ENDBRANCH   1  16
BRANCH   2  20
ATOM     20  C   UNL     1      -2.008  -0.691  -6.042  0.00  0.00    +0.130 C 
BRANCH  20  21
ATOM     21  C   UNL     1      -1.114  -0.218  -7.159  0.00  0.00    -0.030 C 
ATOM     22  C   UNL     1      -0.317  -0.982  -7.941  0.00  0.00    +0.002 A 
ATOM     23  C   UNL     1      -0.054  -2.425  -7.983  0.00  0.00    +0.048 A 
ATOM     24  C   UNL     1       0.817  -2.908  -8.901  0.00  0.00    +0.124 A 
ATOM     25  C   UNL     1       1.473  -2.063  -9.810  0.00  0.00    +0.040 A 
ATOM     26  C   UNL     1       1.282  -0.727  -9.831  0.00  0.00    +0.029 A 
ATOM     27  C   UNL     1       0.388  -0.113  -8.911  0.00  0.00    +0.043 A 
ATOM     28  N   UNL     1       0.040   1.138  -8.736  0.00  0.00    -0.378 N 
ATOM     29  C   UNL     1      -0.931   1.205  -7.638  0.00  0.00    +0.104 C 
ATOM     30  C   UNL     1      -2.262   1.768  -8.139  0.00  0.00    +0.035 C 
ATOM     31  F   UNL     1       1.061  -4.236  -8.942  0.00  0.00    -0.205 F 
ATOM     32  H   UNL     1       0.367   1.894  -9.248  0.00  0.00    +0.160 HD
ENDBRANCH  20  21
ENDBRANCH   2  20
TORSDOF 4
