REMARK  Name = ZINC39686005
REMARK  6 active torsions:
REMARK  status: ('A' for Active; 'I' for Inactive)
REMARK    1  A    between atoms: C_1  and  C_2
REMARK    2  A    between atoms: C_2  and  C_3
REMARK    3  A    between atoms: C_2  and  C_4
REMARK    4  A    between atoms: C_9  and  N_12
REMARK    5  A    between atoms: C_13  and  C_15
REMARK    6  A    between atoms: C_26  and  C_28
REMARK                            x       y       z     vdW  Elec       q    Type
REMARK                         _______ _______ _______ _____ _____    ______ ____
ROOT
ATOM      1  C   UNL     1      -2.743  -7.019  -3.300  0.00  0.00    +0.100 C 
ATOM      2  C   UNL     1      -1.361  -7.665  -3.544  0.00  0.00    +0.121 C 
ATOM      3  N   UNL     1      -1.448  -8.993  -2.891  0.00  0.00    -0.300 N 
ATOM      4  C   UNL     1      -2.821  -9.464  -3.195  0.00  0.00    +0.115 C 
ATOM      5  C   UNL     1      -3.699  -8.203  -3.075  0.00  0.00    -0.004 C 
ATOM      6  C   UNL     1      -4.319  -8.123  -1.683  0.00  0.00    -0.010 C 
ATOM      7  C   UNL     1      -5.307  -9.279  -1.503  0.00  0.00    -0.082 C 
ATOM      8  N   UNL     1      -6.352  -9.196  -2.531  0.00  0.00    +0.379 N 
ATOM      9  C   UNL     1      -5.758  -9.365  -3.863  0.00  0.00    -0.082 C 
ATOM     10  C   UNL     1      -4.788  -8.214  -4.143  0.00  0.00    -0.010 C 
ATOM     11  C   UNL     1      -0.495  -9.628  -2.181  0.00  0.00    +0.219 C 
ATOM     12  O   UNL     1      -0.720 -10.721  -1.705  0.00  0.00    -0.275 OA
ATOM     13  H   UNL     1      -7.035  -9.921  -2.374  0.00  0.00    -0.086 HD
ATOM     14  H   UNL     1      -6.803  -8.295  -2.478  0.00  0.00    -0.086 HD
ENDROOT
BRANCH   1  16
ATOM     15  N   UNL     1      -3.521  -5.072  -1.988  0.00  0.00    -0.312 N 
ATOM     16  C   UNL     1      -2.701  -6.138  -2.078  0.00  0.00    +0.218 C 
ATOM     17  O   UNL     1      -1.931  -6.388  -1.176  0.00  0.00    -0.275 OA
ATOM     18  H   UNL     1      -4.138  -4.872  -2.710  0.00  0.00    +0.149 HD
BRANCH  15  24
ATOM     19  C   UNL     1      -5.615  -1.885   1.825  0.00  0.00    +0.218 C 
ATOM     20  O   UNL     1      -6.150  -2.387   2.790  0.00  0.00    -0.275 OA
ATOM     21  N   UNL     1      -4.644  -2.552   1.170  0.00  0.00    -0.301 N 
ATOM     22  C   UNL     1      -3.906  -1.913   0.072  0.00  0.00    +0.109 C 
ATOM     23  C   UNL     1      -3.982  -2.816  -1.164  0.00  0.00    +0.041 C 
ATOM     24  C   UNL     1      -3.481  -4.215  -0.800  0.00  0.00    +0.076 C 
ATOM     25  C   UNL     1      -4.375  -4.812   0.289  0.00  0.00    +0.041 C 
ATOM     26  C   UNL     1      -4.299  -3.930   1.545  0.00  0.00    +0.109 C 
BRANCH  19  28
ATOM     27  C   UNL     1      -7.050  -0.654   0.221  0.00  0.00    +0.017 C 
ATOM     28  C   UNL     1      -6.035  -0.515   1.357  0.00  0.00    +0.069 C 
ATOM     29  C   UNL     1      -6.672   0.247   2.520  0.00  0.00    +0.017 C 
ENDBRANCH  19  28
ENDBRANCH  15  24
ENDBRANCH   1  16
BRANCH  11  30
ATOM     30  C   UNL     1       0.851  -8.981  -1.978  0.00  0.00    +0.075 C 
ATOM     31  C   UNL     1       1.813  -9.176  -3.162  0.00  0.00    +0.013 C 
ATOM     32  C   UNL     1       2.927  -9.381  -2.122  0.00  0.00    +0.001 C 
ATOM     33  C   UNL     1       1.825  -9.833  -1.148  0.00  0.00    +0.013 C 
ENDBRANCH  11  30
TORSDOF 4
