REMARK  Name = ZINC16361036
REMARK  8 active torsions:
REMARK  status: ('A' for Active; 'I' for Inactive)
REMARK    1  A    between atoms: C_3  and  C_6
REMARK    2  A    between atoms: C_6  and  N_7
REMARK    3  A    between atoms: N_7  and  C_8
REMARK    4  A    between atoms: C_8  and  N_10
REMARK    5  A    between atoms: N_10  and  N_11
REMARK    6  A    between atoms: C_12  and  C_14
REMARK    7  A    between atoms: C_19  and  C_20
REMARK    8  A    between atoms: C_19  and  N_50
REMARK                            x       y       z     vdW  Elec       q    Type
REMARK                         _______ _______ _______ _____ _____    ______ ____
ROOT
ATOM      1  N   UNL     1      -0.315   6.359  -1.714  0.00  0.00    -0.235 N 
ATOM      2  C   UNL     1       0.364   5.619  -0.814  0.00  0.00    +0.232 C 
ATOM      3  O   UNL     1       0.887   6.155   0.140  0.00  0.00    -0.274 OA
ATOM      4  H   UNL     1      -0.733   5.931  -2.477  0.00  0.00    +0.173 HD
ENDROOT
BRANCH   2   5
ATOM      5  C   UNL     1       0.473   4.127  -0.995  0.00  0.00    +0.073 C 
ATOM      6  C   UNL     1       1.290   3.531   0.155  0.00  0.00    -0.006 C 
ATOM      7  C   UNL     1       1.346   2.010   0.000  0.00  0.00    -0.078 C 
ATOM      8  C   UNL     1      -0.806   1.987  -1.113  0.00  0.00    -0.078 C 
ATOM      9  C   UNL     1      -0.927   3.507  -0.991  0.00  0.00    -0.006 C 
ATOM     10  N   UNL     1      -0.031   1.473   0.036  0.00  0.00    +0.382 N 
ATOM     11  H   UNL     1      -0.485   1.776   0.906  0.00  0.00    -0.081 HD
BRANCH  10  12
ATOM     12  C   UNL     1       0.002  -0.004   0.002  0.00  0.00    -0.042 C 
BRANCH  12  13
ATOM     13  C   UNL     1      -1.388  -0.527   0.259  0.00  0.00    -0.045 A 
ATOM     14  C   UNL     1      -2.131  -1.054  -0.780  0.00  0.00    +0.006 A 
ATOM     15  C   UNL     1      -3.405  -1.534  -0.546  0.00  0.00    +0.038 A 
ATOM     16  C   UNL     1      -3.938  -1.488   0.732  0.00  0.00    +0.125 A 
ATOM     17  C   UNL     1      -3.194  -0.960   1.772  0.00  0.00    +0.058 A 
ATOM     18  C   UNL     1      -1.917  -0.484   1.537  0.00  0.00    +0.045 A 
ATOM     19 CL   UNL     1      -0.980   0.171   2.843  0.00  0.00    -0.083 Cl
ATOM     20  F   UNL     1      -5.184  -1.957   0.961  0.00  0.00    -0.205 F 
ENDBRANCH  12  13
ENDBRANCH  10  12
ENDBRANCH   2   5
BRANCH   1  21
ATOM     21  N   UNL     1      -0.416   7.746  -1.546  0.00  0.00    -0.246 N 
ATOM     22  H   UNL     1       0.002   8.174  -0.783  0.00  0.00    +0.172 HD
BRANCH  21  23
ATOM     23  C   UNL     1      -1.096   8.485  -2.445  0.00  0.00    +0.147 C 
ATOM     24  S   UNL     1      -1.220  10.181  -2.240  0.00  0.00    -0.017 S 
BRANCH  23  25
ATOM     25  N   UNL     1      -1.677   7.890  -3.506  0.00  0.00    -0.318 N 
ATOM     26  H   UNL     1      -1.607   6.930  -3.622  0.00  0.00    +0.148 HD
BRANCH  25  27
ATOM     27  C   UNL     1      -2.415   8.694  -4.483  0.00  0.00    +0.177 C 
BRANCH  27  30
ATOM     28  C   UNL     1      -4.264   6.449  -6.747  0.00  0.00    +0.041 A 
ATOM     29  C   UNL     1      -4.163   7.189  -5.546  0.00  0.00    +0.046 A 
ATOM     30  C   UNL     1      -2.963   7.795  -5.561  0.00  0.00    +0.122 A 
ATOM     31  O   UNL     1      -2.337   7.468  -6.704  0.00  0.00    -0.466 OA
ATOM     32  C   UNL     1      -3.119   6.648  -7.424  0.00  0.00    +0.195 A 
ENDBRANCH  27  30
ENDBRANCH  25  27
ENDBRANCH  23  25
ENDBRANCH  21  23
ENDBRANCH   1  21
TORSDOF 8
