REMARK  Name = ZINC13817376
REMARK  4 active torsions:
REMARK  status: ('A' for Active; 'I' for Inactive)
REMARK    1  A    between atoms: C_3  and  O_41
REMARK    2  A    between atoms: C_6  and  C_7
REMARK    3  A    between atoms: C_7  and  C_8
REMARK    4  A    between atoms: N_16  and  C_19
REMARK                            x       y       z     vdW  Elec       q    Type
REMARK                         _______ _______ _______ _____ _____    ______ ____
ROOT
ATOM      1  C   UNL     1      -1.955  -1.018  -1.111  0.00  0.00    +0.072 C 
ATOM      2  C   UNL     1      -3.230  -1.843  -1.388  0.00  0.00    +0.108 C 
ATOM      3  C   UNL     1      -2.919  -2.629  -2.692  0.00  0.00    +0.123 C 
ATOM      4  C   UNL     1      -3.887  -2.042  -3.693  0.00  0.00    +0.233 C 
ATOM      5  O   UNL     1      -3.978  -2.371  -4.856  0.00  0.00    -0.274 OA
ATOM      6  N   UNL     1      -4.628  -1.101  -3.096  0.00  0.00    -0.210 N 
ATOM      7  C   UNL     1      -4.349  -0.907  -1.786  0.00  0.00    +0.232 C 
ATOM      8  O   UNL     1      -4.897  -0.117  -1.047  0.00  0.00    -0.274 OA
ATOM      9  C   UNL     1      -1.480  -2.237  -3.047  0.00  0.00    +0.136 C 
ATOM     10  N   UNL     1      -0.864  -1.753  -1.803  0.00  0.00    -0.295 NA
ATOM     11  C   UNL     1      -0.724  -3.393  -3.639  0.00  0.00    +0.006 A 
ATOM     12  C   UNL     1      -0.408  -4.652  -3.181  0.00  0.00    +0.046 A 
ATOM     13  C   UNL     1       0.322  -5.517  -3.981  0.00  0.00    +0.124 A 
ATOM     14  C   UNL     1       0.730  -5.111  -5.240  0.00  0.00    +0.040 A 
ATOM     15  C   UNL     1       0.413  -3.850  -5.701  0.00  0.00    +0.026 A 
ATOM     16  C   UNL     1      -0.319  -2.975  -4.903  0.00  0.00    +0.039 A 
ATOM     17  N   UNL     1      -0.757  -1.669  -5.143  0.00  0.00    -0.283 N 
ATOM     18  C   UNL     1      -1.446  -1.165  -4.102  0.00  0.00    +0.243 C 
ATOM     19  O   UNL     1      -1.943  -0.061  -4.028  0.00  0.00    -0.273 OA
ATOM     20  F   UNL     1       0.634  -6.753  -3.533  0.00  0.00    -0.205 F 
ATOM     21  H   UNL     1      -0.081  -1.146  -1.992  0.00  0.00    +0.124 HD
ATOM     22  H   UNL     1      -0.583  -1.182  -5.964  0.00  0.00    +0.155 HD
ENDROOT
BRANCH   6  23
ATOM     23  C   UNL     1      -5.622  -0.375  -3.771  0.00  0.00    +0.048 A 
ATOM     24  C   UNL     1      -5.456   0.984  -3.996  0.00  0.00    +0.028 A 
ATOM     25  C   UNL     1      -6.434   1.699  -4.659  0.00  0.00    +0.051 A 
ATOM     26  C   UNL     1      -7.584   1.062  -5.103  0.00  0.00    +0.162 A 
ATOM     27  C   UNL     1      -7.751  -0.300  -4.881  0.00  0.00    +0.164 A 
ATOM     28  C   UNL     1      -6.767  -1.018  -4.218  0.00  0.00    +0.073 A 
ATOM     29  O   UNL     1      -8.868  -0.945  -5.315  0.00  0.00    -0.485 OA
ATOM     30  C   UNL     1      -9.995  -0.127  -5.648  0.00  0.00    +0.270 C 
ATOM     31  C   UNL     1      -9.501   1.043  -6.510  0.00  0.00    +0.270 C 
ATOM     32  O   UNL     1      -8.539   1.784  -5.751  0.00  0.00    -0.485 OA
ENDBRANCH   6  23
BRANCH   1  33
ATOM     33  C   UNL     1      -1.681  -0.949   0.393  0.00  0.00    +0.054 C 
BRANCH  33  39
ATOM     34  C   UNL     1      -0.654   1.287   0.849  0.00  0.00    +0.007 A 
ATOM     35  C   UNL     1       0.442   2.095   1.082  0.00  0.00    +0.045 A 
ATOM     36  C   UNL     1       1.715   1.544   1.111  0.00  0.00    +0.117 A 
ATOM     37  C   UNL     1       1.883   0.182   0.906  0.00  0.00    +0.045 A 
ATOM     38  C   UNL     1       0.784  -0.622   0.674  0.00  0.00    +0.007 A 
ATOM     39  C   UNL     1      -0.483  -0.070   0.645  0.00  0.00    -0.046 A 
BRANCH  36  40
ATOM     40  O   UNL     1       2.795   2.337   1.339  0.00  0.00    -0.507 OA
ATOM     41  H   UNL     1       3.027   2.426   2.273  0.00  0.00    +0.292 HD
ENDBRANCH  36  40
ENDBRANCH  33  39
ENDBRANCH   1  33
TORSDOF 4
