REMARK  Name = ZINC12883096
REMARK  7 active torsions:
REMARK  status: ('A' for Active; 'I' for Inactive)
REMARK    1  A    between atoms: C_1  and  C_2
REMARK    2  A    between atoms: C_18  and  C_20
REMARK    3  A    between atoms: C_20  and  N_76
REMARK    4  A    between atoms: C_24  and  C_26
REMARK    5  A    between atoms: C_26  and  C_27
REMARK    6  A    between atoms: C_26  and  C_33
REMARK    7  A    between atoms: C_26  and  O_39
REMARK                            x       y       z     vdW  Elec       q    Type
REMARK                         _______ _______ _______ _____ _____    ______ ____
ROOT
ATOM      1  C   UNL     1       4.674   3.040  -0.081  0.00  0.00    -0.078 C 
ATOM      2  C   UNL     1       5.894   2.407   0.615  0.00  0.00    -0.020 C 
ATOM      3  C   UNL     1       6.192   1.119  -0.185  0.00  0.00    -0.014 C 
ATOM      4  C   UNL     1       4.839   0.819  -0.877  0.00  0.00    -0.027 C 
ATOM      5  N   UNL     1       4.352   2.167  -1.211  0.00  0.00    +0.384 N 
ATOM      6  H   UNL     1       4.825   2.507  -2.057  0.00  0.00    -0.081 HD
ENDROOT
BRANCH   5   7
ATOM      7  C   UNL     1       2.878   2.144  -1.449  0.00  0.00    -0.063 C 
BRANCH   7  22
ATOM      8  C   UNL     1       0.031   6.407  -3.701  0.00  0.00    +0.011 C 
ATOM      9  C   UNL     1      -1.025   5.382  -3.282  0.00  0.00    -0.023 C 
ATOM     10  C   UNL     1      -2.406   5.809  -3.778  0.00  0.00    +0.007 C 
ATOM     11  C   UNL     1      -2.750   7.195  -3.229  0.00  0.00    +0.003 C 
ATOM     12  C   UNL     1      -2.828   7.134  -1.700  0.00  0.00    +0.037 C 
ATOM     13  C   UNL     1      -1.502   6.595  -1.157  0.00  0.00    +0.096 C 
ATOM     14  C   UNL     1      -1.050   5.260  -1.752  0.00  0.00    +0.030 C 
ATOM     15  C   UNL     1       0.363   4.925  -1.260  0.00  0.00    +0.014 C 
ATOM     16  C   UNL     1       0.823   3.583  -1.831  0.00  0.00    +0.042 C 
ATOM     17  C   UNL     1       0.675   3.537  -3.365  0.00  0.00    +0.181 C 
ATOM     18  C   UNL     1      -0.670   4.011  -3.857  0.00  0.00    +0.052 C 
ATOM     19  O   UNL     1       1.784   4.354  -3.839  0.00  0.00    -0.461 OA
ATOM     20  C   UNL     1       2.855   4.053  -3.071  0.00  0.00    +0.309 C 
ATOM     21  O   UNL     1       4.010   4.157  -3.410  0.00  0.00    -0.251 OA
ATOM     22  C   UNL     1       2.377   3.565  -1.717  0.00  0.00    +0.088 C 
ATOM     23  C   UNL     1      -0.426   7.606  -0.767  0.00  0.00    +0.196 C 
ATOM     24  O   UNL     1      -1.174   6.869   0.203  0.00  0.00    -0.368 OA
ENDBRANCH   7  22
ENDBRANCH   5   7
BRANCH   4  25
ATOM     25  C   UNL     1       5.052  -0.020  -2.139  0.00  0.00    +0.104 C 
BRANCH  25  26
ATOM     26  C   UNL     1       5.649  -1.352  -1.761  0.00  0.00    -0.013 A 
ATOM     27  C   UNL     1       5.370  -1.909  -0.527  0.00  0.00    +0.007 A 
ATOM     28  C   UNL     1       5.914  -3.132  -0.182  0.00  0.00    +0.000 A 
ATOM     29  C   UNL     1       6.744  -3.794  -1.068  0.00  0.00    +0.000 A 
ATOM     30  C   UNL     1       7.027  -3.234  -2.300  0.00  0.00    +0.000 A 
ATOM     31  C   UNL     1       6.480  -2.013  -2.646  0.00  0.00    +0.007 A 
ENDBRANCH  25  26
BRANCH  25  32
ATOM     32  C   UNL     1       3.728  -0.240  -2.825  0.00  0.00    -0.013 A 
ATOM     33  C   UNL     1       2.644  -0.704  -2.104  0.00  0.00    +0.007 A 
ATOM     34  C   UNL     1       1.429  -0.902  -2.733  0.00  0.00    +0.000 A 
ATOM     35  C   UNL     1       1.300  -0.643  -4.085  0.00  0.00    +0.000 A 
ATOM     36  C   UNL     1       2.386  -0.183  -4.807  0.00  0.00    +0.000 A 
ATOM     37  C   UNL     1       3.600   0.018  -4.177  0.00  0.00    +0.007 A 
ENDBRANCH  25  32
BRANCH  25  38
ATOM     38  O   UNL     1       5.939   0.666  -3.023  0.00  0.00    -0.381 OA
ATOM     39  H   UNL     1       6.812   0.841  -2.647  0.00  0.00    +0.211 HD
ENDBRANCH  25  38
ENDBRANCH   4  25
TORSDOF 6
