REMARK  Name = ZINC66452849
REMARK  7 active torsions:
REMARK  status: ('A' for Active; 'I' for Inactive)
REMARK    1  A    between atoms: C_1  and  C_2
REMARK    2  A    between atoms: C_3  and  C_9
REMARK    3  A    between atoms: C_4  and  C_8
REMARK    4  A    between atoms: N_5  and  C_7
REMARK    5  A    between atoms: C_9  and  C_10
REMARK    6  A    between atoms: C_10  and  N_11
REMARK    7  A    between atoms: C_17  and  N_21
REMARK                            x       y       z     vdW  Elec       q    Type
REMARK                         _______ _______ _______ _____ _____    ______ ____
ROOT
ATOM      1  N   UNL     1       1.418   0.300  -4.447  0.00  0.00    -0.323 N 
ATOM      2  C   UNL     1       2.606   0.534  -5.108  0.00  0.00    +0.159 A 
ATOM      3  N   UNL     1       3.836   0.396  -4.667  0.00  0.00    -0.225 NA
ATOM      4  C   UNL     1       4.916   0.664  -5.433  0.00  0.00    +0.080 A 
ATOM      5  C   UNL     1       6.282   0.559  -5.083  0.00  0.00    +0.031 A 
ATOM      6  C   UNL     1       7.263   0.873  -5.987  0.00  0.00    +0.035 A 
ATOM      7  C   UNL     1       6.955   1.303  -7.270  0.00  0.00    +0.127 A 
ATOM      8  C   UNL     1       5.629   1.417  -7.646  0.00  0.00    +0.050 A 
ATOM      9  C   UNL     1       4.641   1.105  -6.747  0.00  0.00    +0.043 A 
ATOM     10  S   UNL     1       2.864   1.094  -6.786  0.00  0.00    -0.052 S 
ATOM     11  H   UNL     1       0.573   0.441  -4.903  0.00  0.00    +0.148 HD
ENDROOT
BRANCH   7  12
ATOM     12  N   UNL     1       8.035   1.636  -8.226  0.00  0.00    +0.056 N 
ATOM     13  O   UNL     1       9.192   1.534  -7.890  0.00  0.00    -0.126 OA
ATOM     14  O   UNL     1       7.760   2.010  -9.342  0.00  0.00    -0.126 OA
ENDBRANCH   7  12
BRANCH   1  15
ATOM     15  C   UNL     1       1.431  -0.162  -3.057  0.00  0.00    +0.108 C 
BRANCH  15  16
ATOM     16  C   UNL     1      -0.006  -0.343  -2.566  0.00  0.00    +0.057 C 
BRANCH  16  19
ATOM     17  C   UNL     1      -0.018   1.503   0.010  0.00  0.00    +0.068 C 
ATOM     18  C   UNL     1       0.002  -0.004   0.002  0.00  0.00    +0.063 A 
ATOM     19  C   UNL     1       0.008  -0.818  -1.135  0.00  0.00    -0.003 A 
ATOM     20  C   UNL     1       0.028  -2.107  -0.725  0.00  0.00    +0.039 A 
ATOM     21  N   UNL     1       0.034  -2.109   0.625  0.00  0.00    -0.271 N 
ATOM     22  N   UNL     1       0.023  -0.777   1.058  0.00  0.00    -0.176 NA
ATOM     23  C   UNL     1       0.055  -3.295   1.485  0.00  0.00    +0.172 C 
ATOM     24  C   UNL     1       0.040  -3.323  -1.615  0.00  0.00    +0.065 C 
ENDBRANCH  16  19
ENDBRANCH  15  16
ENDBRANCH   1  15
TORSDOF 4
