REMARK  Name = ZINC63490428
REMARK  12 active torsions:
REMARK  status: ('A' for Active; 'I' for Inactive)
REMARK    1  A    between atoms: C_1  and  C_2
REMARK    2  A    between atoms: C_2  and  C_3
REMARK    3  A    between atoms: C_7  and  C_27
REMARK    4  A    between atoms: C_8  and  N_9
REMARK    5  A    between atoms: N_9  and  C_10
REMARK    6  A    between atoms: C_10  and  N_12
REMARK    7  A    between atoms: N_12  and  C_13
REMARK    8  A    between atoms: C_13  and  C_14
REMARK    9  A    between atoms: C_14  and  C_15
REMARK   10  A    between atoms: C_18  and  C_26
REMARK   11  A    between atoms: C_23  and  C_25
REMARK   12  A    between atoms: C_27  and  C_28
REMARK                            x       y       z     vdW  Elec       q    Type
REMARK                         _______ _______ _______ _____ _____    ______ ____
ROOT
ATOM      1  N   UNL     1       4.259   0.025   1.254  0.00  0.00    -0.326 N 
ATOM      2  H   UNL     1       3.715   0.547   1.864  0.00  0.00    +0.148 HD
ENDROOT
BRANCH   1   3
ATOM      3  C   UNL     1       3.750  -0.376   0.072  0.00  0.00    +0.135 C 
ATOM      4  S   UNL     1       4.710  -1.298  -1.005  0.00  0.00    -0.019 S 
BRANCH   3   5
ATOM      5  N   UNL     1       2.485  -0.052  -0.262  0.00  0.00    -0.296 N 
ATOM      6  H   UNL     1       1.964   0.528   0.316  0.00  0.00    +0.154 HD
BRANCH   5  12
ATOM      7  C   UNL     1       2.160   0.091  -2.651  0.00  0.00    -0.026 A 
ATOM      8  C   UNL     1       1.609  -0.407  -3.815  0.00  0.00    +0.005 A 
ATOM      9  C   UNL     1       0.818  -1.541  -3.777  0.00  0.00    +0.001 A 
ATOM     10  C   UNL     1       0.576  -2.179  -2.574  0.00  0.00    +0.005 A 
ATOM     11  C   UNL     1       1.124  -1.685  -1.407  0.00  0.00    -0.026 A 
ATOM     12  C   UNL     1       1.923  -0.550  -1.442  0.00  0.00    +0.039 A 
BRANCH   7  14
ATOM     13  C   UNL     1       3.317   1.694  -4.149  0.00  0.00    +0.009 C 
ATOM     14  C   UNL     1       3.022   1.327  -2.693  0.00  0.00    +0.033 C 
ENDBRANCH   7  14
BRANCH  11  15
ATOM     15  C   UNL     1       0.859  -2.381  -0.096  0.00  0.00    +0.033 C 
ATOM     16  C   UNL     1      -0.329  -1.718   0.603  0.00  0.00    +0.009 C 
ENDBRANCH  11  15
ENDBRANCH   5  12
ENDBRANCH   3   5
ENDBRANCH   1   3
BRANCH   1  17
ATOM     17  C   UNL     1       5.633  -0.329   1.617  0.00  0.00    +0.107 C 
BRANCH  17  18
ATOM     18  C   UNL     1       5.960   0.245   2.998  0.00  0.00    +0.052 C 
BRANCH  18  19
ATOM     19  C   UNL     1       7.374  -0.118   3.371  0.00  0.00    -0.037 C 
ATOM     20  C   UNL     1       8.253  -0.831   2.630  0.00  0.00    -0.001 A 
ATOM     21  C   UNL     1       8.159  -1.458   1.307  0.00  0.00    +0.013 A 
ATOM     22  C   UNL     1       9.232  -2.121   0.817  0.00  0.00    -0.050 A 
ATOM     23  C   UNL     1      10.428  -2.224   1.541  0.00  0.00    +0.005 A 
ATOM     24  C   UNL     1      10.590  -1.674   2.763  0.00  0.00    +0.026 A 
ATOM     25  C   UNL     1       9.527  -0.954   3.374  0.00  0.00    +0.043 A 
ATOM     26  N   UNL     1       9.439  -0.341   4.530  0.00  0.00    -0.378 N 
ATOM     27  C   UNL     1       8.099   0.246   4.647  0.00  0.00    +0.103 C 
ATOM     28  C   UNL     1       8.196   1.767   4.783  0.00  0.00    +0.035 C 
ATOM     29  C   UNL     1       9.138  -2.766  -0.541  0.00  0.00    +0.044 C 
ATOM     30  H   UNL     1      10.143  -0.282   5.194  0.00  0.00    +0.160 HD
ENDBRANCH  18  19
ENDBRANCH  17  18
ENDBRANCH   1  17
TORSDOF 8
