REMARK  Name = ZINC39684621
REMARK  8 active torsions:
REMARK  status: ('A' for Active; 'I' for Inactive)
REMARK    1  A    between atoms: C_1  and  C_2
REMARK    2  A    between atoms: C_2  and  C_4
REMARK    3  A    between atoms: C_2  and  N_8
REMARK    4  A    between atoms: C_4  and  C_5
REMARK    5  A    between atoms: C_4  and  C_6
REMARK    6  A    between atoms: C_4  and  C_7
REMARK    7  A    between atoms: C_9  and  C_11
REMARK    8  A    between atoms: C_22  and  C_24
REMARK                            x       y       z     vdW  Elec       q    Type
REMARK                         _______ _______ _______ _____ _____    ______ ____
ROOT
ATOM      1  C   UNL     1      -3.465  -1.164  -1.134  0.00  0.00    +0.100 C 
ATOM      2  C   UNL     1      -4.361  -0.271  -0.248  0.00  0.00    +0.121 C 
ATOM      3  N   UNL     1      -4.986   0.685  -1.192  0.00  0.00    -0.297 N 
ATOM      4  C   UNL     1      -5.292  -0.128  -2.393  0.00  0.00    +0.115 C 
ATOM      5  C   UNL     1      -4.080  -1.071  -2.540  0.00  0.00    -0.004 C 
ATOM      6  C   UNL     1      -3.071  -0.482  -3.521  0.00  0.00    -0.010 C 
ATOM      7  C   UNL     1      -3.687  -0.452  -4.923  0.00  0.00    -0.082 C 
ATOM      8  N   UNL     1      -4.055  -1.815  -5.327  0.00  0.00    +0.379 N 
ATOM      9  C   UNL     1      -5.094  -2.339  -4.432  0.00  0.00    -0.082 C 
ATOM     10  C   UNL     1      -4.538  -2.449  -3.010  0.00  0.00    -0.010 C 
ATOM     11  C   UNL     1      -5.224   1.998  -1.002  0.00  0.00    +0.260 C 
ATOM     12  O   UNL     1      -5.748   2.653  -1.878  0.00  0.00    -0.271 OA
ATOM     13  H   UNL     1      -4.403  -1.801  -6.274  0.00  0.00    -0.086 HD
ATOM     14  H   UNL     1      -3.241  -2.409  -5.280  0.00  0.00    -0.086 HD
ENDROOT
BRANCH  11  15
ATOM     15  C   UNL     1      -4.837   2.653   0.299  0.00  0.00    +0.296 C 
ATOM     16  C   UNL     1      -5.680   2.070   1.442  0.00  0.00    +0.283 C 
ATOM     17  O   UNL     1      -5.298   2.723   2.658  0.00  0.00    -0.484 OA
ATOM     18  C   UNL     1      -5.188   4.078   2.616  0.00  0.00    +0.162 A 
ATOM     19  C   UNL     1      -5.183   4.798   3.802  0.00  0.00    +0.049 A 
ATOM     20  C   UNL     1      -5.068   6.175   3.776  0.00  0.00    +0.004 A 
ATOM     21  C   UNL     1      -4.959   6.839   2.568  0.00  0.00    +0.004 A 
ATOM     22  C   UNL     1      -4.965   6.128   1.383  0.00  0.00    +0.049 A 
ATOM     23  C   UNL     1      -5.080   4.746   1.402  0.00  0.00    +0.163 A 
ATOM     24  O   UNL     1      -5.092   4.060   0.226  0.00  0.00    -0.473 OA
ENDBRANCH  11  15
BRANCH   1  26
ATOM     25  N   UNL     1      -1.020  -1.493  -1.323  0.00  0.00    -0.312 N 
ATOM     26  C   UNL     1      -2.051  -0.643  -1.145  0.00  0.00    +0.218 C 
ATOM     27  O   UNL     1      -1.840   0.542  -0.993  0.00  0.00    -0.275 OA
ATOM     28  H   UNL     1      -1.189  -2.440  -1.445  0.00  0.00    +0.149 HD
BRANCH  25  30
ATOM     29  C   UNL     1       0.873  -0.890   0.102  0.00  0.00    +0.028 C 
ATOM     30  C   UNL     1       0.354  -0.986  -1.334  0.00  0.00    +0.075 C 
BRANCH  30  31
ATOM     31  C   UNL     1       1.243  -1.939  -2.135  0.00  0.00    -0.020 C 
ATOM     32  C   UNL     1       1.216  -3.325  -1.489  0.00  0.00    +0.012 C 
ATOM     33  C   UNL     1       0.724  -2.035  -3.571  0.00  0.00    +0.012 C 
ATOM     34  C   UNL     1       2.679  -1.409  -2.146  0.00  0.00    +0.012 C 
ENDBRANCH  30  31
ENDBRANCH  25  30
ENDBRANCH   1  26
TORSDOF 4
