REMARK  Name = ZINC63708290
REMARK  10 active torsions:
REMARK  status: ('A' for Active; 'I' for Inactive)
REMARK    1  A    between atoms: C_1  and  C_2
REMARK    2  A    between atoms: C_7  and  N_8
REMARK    3  A    between atoms: C_9  and  C_11
REMARK    4  A    between atoms: C_11  and  S_12
REMARK    5  A    between atoms: S_12  and  C_13
REMARK    6  A    between atoms: C_25  and  C_27
REMARK    7  A    between atoms: C_27  and  C_28
REMARK    8  A    between atoms: C_28  and  C_29
REMARK    9  A    between atoms: C_30  and  C_36
REMARK   10  A    between atoms: C_33  and  C_35
REMARK                            x       y       z     vdW  Elec       q    Type
REMARK                         _______ _______ _______ _____ _____    ______ ____
ROOT
ATOM      1  C   UNL     1      -0.388  -0.086   7.729  0.00  0.00    +0.248 C 
ATOM      2  N   UNL     1       0.864   0.674   7.842  0.00  0.00    -0.356 N 
ATOM      3  C   UNL     1       0.825   2.000   7.867  0.00  0.00    +0.048 A 
ATOM      4  C   UNL     1       2.015   2.751   7.976  0.00  0.00    +0.026 A 
ATOM      5  C   UNL     1       1.953   4.109   8.000  0.00  0.00    +0.002 A 
ATOM      6  C   UNL     1       0.739   4.785   7.920  0.00  0.00    +0.001 A 
ATOM      7  C   UNL     1      -0.444   4.119   7.814  0.00  0.00    +0.013 A 
ATOM      8  C   UNL     1      -0.453   2.714   7.784  0.00  0.00    +0.038 A 
ATOM      9  C   UNL     1      -1.667   2.007   7.674  0.00  0.00    +0.128 C 
ATOM     10  N   UNL     1      -1.656   0.638   7.646  0.00  0.00    -0.204 N 
ATOM     11  N   UNL     1      -2.992   0.235   7.533  0.00  0.00    -0.249 N 
ATOM     12  C   UNL     1      -3.733   1.365   7.500  0.00  0.00    +0.090 C 
ATOM     13  N   UNL     1      -2.942   2.404   7.583  0.00  0.00    -0.332 N 
ATOM     14  H   UNL     1      -3.321  -0.676   7.488  0.00  0.00    +0.171 HD
ATOM     15  H   UNL     1       1.713   0.210   7.898  0.00  0.00    +0.162 HD
ATOM     16  H   UNL     1      -3.237   3.327   7.580  0.00  0.00    +0.168 HD
ENDROOT
BRANCH   1  17
ATOM     17  S   UNL     1      -0.259  -1.131   6.252  0.00  0.00    -0.106 S 
BRANCH  17  18
ATOM     18  C   UNL     1      -0.168   0.054   4.882  0.00  0.00    +0.168 C 
BRANCH  18  20
ATOM     19  N   UNL     1       0.025  -0.014   2.417  0.00  0.00    -0.285 N 
ATOM     20  C   UNL     1      -0.056  -0.693   3.578  0.00  0.00    +0.227 C 
ATOM     21  O   UNL     1      -0.040  -1.906   3.574  0.00  0.00    -0.275 OA
ATOM     22  H   UNL     1       0.078   0.955   2.424  0.00  0.00    +0.155 HD
BRANCH  19  29
ATOM     23  C   UNL     1      -1.265   1.183   0.181  0.00  0.00    +0.045 C 
ATOM     24  C   UNL     1      -0.584  -0.158   0.084  0.00  0.00    -0.029 A 
ATOM     25  C   UNL     1      -0.569  -0.840  -1.117  0.00  0.00    +0.006 A 
ATOM     26  C   UNL     1       0.054  -2.070  -1.207  0.00  0.00    +0.020 A 
ATOM     27  C   UNL     1       0.667  -2.622  -0.095  0.00  0.00    +0.043 A 
ATOM     28  C   UNL     1       0.655  -1.944   1.109  0.00  0.00    +0.043 A 
ATOM     29  C   UNL     1       0.034  -0.706   1.201  0.00  0.00    +0.038 A 
ATOM     30 CL   UNL     1       1.449  -4.168  -0.213  0.00  0.00    -0.083 Cl
ENDBRANCH  19  29
ENDBRANCH  18  20
ENDBRANCH  17  18
ENDBRANCH   1  17
BRANCH  12  31
ATOM     31  C   UNL     1      -5.234   1.419   7.383  0.00  0.00    +0.075 C 
BRANCH  31  32
ATOM     32  C   UNL     1      -5.855   1.407   8.782  0.00  0.00    +0.042 C 
BRANCH  32  33
ATOM     33  C   UNL     1      -7.357   1.462   8.665  0.00  0.00    -0.021 C 
ATOM     34  C   UNL     1      -8.220   0.444   8.674  0.00  0.00    +0.061 C 
ATOM     35  N   UNL     1      -9.489   0.889   8.547  0.00  0.00    -0.159 NA
ATOM     36  N   UNL     1      -9.595   2.115   8.451  0.00  0.00    -0.180 NA
ATOM     37  C   UNL     1      -8.240   2.688   8.518  0.00  0.00    +0.153 C 
ATOM     38  C   UNL     1      -7.909   3.441   7.228  0.00  0.00    +0.039 C 
ATOM     39  C   UNL     1      -7.832  -1.007   8.806  0.00  0.00    +0.067 C 
ENDBRANCH  32  33
ENDBRANCH  31  32
ENDBRANCH  12  31
TORSDOF 7
