REMARK  Name = ZINC63236955
REMARK  9 active torsions:
REMARK  status: ('A' for Active; 'I' for Inactive)
REMARK    1  A    between atoms: C_7  and  C_10
REMARK    2  A    between atoms: C_13  and  S_22
REMARK    3  A    between atoms: N_14  and  C_15
REMARK    4  A    between atoms: C_15  and  C_16
REMARK    5  A    between atoms: S_22  and  C_23
REMARK    6  A    between atoms: C_23  and  C_24
REMARK    7  A    between atoms: N_26  and  C_27
REMARK    8  A    between atoms: C_31  and  S_33
REMARK    9  A    between atoms: S_33  and  N_36
REMARK                            x       y       z     vdW  Elec       q    Type
REMARK                         _______ _______ _______ _____ _____    ______ ____
ROOT
ATOM      1  C   UNL     1       0.674  -3.130   0.001  0.00  0.00    +0.163 A 
ATOM      2  N   UNL     1      -0.649  -3.067   0.014  0.00  0.00    -0.129 NA
ATOM      3  N   UNL     1      -1.141  -4.254   0.008  0.00  0.00    -0.122 NA
ATOM      4  C   UNL     1      -0.166  -5.151  -0.009  0.00  0.00    +0.192 A 
ATOM      5  N   UNL     1       1.014  -4.471  -0.020  0.00  0.00    -0.300 N 
ENDROOT
BRANCH   1  12
ATOM      6  C   UNL     1      -0.017   1.353   0.065  0.00  0.00    +0.001 A 
ATOM      7  C   UNL     1       1.163   2.101   0.058  0.00  0.00    +0.002 A 
ATOM      8  C   UNL     1       2.383   1.512   0.035  0.00  0.00    +0.026 A 
ATOM      9  C   UNL     1       2.483   0.096   0.016  0.00  0.00    +0.043 A 
ATOM     10  N   UNL     1       3.530  -0.704  -0.008  0.00  0.00    -0.380 N 
ATOM     11  C   UNL     1       3.074  -2.097  -0.019  0.00  0.00    +0.152 C 
ATOM     12  C   UNL     1       1.563  -2.043   0.003  0.00  0.00    +0.025 C 
ATOM     13  C   UNL     1       1.236  -0.687   0.024  0.00  0.00    +0.006 A 
ATOM     14  C   UNL     1       0.001  -0.004   0.048  0.00  0.00    +0.010 A 
ATOM     15  H   UNL     1       4.457  -0.416  -0.017  0.00  0.00    +0.160 HD
ENDBRANCH   1  12
BRANCH   5  16
ATOM     16  C   UNL     1       2.363  -5.041  -0.046  0.00  0.00    +0.157 C 
BRANCH  16  17
ATOM     17  C   UNL     1       2.853  -5.258   1.388  0.00  0.00    +0.138 C 
ATOM     18  C   UNL     1       4.317  -5.745   1.373  0.00  0.00    +0.035 C 
ATOM     19  C   UNL     1       4.326  -6.800   2.512  0.00  0.00    +0.031 C 
ATOM     20  C   UNL     1       2.898  -7.387   2.380  0.00  0.00    +0.160 C 
ATOM     21  O   UNL     1       2.064  -6.271   2.023  0.00  0.00    -0.375 OA
ENDBRANCH  16  17
ENDBRANCH   5  16
BRANCH   4  22
ATOM     22  S   UNL     1      -0.360  -6.902  -0.023  0.00  0.00    -0.077 S 
BRANCH  22  23
ATOM     23  C   UNL     1      -2.158  -7.144  -0.009  0.00  0.00    +0.173 C 
BRANCH  23  24
ATOM     24  C   UNL     1      -2.466  -8.620  -0.020  0.00  0.00    +0.227 C 
ATOM     25  O   UNL     1      -1.561  -9.428  -0.035  0.00  0.00    -0.275 OA
ATOM     26  N   UNL     1      -3.746  -9.041  -0.012  0.00  0.00    -0.285 N 
ATOM     27  H   UNL     1      -4.468  -8.398   0.067  0.00  0.00    +0.155 HD
BRANCH  26  28
ATOM     28  C   UNL     1      -4.034 -10.406  -0.120  0.00  0.00    +0.035 A 
ATOM     29  C   UNL     1      -5.159 -10.827  -0.816  0.00  0.00    +0.023 A 
ATOM     30  C   UNL     1      -5.441 -12.175  -0.920  0.00  0.00    +0.004 A 
ATOM     31  C   UNL     1      -4.604 -13.105  -0.331  0.00  0.00    +0.028 A 
ATOM     32  C   UNL     1      -3.483 -12.689   0.363  0.00  0.00    +0.107 A 
ATOM     33  C   UNL     1      -3.192 -11.342   0.465  0.00  0.00    +0.051 A 
BRANCH  32  34
ATOM     34  S   UNL     1      -2.420 -13.878   1.112  0.00  0.00    +0.056 S 
ATOM     35  O   UNL     1      -1.740 -13.209   2.165  0.00  0.00    -0.153 OA
ATOM     36  O   UNL     1      -3.204 -15.043   1.331  0.00  0.00    -0.153 OA
BRANCH  34  37
ATOM     37  N   UNL     1      -1.272 -14.285  -0.010  0.00  0.00    -0.204 NA
ATOM     38  H   UNL     1      -1.286 -13.874  -0.889  0.00  0.00    +0.144 HD
ATOM     39  H   UNL     1      -0.586 -14.933   0.211  0.00  0.00    +0.144 HD
ENDBRANCH  34  37
ENDBRANCH  32  34
ENDBRANCH  26  28
ENDBRANCH  23  24
ENDBRANCH  22  23
ENDBRANCH   4  22
TORSDOF 9
