REMARK  Name = ZINC21589546
REMARK  7 active torsions:
REMARK  status: ('A' for Active; 'I' for Inactive)
REMARK    1  A    between atoms: C_1  and  C_2
REMARK    2  A    between atoms: C_4  and  O_5
REMARK    3  A    between atoms: C_14  and  C_16
REMARK    4  A    between atoms: N_21  and  S_22
REMARK    5  A    between atoms: S_22  and  C_25
REMARK    6  A    between atoms: C_26  and  C_31
REMARK    7  A    between atoms: C_29  and  C_30
REMARK                            x       y       z     vdW  Elec       q    Type
REMARK                         _______ _______ _______ _____ _____    ______ ____
ROOT
ATOM      1  C   UNL     1      -4.606   1.430   7.063  0.00  0.00    +0.045 C 
ATOM      2  C   UNL     1      -3.320   0.647   7.012  0.00  0.00    -0.033 A 
ATOM      3  C   UNL     1      -2.842   0.018   8.118  0.00  0.00    +0.091 A 
ATOM      4  C   UNL     1      -1.636  -0.709   8.045  0.00  0.00    +0.285 A 
ATOM      5  O   UNL     1      -0.936  -0.801   6.904  0.00  0.00    -0.425 OA
ATOM      6  C   UNL     1      -1.355  -0.200   5.769  0.00  0.00    +0.141 A 
ATOM      7  C   UNL     1      -2.551   0.542   5.770  0.00  0.00    +0.021 A 
ATOM      8  C   UNL     1      -2.990   1.168   4.598  0.00  0.00    +0.013 A 
ATOM      9  C   UNL     1      -2.252   1.059   3.454  0.00  0.00    +0.024 A 
ATOM     10  C   UNL     1      -1.069   0.321   3.445  0.00  0.00    +0.037 A 
ATOM     11  C   UNL     1      -0.620  -0.305   4.599  0.00  0.00    +0.070 A 
ATOM     12  N   UNL     1      -0.328   0.215   2.267  0.00  0.00    -0.284 N 
ATOM     13  C   UNL     1      -0.285   1.249   1.403  0.00  0.00    +0.236 C 
ATOM     14  O   UNL     1      -0.803   2.305   1.696  0.00  0.00    -0.274 OA
ATOM     15  H   UNL     1       0.220  -0.712   2.044  0.00  0.00    +0.155 HD
ENDROOT
BRANCH  13  16
ATOM     16  C   UNL     1       0.407   1.091   0.074  0.00  0.00    +0.166 C 
ATOM     17  C   UNL     1       1.740   1.882   0.064  0.00  0.00    +0.031 C 
ATOM     18  C   UNL     1       1.947   2.122  -1.455  0.00  0.00    +0.019 C 
ATOM     19  C   UNL     1       0.507   2.327  -1.972  0.00  0.00    +0.110 C 
ATOM     20  N   UNL     1      -0.399   1.696  -1.002  0.00  0.00    -0.165 NA
BRANCH  20  21
ATOM     21  S   UNL     1      -2.052   1.669  -1.101  0.00  0.00    +0.067 S 
ATOM     22  O   UNL     1      -2.527   1.238   0.167  0.00  0.00    -0.153 OA
ATOM     23  O   UNL     1      -2.444   2.906  -1.681  0.00  0.00    -0.153 OA
BRANCH  21  24
ATOM     24  C   UNL     1      -2.484   0.412  -2.256  0.00  0.00    +0.170 A 
ATOM     25  C   UNL     1      -2.626   0.529  -3.658  0.00  0.00    +0.107 A 
ATOM     26  N   UNL     1      -2.952  -0.653  -4.095  0.00  0.00    -0.081 NA
ATOM     27  O   UNL     1      -3.035  -1.454  -3.192  0.00  0.00    -0.358 OA
ATOM     28  C   UNL     1      -2.763  -0.890  -2.007  0.00  0.00    +0.161 A 
ATOM     29  C   UNL     1      -2.766  -1.570  -0.662  0.00  0.00    +0.091 C 
ATOM     30  C   UNL     1      -2.435   1.775  -4.484  0.00  0.00    +0.071 C 
ENDBRANCH  21  24
ENDBRANCH  20  21
ENDBRANCH  13  16
BRANCH   4  31
ATOM     31  O   UNL     1      -1.220  -1.268   9.043  0.00  0.00    -0.480 OA
ATOM     32  H   UNL     1      -0.280  -1.840   9.002  0.00  0.00    +0.295 HD
ENDBRANCH   4  31
TORSDOF 4
