REMARK  Name = ZINC39694775
REMARK  8 active torsions:
REMARK  status: ('A' for Active; 'I' for Inactive)
REMARK    1  A    between atoms: C_1  and  C_2
REMARK    2  A    between atoms: C_4  and  C_38
REMARK    3  A    between atoms: C_6  and  C_8
REMARK    4  A    between atoms: C_8  and  N_9
REMARK    5  A    between atoms: C_10  and  C_12
REMARK    6  A    between atoms: C_23  and  C_25
REMARK    7  A    between atoms: C_26  and  C_37
REMARK    8  A    between atoms: C_29  and  C_30
REMARK                            x       y       z     vdW  Elec       q    Type
REMARK                         _______ _______ _______ _____ _____    ______ ____
ROOT
ATOM      1  C   UNL     1       3.127  -3.974   4.472  0.00  0.00    +0.100 C 
ATOM      2  C   UNL     1       3.874  -2.629   4.617  0.00  0.00    +0.121 C 
ATOM      3  N   UNL     1       3.762  -2.292   6.056  0.00  0.00    -0.296 N 
ATOM      4  C   UNL     1       3.931  -3.590   6.753  0.00  0.00    +0.115 C 
ATOM      5  C   UNL     1       3.170  -4.603   5.875  0.00  0.00    -0.004 C 
ATOM      6  C   UNL     1       1.754  -4.802   6.408  0.00  0.00    -0.010 C 
ATOM      7  C   UNL     1       1.821  -5.481   7.779  0.00  0.00    -0.082 C 
ATOM      8  N   UNL     1       2.505  -6.773   7.654  0.00  0.00    +0.379 N 
ATOM      9  C   UNL     1       3.895  -6.566   7.230  0.00  0.00    -0.082 C 
ATOM     10  C   UNL     1       3.916  -5.933   5.836  0.00  0.00    -0.010 C 
ATOM     11  C   UNL     1       3.554  -1.080   6.607  0.00  0.00    +0.252 C 
ATOM     12  O   UNL     1       3.486  -0.965   7.816  0.00  0.00    -0.270 OA
ATOM     13  H   UNL     1       2.494  -7.245   8.546  0.00  0.00    -0.086 HD
ATOM     14  H   UNL     1       2.027  -7.341   6.971  0.00  0.00    -0.086 HD
ENDROOT
BRANCH  11  15
ATOM     15  C   UNL     1       3.408   0.106   5.745  0.00  0.00    +0.106 A 
ATOM     16  C   UNL     1       2.246   0.598   5.229  0.00  0.00    +0.147 A 
ATOM     17  O   UNL     1       2.536   1.681   4.503  0.00  0.00    -0.359 OA
ATOM     18  N   UNL     1       3.930   1.913   4.538  0.00  0.00    -0.077 NA
ATOM     19  C   UNL     1       4.488   0.990   5.280  0.00  0.00    +0.127 A 
ATOM     20  C   UNL     1       0.871   0.020   5.441  0.00  0.00    +0.090 C 
BRANCH  19  21
ATOM     21  C   UNL     1       5.932   0.859   5.589  0.00  0.00    +0.023 A 
ATOM     22  C   UNL     1       6.383  -0.188   6.391  0.00  0.00    +0.011 A 
ATOM     23  C   UNL     1       7.729  -0.306   6.676  0.00  0.00    +0.001 A 
ATOM     24  C   UNL     1       8.629   0.613   6.167  0.00  0.00    +0.001 A 
ATOM     25  C   UNL     1       8.188   1.654   5.371  0.00  0.00    +0.020 A 
ATOM     26  C   UNL     1       6.845   1.779   5.074  0.00  0.00    +0.050 A 
ATOM     27 CL   UNL     1       6.293   3.081   4.068  0.00  0.00    -0.083 Cl
ENDBRANCH  19  21
ENDBRANCH  11  15
BRANCH   1  29
ATOM     28  N   UNL     1       1.017  -4.713   3.413  0.00  0.00    -0.311 N 
ATOM     29  C   UNL     1       1.701  -3.739   4.046  0.00  0.00    +0.218 C 
ATOM     30  O   UNL     1       1.168  -2.673   4.272  0.00  0.00    -0.275 OA
ATOM     31  H   UNL     1       1.443  -5.565   3.232  0.00  0.00    +0.149 HD
BRANCH  28  32
ATOM     32  C   UNL     1      -0.369  -4.484   2.998  0.00  0.00    +0.139 C 
BRANCH  32  38
ATOM     33  C   UNL     1      -1.097  -7.166  -1.164  0.00  0.00    +0.044 C 
ATOM     34  C   UNL     1      -1.249  -7.002   0.327  0.00  0.00    -0.050 A 
ATOM     35  C   UNL     1      -1.876  -7.985   1.069  0.00  0.00    +0.006 A 
ATOM     36  C   UNL     1      -2.015  -7.835   2.437  0.00  0.00    -0.050 A 
ATOM     37  C   UNL     1      -1.528  -6.702   3.061  0.00  0.00    +0.008 A 
ATOM     38  C   UNL     1      -0.900  -5.719   2.318  0.00  0.00    -0.030 A 
ATOM     39  C   UNL     1      -0.757  -5.871   0.952  0.00  0.00    +0.008 A 
ATOM     40  C   UNL     1      -2.700  -8.906   3.246  0.00  0.00    +0.044 C 
ENDBRANCH  32  38
ENDBRANCH  28  32
ENDBRANCH   1  29
TORSDOF 5
