REMARK  Name = ZINC19213537
REMARK  7 active torsions:
REMARK  status: ('A' for Active; 'I' for Inactive)
REMARK    1  A    between atoms: C_4  and  C_7
REMARK    2  A    between atoms: C_7  and  C_8
REMARK    3  A    between atoms: C_13  and  N_14
REMARK    4  A    between atoms: C_15  and  C_17
REMARK    5  A    between atoms: C_17  and  S_18
REMARK    6  A    between atoms: S_18  and  C_19
REMARK    7  A    between atoms: C_19  and  C_20
REMARK                            x       y       z     vdW  Elec       q    Type
REMARK                         _______ _______ _______ _____ _____    ______ ____
ROOT
ATOM      1  N   UNL     1      -1.237   2.069   0.019  0.00  0.00    -0.285 N 
ATOM      2  C   UNL     1      -2.394   1.385  -0.081  0.00  0.00    +0.227 C 
ATOM      3  O   UNL     1      -2.383   0.173  -0.088  0.00  0.00    -0.275 OA
ATOM      4  H   UNL     1      -1.252   3.165   0.117  0.00  0.00    +0.155 HD
ENDROOT
BRANCH   1  10
ATOM      5  C   UNL     1       1.107   1.950   0.589  0.00  0.00    -0.022 A 
ATOM      6  C   UNL     1       2.312   1.275   0.562  0.00  0.00    +0.006 A 
ATOM      7  C   UNL     1       2.400   0.039  -0.051  0.00  0.00    +0.000 A 
ATOM      8  C   UNL     1       1.283  -0.525  -0.640  0.00  0.00    +0.002 A 
ATOM      9  C   UNL     1       0.076   0.144  -0.617  0.00  0.00    +0.023 A 
ATOM     10  C   UNL     1      -0.016   1.386  -0.001  0.00  0.00    +0.037 A 
BRANCH   5  11
ATOM     11  C   UNL     1       1.011   3.296   1.258  0.00  0.00    +0.072 C 
BRANCH  11  15
ATOM     12  C   UNL     1      -0.345   2.796   5.278  0.00  0.00    +0.000 A 
ATOM     13  C   UNL     1       1.008   2.774   4.997  0.00  0.00    +0.000 A 
ATOM     14  C   UNL     1       1.447   2.936   3.697  0.00  0.00    +0.004 A 
ATOM     15  C   UNL     1       0.533   3.120   2.676  0.00  0.00    -0.043 A 
ATOM     16  C   UNL     1      -0.820   3.148   2.958  0.00  0.00    +0.004 A 
ATOM     17  C   UNL     1      -1.259   2.981   4.258  0.00  0.00    +0.000 A 
ENDBRANCH  11  15
ENDBRANCH   5  11
ENDBRANCH   1  10
BRANCH   2  18
ATOM     18  C   UNL     1      -3.702   2.128  -0.184  0.00  0.00    +0.165 C 
BRANCH  18  19
ATOM     19  S   UNL     1      -5.065   0.937  -0.304  0.00  0.00    -0.144 S 
BRANCH  19  20
ATOM     20  C   UNL     1      -6.547   1.977  -0.420  0.00  0.00    +0.143 C 
BRANCH  20  21
ATOM     21  C   UNL     1      -7.768   1.101  -0.527  0.00  0.00    +0.121 A 
ATOM     22  N   UNL     1      -8.995   1.677  -0.619  0.00  0.00    -0.310 N 
ATOM     23  H   UNL     1      -9.090   2.772  -0.612  0.00  0.00    +0.170 HD
ATOM     24  C   UNL     1     -10.112   0.931  -0.720  0.00  0.00    +0.260 A 
ATOM     25  O   UNL     1     -11.206   1.461  -0.807  0.00  0.00    -0.267 OA
ATOM     26  C   UNL     1      -9.990  -0.496  -0.719  0.00  0.00    +0.075 A 
ATOM     27  C   UNL     1     -11.063  -1.497  -0.812  0.00  0.00    -0.023 A 
ATOM     28  C   UNL     1     -10.692  -2.789  -0.793  0.00  0.00    -0.004 A 
ATOM     29  S   UNL     1      -8.920  -2.756  -0.648  0.00  0.00    -0.073 S 
ATOM     30  C   UNL     1      -8.687  -0.999  -0.616  0.00  0.00    +0.116 A 
ATOM     31  N   UNL     1      -7.628  -0.198  -0.523  0.00  0.00    -0.226 NA
ATOM     32  C   UNL     1     -11.870  -3.720  -0.899  0.00  0.00    +0.043 C 
ATOM     33  C   UNL     1     -13.019  -2.833  -1.426  0.00  0.00    +0.010 C 
ATOM     34  C   UNL     1     -12.589  -1.437  -0.934  0.00  0.00    +0.037 C 
ENDBRANCH  20  21
ENDBRANCH  19  20
ENDBRANCH  18  19
ENDBRANCH   2  18
TORSDOF 7
