REMARK  Name = ZINC65117031
REMARK  5 active torsions:
REMARK  status: ('A' for Active; 'I' for Inactive)
REMARK    1  A    between atoms: C_1  and  C_2
REMARK    2  A    between atoms: C_3  and  C_22
REMARK    3  A    between atoms: C_5  and  C_7
REMARK    4  A    between atoms: C_9  and  S_12
REMARK    5  A    between atoms: S_12  and  N_15
REMARK                            x       y       z     vdW  Elec       q    Type
REMARK                         _______ _______ _______ _____ _____    ______ ____
ROOT
ATOM      1  C   UNL     1       0.053  -2.949   2.242  0.00  0.00    +0.016 A 
ATOM      2  C   UNL     1       0.048  -2.462   3.599  0.00  0.00    +0.047 A 
ATOM      3  C   UNL     1       0.066  -3.411   4.560  0.00  0.00    +0.150 A 
ATOM      4  S   UNL     1       0.090  -4.924   3.622  0.00  0.00    -0.076 S 
ATOM      5  C   UNL     1       0.070  -4.301   2.064  0.00  0.00    +0.057 A 
ENDROOT
BRANCH   1  10
ATOM      6  C   UNL     1      -0.018   1.503   0.010  0.00  0.00    +0.067 C 
ATOM      7  C   UNL     1       0.002  -0.004   0.002  0.00  0.00    +0.058 A 
ATOM      8  C   UNL     1       0.006  -0.730  -1.183  0.00  0.00    +0.097 A 
ATOM      9  S   UNL     1       0.032  -2.398  -0.547  0.00  0.00    -0.062 S 
ATOM     10  C   UNL     1       0.035  -2.023   1.094  0.00  0.00    +0.110 A 
ATOM     11  N   UNL     1       0.022  -0.699   1.109  0.00  0.00    -0.243 NA
BRANCH   8  12
ATOM     12  C   UNL     1      -0.008  -0.257  -2.568  0.00  0.00    +0.255 C 
ATOM     13  O   UNL     1      -0.026   0.937  -2.804  0.00  0.00    -0.269 OA
ATOM     14  N   UNL     1      -0.001  -1.145  -3.583  0.00  0.00    -0.297 N 
ATOM     15  C   UNL     1       0.014  -2.608  -3.441  0.00  0.00    +0.108 C 
ATOM     16  C   UNL     1       0.044  -3.206  -4.864  0.00  0.00    +0.020 C 
ATOM     17  C   UNL     1       0.615  -2.043  -5.717  0.00  0.00    +0.020 C 
ATOM     18  C   UNL     1      -0.013  -0.809  -5.018  0.00  0.00    +0.108 C 
ENDBRANCH   8  12
ENDBRANCH   1  10
BRANCH   3  19
ATOM     19  S   UNL     1       0.067  -3.203   6.309  0.00  0.00    +0.107 S 
ATOM     20  O   UNL     1       0.639  -4.382   6.858  0.00  0.00    -0.146 OA
ATOM     21  O   UNL     1       0.596  -1.909   6.564  0.00  0.00    -0.146 OA
BRANCH  19  22
ATOM     22  N   UNL     1      -1.515  -3.171   6.799  0.00  0.00    -0.110 NA
ATOM     23  C   UNL     1      -1.806  -3.024   8.075  0.00  0.00    +0.153 A 
ATOM     24  C   UNL     1      -3.156  -3.003   8.499  0.00  0.00    +0.048 A 
ATOM     25  C   UNL     1      -3.435  -2.850   9.820  0.00  0.00    +0.005 A 
ATOM     26  C   UNL     1      -2.383  -2.717  10.743  0.00  0.00    +0.018 A 
ATOM     27  C   UNL     1      -1.100  -2.739  10.324  0.00  0.00    +0.084 A 
ATOM     28  N   UNL     1      -0.801  -2.897   9.003  0.00  0.00    -0.345 N 
ATOM     29  H   UNL     1       0.126  -2.915   8.717  0.00  0.00    +0.167 HD
ENDBRANCH  19  22
ENDBRANCH   3  19
TORSDOF 4
