REMARK  Name = ZINC08706182
REMARK  9 active torsions:
REMARK  status: ('A' for Active; 'I' for Inactive)
REMARK    1  A    between atoms: C_1  and  C_2
REMARK    2  A    between atoms: C_5  and  C_8
REMARK    3  A    between atoms: C_8  and  N_9
REMARK    4  A    between atoms: C_17  and  C_24
REMARK    5  A    between atoms: C_18  and  C_23
REMARK    6  A    between atoms: N_19  and  C_20
REMARK    7  A    between atoms: C_20  and  C_21
REMARK    8  A    between atoms: C_21  and  O_22
REMARK    9  A    between atoms: N_25  and  C_28
REMARK                            x       y       z     vdW  Elec       q    Type
REMARK                         _______ _______ _______ _____ _____    ______ ____
ROOT
ATOM      1  N   UNL     1       0.418  -3.188   6.310  0.00  0.00    -0.255 N 
ATOM      2  C   UNL     1       0.907  -1.991   5.927  0.00  0.00    +0.283 A 
ATOM      3  O   UNL     1       1.814  -1.468   6.551  0.00  0.00    -0.265 OA
ATOM      4  C   UNL     1       0.359  -1.352   4.802  0.00  0.00    +0.157 A 
ATOM      5  C   UNL     1      -0.689  -1.964   4.116  0.00  0.00    +0.170 A 
ATOM      6  N   UNL     1      -1.024  -1.167   3.105  0.00  0.00    -0.193 NA
ATOM      7  C   UNL     1      -0.261  -0.083   3.112  0.00  0.00    +0.218 A 
ATOM      8  N   UNL     1       0.608  -0.155   4.147  0.00  0.00    -0.275 N 
ATOM      9  C   UNL     1       1.386   0.989   4.137  0.00  0.00    +0.043 A 
ATOM     10  C   UNL     1       1.006   1.745   3.112  0.00  0.00    +0.038 A 
ATOM     11  N   UNL     1      -0.020   1.094   2.454  0.00  0.00    -0.311 N 
ATOM     12  C   UNL     1       1.592   3.080   2.733  0.00  0.00    +0.065 C 
ATOM     13  C   UNL     1       2.479   1.321   5.121  0.00  0.00    +0.066 C 
ATOM     14  N   UNL     1      -1.153  -3.192   4.563  0.00  0.00    -0.279 N 
ATOM     15  C   UNL     1      -0.582  -3.778   5.633  0.00  0.00    +0.334 A 
ATOM     16  O   UNL     1      -0.996  -4.858   6.008  0.00  0.00    -0.246 OA
ATOM     17  C   UNL     1      -2.246  -3.864   3.856  0.00  0.00    +0.155 C 
ENDROOT
BRANCH   1  18
ATOM     18  C   UNL     1       0.988  -3.857   7.482  0.00  0.00    +0.165 C 
BRANCH  18  23
ATOM     19  C   UNL     1      -1.899  -2.232  12.217  0.00  0.00    +0.044 C 
ATOM     20  C   UNL     1      -1.146  -2.656  10.983  0.00  0.00    -0.050 A 
ATOM     21  C   UNL     1      -1.562  -3.763  10.265  0.00  0.00    +0.004 A 
ATOM     22  C   UNL     1      -0.871  -4.151   9.133  0.00  0.00    +0.005 A 
ATOM     23  C   UNL     1       0.235  -3.433   8.717  0.00  0.00    -0.027 A 
ATOM     24  C   UNL     1       0.654  -2.331   9.437  0.00  0.00    +0.005 A 
ATOM     25  C   UNL     1      -0.039  -1.940  10.568  0.00  0.00    +0.004 A 
ENDBRANCH  18  23
ENDBRANCH   1  18
BRANCH  11  26
ATOM     26  C   UNL     1      -0.729   1.579   1.267  0.00  0.00    +0.152 C 
BRANCH  26  27
ATOM     27  C   UNL     1      -0.013   1.086   0.008  0.00  0.00    +0.177 C 
BRANCH  27  28
ATOM     28  O   UNL     1      -0.704   1.559  -1.150  0.00  0.00    -0.393 OA
ATOM     29  H   UNL     1      -0.304   1.284  -1.986  0.00  0.00    +0.209 HD
ENDBRANCH  27  28
ENDBRANCH  26  27
ENDBRANCH  11  26
TORSDOF 5
