REMARK  Name = ZINC00985809
REMARK  4 active torsions:
REMARK  status: ('A' for Active; 'I' for Inactive)
REMARK    1  A    between atoms: C_5  and  C_7
REMARK    2  A    between atoms: C_14  and  N_27
REMARK    3  A    between atoms: C_15  and  C_25
REMARK    4  A    between atoms: C_16  and  C_18
REMARK                            x       y       z     vdW  Elec       q    Type
REMARK                         _______ _______ _______ _____ _____    ______ ____
ROOT
ATOM      1  C   UNL     1       1.225  -2.083  -0.057  0.00  0.00    +0.102 A 
ATOM      2  C   UNL     1       0.143  -2.962   0.061  0.00  0.00    +0.054 A 
ATOM      3  C   UNL     1       0.628  -4.237   0.015  0.00  0.00    +0.223 A 
ATOM      4  N   UNL     1       1.968  -4.162  -0.126  0.00  0.00    -0.246 N 
ATOM      5  H   UNL     1       2.578  -4.914  -0.186  0.00  0.00    +0.192 HD
ATOM      6  N   UNL     1       2.323  -2.805  -0.175  0.00  0.00    -0.171 NA
ATOM      7  O   UNL     1      -0.173  -5.328   0.102  0.00  0.00    -0.423 OA
ATOM      8  C   UNL     1      -1.501  -5.141  -0.040  0.00  0.00    +0.200 C 
ATOM      9  C   UNL     1      -2.098  -3.929   0.001  0.00  0.00    +0.098 C 
ATOM     10  C   UNL     1      -1.323  -2.653   0.216  0.00  0.00    +0.102 C 
ENDROOT
BRANCH   1  15
ATOM     11  C   UNL     1       0.150   1.431  -0.855  0.00  0.00    +0.001 A 
ATOM     12  C   UNL     1       1.011   2.165  -0.058  0.00  0.00    +0.001 A 
ATOM     13  C   UNL     1       1.941   1.523   0.739  0.00  0.00    +0.020 A 
ATOM     14  C   UNL     1       2.015   0.143   0.743  0.00  0.00    +0.050 A 
ATOM     15  C   UNL     1       1.150  -0.601  -0.057  0.00  0.00    +0.021 A 
ATOM     16  C   UNL     1       0.215   0.052  -0.858  0.00  0.00    +0.011 A 
ATOM     17 CL   UNL     1       3.184  -0.662   1.743  0.00  0.00    -0.083 Cl
ENDBRANCH   1  15
BRANCH  10  18
ATOM     18  C   UNL     1      -1.588  -2.124   1.603  0.00  0.00    -0.034 A 
ATOM     19  C   UNL     1      -1.234  -2.876   2.708  0.00  0.00    +0.005 A 
ATOM     20  C   UNL     1      -1.476  -2.391   3.979  0.00  0.00    +0.015 A 
ATOM     21  C   UNL     1      -2.072  -1.154   4.146  0.00  0.00    +0.018 A 
ATOM     22  C   UNL     1      -2.426  -0.403   3.040  0.00  0.00    +0.015 A 
ATOM     23  C   UNL     1      -2.179  -0.885   1.769  0.00  0.00    +0.005 A 
ATOM     24 BR   UNL     1      -2.404  -0.491   5.886  0.00  0.00    -0.050 Br
ENDBRANCH  10  18
BRANCH   8  25
ATOM     25  N   UNL     1      -2.292  -6.245  -0.236  0.00  0.00    -0.328 N 
ATOM     26  H   UNL     1      -1.893  -7.128  -0.271  0.00  0.00    +0.145 HD
ATOM     27  H   UNL     1      -3.251  -6.142  -0.342  0.00  0.00    +0.145 HD
ENDBRANCH   8  25
BRANCH   9  28
ATOM     28  C   UNL     1      -3.518  -3.853  -0.167  0.00  0.00    +0.101 C 
ATOM     29  N   UNL     1      -4.645  -3.794  -0.300  0.00  0.00    -0.191 NA
ENDBRANCH   9  28
TORSDOF 4
