REMARK  Name = ZINC31829158
REMARK  6 active torsions:
REMARK  status: ('A' for Active; 'I' for Inactive)
REMARK    1  A    between atoms: C_1  and  C_2
REMARK    2  A    between atoms: N_13  and  C_16
REMARK    3  A    between atoms: C_16  and  C_17
REMARK    4  A    between atoms: N_19  and  N_20
REMARK    5  A    between atoms: C_21  and  C_22
REMARK    6  A    between atoms: C_25  and  C_28
REMARK                            x       y       z     vdW  Elec       q    Type
REMARK                         _______ _______ _______ _____ _____    ______ ____
ROOT
ATOM      1  C   UNL     1       3.031   2.231  -0.169  0.00  0.00    +0.223 C 
ENDROOT
BRANCH   1  13
ATOM      2  C   UNL     1      -5.554   0.547   2.732  0.00  0.00    +0.008 C 
ATOM      3  C   UNL     1      -4.173   1.150   2.467  0.00  0.00    -0.009 C 
ATOM      4  C   UNL     1      -3.295   0.124   1.744  0.00  0.00    +0.008 C 
ATOM      5  C   UNL     1      -1.849   0.619   1.696  0.00  0.00    +0.037 C 
ATOM      6  C   UNL     1      -1.831   2.030   1.114  0.00  0.00    -0.023 A 
ATOM      7  C   UNL     1      -2.954   2.778   1.083  0.00  0.00    -0.004 A 
ATOM      8  S   UNL     1      -2.464   4.314   0.346  0.00  0.00    -0.073 S 
ATOM      9  C   UNL     1      -0.750   3.942   0.072  0.00  0.00    +0.116 A 
ATOM     10  C   UNL     1      -0.616   2.635   0.568  0.00  0.00    +0.076 A 
ATOM     11  C   UNL     1       0.697   2.069   0.478  0.00  0.00    +0.263 A 
ATOM     12  O   UNL     1       0.915   0.940   0.884  0.00  0.00    -0.267 OA
ATOM     13  N   UNL     1       1.685   2.802  -0.068  0.00  0.00    -0.290 N 
ATOM     14  C   UNL     1       1.461   4.060  -0.527  0.00  0.00    +0.203 A 
ATOM     15  N   UNL     1       0.276   4.604  -0.455  0.00  0.00    -0.230 NA
ATOM     16  C   UNL     1      -4.315   2.392   1.576  0.00  0.00    +0.046 C 
ENDBRANCH   1  13
BRANCH   1  17
ATOM     17  C   UNL     1       3.173   1.510  -1.485  0.00  0.00    +0.252 C 
ATOM     18  O   UNL     1       2.242   1.477  -2.262  0.00  0.00    -0.272 OA
ATOM     19  N   UNL     1       4.335   0.903  -1.799  0.00  0.00    -0.206 N 
ATOM     20  H   UNL     1       5.179   0.933  -1.094  0.00  0.00    +0.177 HD
BRANCH  19  21
ATOM     21  N   UNL     1       4.467   0.233  -3.022  0.00  0.00    -0.188 NA
ATOM     22  C   UNL     1       5.541  -0.452  -3.275  0.00  0.00    +0.138 C 
BRANCH  22  23
ATOM     23  C   UNL     1       6.388  -0.927  -2.168  0.00  0.00    -0.005 A 
ATOM     24  C   UNL     1       7.673  -1.415  -2.430  0.00  0.00    +0.010 A 
ATOM     25  C   UNL     1       8.461  -1.851  -1.403  0.00  0.00    +0.016 A 
ATOM     26  C   UNL     1       7.979  -1.820  -0.091  0.00  0.00    +0.063 A 
ATOM     27  C   UNL     1       6.693  -1.338   0.171  0.00  0.00    +0.016 A 
ATOM     28  C   UNL     1       5.907  -0.896  -0.855  0.00  0.00    +0.010 A 
BRANCH  26  29
ATOM     29  C   UNL     1       8.828  -2.297   1.018  0.00  0.00    +0.387 C 
ATOM     30  O   UNL     1       8.409  -2.271   2.158  0.00  0.00    -0.241 OA
ATOM     31  O   UNL     1      10.067  -2.762   0.765  0.00  0.00    -0.241 OA
ENDBRANCH  26  29
ENDBRANCH  22  23
ENDBRANCH  19  21
ENDBRANCH   1  17
TORSDOF 5
