REMARK  Name = ZINC39030059
REMARK  9 active torsions:
REMARK  status: ('A' for Active; 'I' for Inactive)
REMARK    1  A    between atoms: C_1  and  C_2
REMARK    2  A    between atoms: C_7  and  C_9
REMARK    3  A    between atoms: C_9  and  S_10
REMARK    4  A    between atoms: S_10  and  C_11
REMARK    5  A    between atoms: C_13  and  C_28
REMARK    6  A    between atoms: C_14  and  S_17
REMARK    7  A    between atoms: S_17  and  C_18
REMARK    8  A    between atoms: C_18  and  C_19
REMARK    9  A    between atoms: C_24  and  C_27
REMARK                            x       y       z     vdW  Elec       q    Type
REMARK                         _______ _______ _______ _____ _____    ______ ____
ROOT
ATOM      1  C   UNL     1       0.132  -7.885   4.045  0.00  0.00    +0.165 C 
ATOM      2  C   UNL     1       0.179  -9.370   3.719  0.00  0.00    +0.082 C 
ATOM      3  C   UNL     1      -0.899 -10.038   4.163  0.00  0.00    +0.087 C 
ATOM      4  N   UNL     1      -1.912  -9.412   4.835  0.00  0.00    -0.281 N 
ATOM      5  S   UNL     1      -1.477  -7.793   4.929  0.00  0.00    -0.041 S 
ATOM      6  H   UNL     1      -2.719  -9.820   5.186  0.00  0.00    +0.161 HD
ENDROOT
BRANCH   2   7
ATOM      7  C   UNL     1       1.259  -9.991   3.013  0.00  0.00    +0.099 C 
ATOM      8  N   UNL     1       2.115 -10.483   2.452  0.00  0.00    -0.191 NA
ENDBRANCH   2   7
BRANCH   1   9
ATOM      9  S   UNL     1       0.110  -6.881   2.534  0.00  0.00    -0.130 S 
BRANCH   9  10
ATOM     10  C   UNL     1       0.090  -5.172   3.144  0.00  0.00    +0.166 C 
BRANCH  10  17
ATOM     11  C   UNL     1      -0.018   1.503   0.010  0.00  0.00    +0.066 C 
ATOM     12  C   UNL     1       0.002  -0.004   0.002  0.00  0.00    +0.047 A 
ATOM     13  C   UNL     1       0.006  -0.706  -1.158  0.00  0.00    +0.071 A 
ATOM     14  S   UNL     1       0.032  -2.379  -0.535  0.00  0.00    -0.060 S 
ATOM     15  C   UNL     1       0.036  -2.015   1.108  0.00  0.00    +0.165 A 
ATOM     16  N   UNL     1       0.053  -2.891   2.187  0.00  0.00    -0.264 N 
ATOM     17  C   UNL     1       0.070  -4.222   1.974  0.00  0.00    +0.229 C 
ATOM     18  O   UNL     1       0.070  -4.655   0.841  0.00  0.00    -0.275 OA
ATOM     19  N   UNL     1       0.023  -0.700   1.124  0.00  0.00    -0.230 NA
ATOM     20  H   UNL     1       0.054  -2.545   3.093  0.00  0.00    +0.157 HD
ENDBRANCH  10  17
ENDBRANCH   9  10
ENDBRANCH   1   9
BRANCH   3  21
ATOM     21  S   UNL     1      -1.011 -11.772   3.872  0.00  0.00    -0.099 S 
BRANCH  21  22
ATOM     22  C   UNL     1      -2.592 -12.243   4.626  0.00  0.00    +0.171 C 
BRANCH  22  23
ATOM     23  C   UNL     1      -2.813 -13.723   4.446  0.00  0.00    +0.229 C 
ATOM     24  O   UNL     1      -1.987 -14.393   3.865  0.00  0.00    -0.275 OA
ATOM     25  N   UNL     1      -3.931 -14.301   4.930  0.00  0.00    -0.264 N 
ATOM     26  C   UNL     1      -4.135 -15.665   4.763  0.00  0.00    +0.165 A 
ATOM     27  N   UNL     1      -5.157 -16.393   5.159  0.00  0.00    -0.230 NA
ATOM     28  C   UNL     1      -5.203 -17.691   4.921  0.00  0.00    +0.047 A 
ATOM     29  C   UNL     1      -4.154 -18.233   4.255  0.00  0.00    +0.071 A 
ATOM     30  S   UNL     1      -3.139 -16.787   3.999  0.00  0.00    -0.060 S 
ATOM     31  C   UNL     1      -6.370 -18.532   5.372  0.00  0.00    +0.066 C 
ATOM     32  H   UNL     1      -4.592 -13.764   5.394  0.00  0.00    +0.157 HD
ENDBRANCH  22  23
ENDBRANCH  21  22
ENDBRANCH   3  21
TORSDOF 7
