REMARK  Name = ZINC08672964
REMARK  4 active torsions:
REMARK  status: ('A' for Active; 'I' for Inactive)
REMARK    1  A    between atoms: C_3  and  O_15
REMARK    2  A    between atoms: C_6  and  C_7
REMARK    3  A    between atoms: O_15  and  C_16
REMARK    4  A    between atoms: C_19  and  N_22
REMARK                            x       y       z     vdW  Elec       q    Type
REMARK                         _______ _______ _______ _____ _____    ______ ____
ROOT
ATOM      1  C   UNL     1      -8.553   2.636   0.161  0.00  0.00    +0.011 A 
ATOM      2  C   UNL     1      -7.595   3.606   0.345  0.00  0.00    +0.047 A 
ATOM      3  C   UNL     1      -6.313   3.252   0.753  0.00  0.00    +0.130 A 
ATOM      4  C   UNL     1      -5.992   1.917   0.971  0.00  0.00    +0.047 A 
ATOM      5  C   UNL     1      -6.944   0.939   0.795  0.00  0.00    +0.011 A 
ATOM      6  C   UNL     1      -8.237   1.290   0.385  0.00  0.00    -0.024 A 
ENDROOT
BRANCH   6   7
ATOM      7  C   UNL     1      -9.255   0.251   0.190  0.00  0.00    +0.028 C 
ATOM      8  C   UNL     1     -10.389   0.533  -0.502  0.00  0.00    +0.080 C 
ATOM      9  C   UNL     1     -11.600  -0.288  -0.699  0.00  0.00    +0.258 C 
ATOM     10  O   UNL     1     -11.705  -1.399  -0.213  0.00  0.00    -0.269 OA
ATOM     11  N   UNL     1     -12.566   0.246  -1.426  0.00  0.00    -0.243 N 
ATOM     12  C   UNL     1     -12.443   1.474  -1.969  0.00  0.00    +0.283 C 
ATOM     13  O   UNL     1     -13.242   2.080  -2.657  0.00  0.00    -0.262 OA
ATOM     14  S   UNL     1     -10.821   1.996  -1.432  0.00  0.00    -0.026 S 
ATOM     15  H   UNL     1     -13.497  -0.314  -1.601  0.00  0.00    +0.159 HD
ENDBRANCH   6   7
BRANCH   3  16
ATOM     16  O   UNL     1      -5.371   4.213   0.933  0.00  0.00    -0.438 OA
BRANCH  16  17
ATOM     17  C   UNL     1      -5.435   4.963   2.062  0.00  0.00    +0.221 A 
ATOM     18  C   UNL     1      -4.434   5.889   2.330  0.00  0.00    +0.070 A 
ATOM     19  C   UNL     1      -4.514   6.652   3.482  0.00  0.00    +0.039 A 
ATOM     20  C   UNL     1      -5.591   6.454   4.334  0.00  0.00    +0.144 A 
ATOM     21  C   UNL     1      -6.550   5.516   4.004  0.00  0.00    +0.147 A 
ATOM     22  N   UNL     1      -6.449   4.807   2.896  0.00  0.00    -0.219 NA
BRANCH  20  23
ATOM     23  N   UNL     1      -5.715   7.244   5.579  0.00  0.00    +0.058 N 
ATOM     24  O   UNL     1      -6.666   7.068   6.320  0.00  0.00    -0.126 OA
ATOM     25  O   UNL     1      -4.864   8.066   5.866  0.00  0.00    -0.126 OA
ENDBRANCH  20  23
ENDBRANCH  16  17
ENDBRANCH   3  16
TORSDOF 4
