REMARK  Name = ZINC31922600
REMARK  3 active torsions:
REMARK  status: ('A' for Active; 'I' for Inactive)
REMARK    1  A    between atoms: C_7  and  C_13
REMARK    2  A    between atoms: N_15  and  C_16
REMARK    3  A    between atoms: C_21  and  N_22
REMARK                            x       y       z     vdW  Elec       q    Type
REMARK                         _______ _______ _______ _____ _____    ______ ____
ROOT
ATOM      1  C   UNL     1       0.495   5.340   0.422  0.00  0.00    +0.225 C 
ATOM      2  O   UNL     1      -0.460   6.062   0.620  0.00  0.00    -0.275 OA
ATOM      3  N   UNL     1       0.310   4.021   0.214  0.00  0.00    -0.283 N 
ATOM      4  H   UNL     1       1.178   3.356   0.099  0.00  0.00    +0.155 HD
ENDROOT
BRANCH   1  11
ATOM      5  C   UNL     1       1.708   9.646  -0.156  0.00  0.00    +0.000 A 
ATOM      6  C   UNL     1       1.687  10.125   1.141  0.00  0.00    +0.002 A 
ATOM      7  C   UNL     1       1.734   9.245   2.205  0.00  0.00    +0.023 A 
ATOM      8  C   UNL     1       1.798   7.878   1.969  0.00  0.00    +0.037 A 
ATOM      9  C   UNL     1       1.817   7.401   0.665  0.00  0.00    -0.014 A 
ATOM     10  C   UNL     1       1.773   8.286  -0.394  0.00  0.00    +0.006 A 
ATOM     11  C   UNL     1       1.887   5.917   0.410  0.00  0.00    +0.116 C 
ATOM     12  C   UNL     1       2.725   5.250   1.501  0.00  0.00    +0.113 C 
ATOM     13  C   UNL     1       2.268   5.718   2.856  0.00  0.00    +0.218 C 
ATOM     14  O   UNL     1       2.286   4.948   3.794  0.00  0.00    -0.275 OA
ATOM     15  N   UNL     1       1.841   6.981   3.041  0.00  0.00    -0.285 N 
ATOM     16  H   UNL     1       1.525   7.305   4.043  0.00  0.00    +0.155 HD
ENDBRANCH   1  11
BRANCH   3  17
ATOM     17  C   UNL     1      -0.986   3.499   0.143  0.00  0.00    +0.061 A 
ATOM     18  C   UNL     1      -2.034   4.147   0.781  0.00  0.00    +0.025 A 
ATOM     19  C   UNL     1      -3.312   3.627   0.716  0.00  0.00    +0.003 A 
ATOM     20  C   UNL     1      -3.554   2.462   0.010  0.00  0.00    +0.022 A 
ATOM     21  C   UNL     1      -2.517   1.812  -0.634  0.00  0.00    +0.068 A 
ATOM     22  C   UNL     1      -1.230   2.328  -0.574  0.00  0.00    +0.106 A 
ATOM     23 CL   UNL     1      -2.825   0.350  -1.519  0.00  0.00    -0.081 Cl
BRANCH  22  24
ATOM     24  N   UNL     1      -0.176   1.671  -1.226  0.00  0.00    -0.217 N 
ATOM     25  C   UNL     1       0.728   2.223  -2.057  0.00  0.00    +0.225 A 
ATOM     26  N   UNL     1       1.545   1.279  -2.451  0.00  0.00    -0.222 NA
ATOM     27  C   UNL     1       1.197   0.119  -1.896  0.00  0.00    +0.245 A 
ATOM     28  N   UNL     1       0.149   0.307  -1.138  0.00  0.00    -0.153 NA
ENDBRANCH  22  24
ENDBRANCH   3  17
TORSDOF 3
