REMARK  Name = ZINC46622764
REMARK  5 active torsions:
REMARK  status: ('A' for Active; 'I' for Inactive)
REMARK    1  A    between atoms: C_1  and  C_2
REMARK    2  A    between atoms: C_8  and  C_13
REMARK    3  A    between atoms: C_9  and  C_12
REMARK    4  A    between atoms: C_13  and  C_14
REMARK    5  A    between atoms: C_22  and  C_24
REMARK                            x       y       z     vdW  Elec       q    Type
REMARK                         _______ _______ _______ _____ _____    ______ ____
ROOT
ATOM      1  C   UNL     1      -1.371  -2.880   4.246  0.00  0.00    +0.220 C 
ATOM      2  O   UNL     1      -2.296  -3.026   3.475  0.00  0.00    -0.275 OA
ATOM      3  N   UNL     1      -1.611  -2.652   5.552  0.00  0.00    -0.298 N 
ATOM      4  C   UNL     1      -0.500  -2.467   6.496  0.00  0.00    +0.127 C 
ATOM      5  C   UNL     1      -0.689  -1.129   7.220  0.00  0.00    +0.127 C 
ATOM      6  N   UNL     1      -2.067  -1.058   7.726  0.00  0.00    -0.292 N 
ATOM      7  C   UNL     1      -3.178  -1.242   6.782  0.00  0.00    +0.127 C 
ATOM      8  C   UNL     1      -2.990  -2.576   6.057  0.00  0.00    +0.127 C 
ATOM      9  C   UNL     1      -2.308  -0.830   9.032  0.00  0.00    +0.282 C 
ATOM     10  O   UNL     1      -3.450  -0.675   9.422  0.00  0.00    -0.267 OA
ENDROOT
BRANCH   9  11
ATOM     11  C   UNL     1      -1.191  -0.767   9.985  0.00  0.00    +0.191 A 
ATOM     12  C   UNL     1      -1.319  -0.664  11.333  0.00  0.00    +0.063 A 
ATOM     13  C   UNL     1       0.042  -0.635  11.868  0.00  0.00    +0.021 A 
ATOM     14  C   UNL     1       0.582  -0.542  13.153  0.00  0.00    +0.011 A 
ATOM     15  C   UNL     1       1.938  -0.540  13.320  0.00  0.00    +0.001 A 
ATOM     16  C   UNL     1       2.782  -0.629  12.222  0.00  0.00    +0.004 A 
ATOM     17  C   UNL     1       2.270  -0.721  10.946  0.00  0.00    +0.047 A 
ATOM     18  C   UNL     1       0.893  -0.726  10.751  0.00  0.00    +0.136 A 
ATOM     19  O   UNL     1       0.116  -0.808   9.653  0.00  0.00    -0.450 OA
ENDBRANCH   9  11
BRANCH   1  20
ATOM     20  C   UNL     1       0.048  -2.955   3.743  0.00  0.00    +0.133 C 
BRANCH  20  28
ATOM     21  C   UNL     1      -0.013   1.359  -0.024  0.00  0.00    +0.044 C 
ATOM     22  C   UNL     1       0.001  -0.147  -0.010  0.00  0.00    -0.050 A 
ATOM     23  C   UNL     1       0.001  -0.847  -1.209  0.00  0.00    +0.005 A 
ATOM     24  C   UNL     1       0.013  -2.225  -1.219  0.00  0.00    +0.026 A 
ATOM     25  C   UNL     1       0.026  -2.924  -0.016  0.00  0.00    +0.047 A 
ATOM     26  C   UNL     1       0.027  -2.210   1.196  0.00  0.00    +0.004 A 
ATOM     27  C   UNL     1       0.019  -0.814   1.182  0.00  0.00    +0.013 A 
ATOM     28  C   UNL     1       0.042  -3.218   2.259  0.00  0.00    -0.011 A 
ATOM     29  C   UNL     1       0.049  -4.419   1.661  0.00  0.00    +0.018 A 
ATOM     30  N   UNL     1       0.040  -4.264   0.301  0.00  0.00    -0.358 N 
ATOM     31  H   UNL     1       0.044  -4.989  -0.343  0.00  0.00    +0.166 HD
ATOM     32  C   UNL     1       0.065  -5.744   2.380  0.00  0.00    +0.063 C 
ENDBRANCH  20  28
ENDBRANCH   1  20
TORSDOF 3
