REMARK  Name = ZINC08202057
REMARK  9 active torsions:
REMARK  status: ('A' for Active; 'I' for Inactive)
REMARK    1  A    between atoms: C_1  and  C_2
REMARK    2  A    between atoms: C_2  and  C_3
REMARK    3  A    between atoms: C_6  and  C_8
REMARK    4  A    between atoms: C_10  and  C_31
REMARK    5  A    between atoms: C_11  and  N_30
REMARK    6  A    between atoms: N_12  and  N_27
REMARK    7  A    between atoms: C_18  and  C_21
REMARK    8  A    between atoms: N_27  and  C_28
REMARK    9  A    between atoms: N_27  and  C_29
REMARK                            x       y       z     vdW  Elec       q    Type
REMARK                         _______ _______ _______ _____ _____    ______ ____
ROOT
ATOM      1  C   UNL     1      -2.866   1.857   2.247  0.00  0.00    +0.104 C 
ATOM      2  C   UNL     1      -2.162   2.219   3.522  0.00  0.00    +0.078 C 
ATOM      3  C   UNL     1      -0.831   2.492   3.534  0.00  0.00    +0.117 C 
ATOM      4  N   UNL     1      -0.106   2.447   2.366  0.00  0.00    -0.223 N 
ATOM      5  C   UNL     1      -0.735   2.526   1.153  0.00  0.00    +0.037 C 
ATOM      6  C   UNL     1      -2.055   2.265   1.043  0.00  0.00    +0.027 C 
ATOM      7  C   UNL     1      -2.712   2.360  -0.196  0.00  0.00    +0.162 C 
ATOM      8  O   UNL     1      -3.898   2.105  -0.263  0.00  0.00    -0.292 OA
ATOM      9  C   UNL     1      -1.974   2.770  -1.441  0.00  0.00    +0.088 C 
ATOM     10  C   UNL     1      -0.798   3.671  -1.050  0.00  0.00    +0.032 C 
ATOM     11  C   UNL     1       0.083   2.913  -0.054  0.00  0.00    +0.061 C 
ENDROOT
BRANCH  10  12
ATOM     12  C   UNL     1       0.006   4.016  -2.277  0.00  0.00    -0.044 A 
ATOM     13  C   UNL     1       0.579   3.011  -3.033  0.00  0.00    +0.004 A 
ATOM     14  C   UNL     1       1.313   3.327  -4.161  0.00  0.00    +0.000 A 
ATOM     15  C   UNL     1       1.481   4.649  -4.528  0.00  0.00    +0.000 A 
ATOM     16  C   UNL     1       0.911   5.655  -3.769  0.00  0.00    +0.000 A 
ATOM     17  C   UNL     1       0.174   5.338  -2.643  0.00  0.00    +0.004 A 
ENDBRANCH  10  12
BRANCH   1  21
ATOM     18  C   UNL     1      -3.021  -2.328   2.158  0.00  0.00    -0.010 A 
ATOM     19  C   UNL     1      -4.223  -1.701   2.138  0.00  0.00    +0.011 A 
ATOM     20  C   UNL     1      -4.258  -0.319   2.166  0.00  0.00    +0.012 A 
ATOM     21  C   UNL     1      -3.090   0.368   2.211  0.00  0.00    +0.003 A 
ATOM     22  S   UNL     1      -1.887  -0.951   2.210  0.00  0.00    -0.097 S 
BRANCH  18  24
ATOM     23  C   UNL     1      -2.580  -4.275   0.687  0.00  0.00    +0.009 C 
ATOM     24  C   UNL     1      -2.721  -3.804   2.136  0.00  0.00    +0.039 C 
ENDBRANCH  18  24
ENDBRANCH   1  21
BRANCH   4  25
ATOM     25  N   UNL     1       1.253   2.322   2.418  0.00  0.00    -0.227 NA
ATOM     26  C   UNL     1       1.870   3.524   2.995  0.00  0.00    +0.128 C 
ATOM     27  C   UNL     1       1.643   1.119   3.166  0.00  0.00    +0.128 C 
ENDBRANCH   4  25
BRANCH   3  28
ATOM     28  N   UNL     1      -0.208   2.814   4.715  0.00  0.00    -0.344 N 
ATOM     29  H   UNL     1      -0.698   3.280   5.411  0.00  0.00    +0.144 HD
ATOM     30  H   UNL     1       0.722   2.576   4.854  0.00  0.00    +0.144 HD
ENDBRANCH   3  28
BRANCH   2  31
ATOM     31  C   UNL     1      -2.904   2.277   4.745  0.00  0.00    +0.099 C 
ATOM     32  N   UNL     1      -3.492   2.323   5.715  0.00  0.00    -0.191 NA
ENDBRANCH   2  31
TORSDOF 6
