REMARK  Name = ZINC03430816
REMARK  3 active torsions:
REMARK  status: ('A' for Active; 'I' for Inactive)
REMARK    1  A    between atoms: C_6  and  S_7
REMARK    2  A    between atoms: S_7  and  N_10
REMARK    3  A    between atoms: C_13  and  C_16
REMARK                            x       y       z     vdW  Elec       q    Type
REMARK                         _______ _______ _______ _____ _____    ______ ____
ROOT
ATOM      1  N   UNL     1       4.337  -1.074  -1.641  0.00  0.00    -0.177 NA
ATOM      2  C   UNL     1       3.904  -2.281  -2.357  0.00  0.00    +0.110 C 
ATOM      3  C   UNL     1       5.125  -2.955  -2.980  0.00  0.00    +0.030 C 
ATOM      4  C   UNL     1       5.875  -1.943  -3.850  0.00  0.00    +0.078 C 
ATOM      5  C   UNL     1       6.354  -0.778  -2.982  0.00  0.00    +0.030 C 
ATOM      6  C   UNL     1       5.143  -0.077  -2.360  0.00  0.00    +0.110 C 
ENDROOT
BRANCH   4   7
ATOM      7  C   UNL     1       7.062  -2.614  -4.491  0.00  0.00    +0.222 C 
ATOM      8  O   UNL     1       8.182  -2.201  -4.274  0.00  0.00    -0.275 OA
ATOM      9  N   UNL     1       6.880  -3.673  -5.304  0.00  0.00    -0.264 N 
ATOM     10  C   UNL     1       7.976  -4.292  -5.895  0.00  0.00    +0.165 A 
ATOM     11  N   UNL     1       8.002  -5.327  -6.709  0.00  0.00    -0.229 NA
ATOM     12  C   UNL     1       9.139  -5.813  -7.201  0.00  0.00    +0.054 A 
ATOM     13  C   UNL     1      10.276  -5.179  -6.812  0.00  0.00    +0.014 A 
ATOM     14  S   UNL     1       9.662  -3.895  -5.755  0.00  0.00    -0.057 S 
ATOM     15  C   UNL     1      11.680  -5.499  -7.198  0.00  0.00    +0.044 C 
ATOM     16  C   UNL     1      11.698  -6.900  -7.830  0.00  0.00    +0.006 C 
ATOM     17  C   UNL     1      10.566  -6.990  -8.857  0.00  0.00    +0.006 C 
ATOM     18  C   UNL     1       9.211  -7.007  -8.146  0.00  0.00    +0.056 C 
ATOM     19  H   UNL     1       5.985  -4.004  -5.477  0.00  0.00    +0.157 HD
ENDBRANCH   4   7
BRANCH   1  20
ATOM     20  S   UNL     1       3.931  -0.843  -0.052  0.00  0.00    +0.061 S 
ATOM     21  O   UNL     1       4.904   0.038   0.492  0.00  0.00    -0.153 OA
ATOM     22  O   UNL     1       3.679  -2.131   0.494  0.00  0.00    -0.153 OA
BRANCH  20  28
ATOM     23  C   UNL     1       1.208  -0.680  -0.016  0.00  0.00    +0.032 A 
ATOM     24  C   UNL     1       0.002  -0.004   0.002  0.00  0.00    +0.051 A 
ATOM     25  C   UNL     1      -0.017   1.382   0.010  0.00  0.00    +0.162 A 
ATOM     26  C   UNL     1       1.180   2.090   0.002  0.00  0.00    +0.164 A 
ATOM     27  C   UNL     1       2.385   1.406  -0.018  0.00  0.00    +0.078 A 
ATOM     28  C   UNL     1       2.397   0.023  -0.027  0.00  0.00    +0.109 A 
ATOM     29  O   UNL     1       1.184   3.451   0.018  0.00  0.00    -0.485 OA
ATOM     30  C   UNL     1      -0.040   4.103  -0.340  0.00  0.00    +0.270 C 
ATOM     31  C   UNL     1      -1.188   3.413   0.408  0.00  0.00    +0.270 C 
ATOM     32  O   UNL     1      -1.211   2.034   0.019  0.00  0.00    -0.485 OA
ENDBRANCH  20  28
ENDBRANCH   1  20
TORSDOF 3
