REMARK  Name = ZINC17230630
REMARK  6 active torsions:
REMARK  status: ('A' for Active; 'I' for Inactive)
REMARK    1  A    between atoms: C_5  and  C_7
REMARK    2  A    between atoms: C_10  and  S_19
REMARK    3  A    between atoms: N_11  and  C_12
REMARK    4  A    between atoms: S_19  and  C_20
REMARK    5  A    between atoms: C_20  and  C_21
REMARK    6  A    between atoms: C_24  and  C_27
REMARK                            x       y       z     vdW  Elec       q    Type
REMARK                         _______ _______ _______ _____ _____    ______ ____
ROOT
ATOM      1  C   UNL     1       2.026   0.566  -0.215  0.00  0.00    +0.171 A 
ATOM      2  N   UNL     1       1.203  -0.433   0.002  0.00  0.00    -0.128 NA
ATOM      3  N   UNL     1       0.015   0.012   0.205  0.00  0.00    -0.122 NA
ATOM      4  C   UNL     1       0.004   1.324   0.131  0.00  0.00    +0.197 A 
ATOM      5  N   UNL     1       1.284   1.724  -0.139  0.00  0.00    -0.267 N 
ENDROOT
BRANCH   1  10
ATOM      6  C   UNL     1       5.726   1.192  -0.069  0.00  0.00    +0.001 A 
ATOM      7  C   UNL     1       6.191   0.281  -1.001  0.00  0.00    +0.001 A 
ATOM      8  C   UNL     1       5.306  -0.537  -1.679  0.00  0.00    +0.021 A 
ATOM      9  C   UNL     1       3.951  -0.454  -1.425  0.00  0.00    +0.052 A 
ATOM     10  C   UNL     1       3.475   0.467  -0.489  0.00  0.00    +0.038 A 
ATOM     11  C   UNL     1       4.375   1.290   0.191  0.00  0.00    +0.013 A 
ATOM     12 CL   UNL     1       2.842  -1.487  -2.271  0.00  0.00    -0.083 Cl
ENDBRANCH   1  10
BRANCH   5  13
ATOM     13  C   UNL     1       1.745   3.039  -0.305  0.00  0.00    +0.086 A 
ATOM     14  C   UNL     1       2.088   3.801   0.803  0.00  0.00    +0.029 A 
ATOM     15  C   UNL     1       2.541   5.095   0.638  0.00  0.00    +0.002 A 
ATOM     16  C   UNL     1       2.654   5.633  -0.631  0.00  0.00    +0.003 A 
ATOM     17  C   UNL     1       2.314   4.878  -1.738  0.00  0.00    +0.040 A 
ATOM     18  C   UNL     1       1.865   3.580  -1.580  0.00  0.00    +0.147 A 
ATOM     19  F   UNL     1       1.538   2.840  -2.662  0.00  0.00    -0.203 F 
ENDBRANCH   5  13
BRANCH   4  20
ATOM     20  S   UNL     1      -1.397   2.372   0.335  0.00  0.00    -0.081 S 
BRANCH  20  21
ATOM     21  C   UNL     1      -2.676   1.130   0.648  0.00  0.00    +0.112 C 
BRANCH  21  22
ATOM     22  C   UNL     1      -4.001   1.815   0.858  0.00  0.00    -0.037 A 
ATOM     23  C   UNL     1      -4.388   2.191   2.132  0.00  0.00    +0.005 A 
ATOM     24  C   UNL     1      -5.598   2.823   2.331  0.00  0.00    +0.013 A 
ATOM     25  C   UNL     1      -6.438   3.073   1.244  0.00  0.00    +0.037 A 
ATOM     26  C   UNL     1      -6.045   2.685  -0.037  0.00  0.00    +0.013 A 
ATOM     27  C   UNL     1      -4.829   2.059  -0.223  0.00  0.00    +0.005 A 
BRANCH  25  28
ATOM     28  C   UNL     1      -7.739   3.745   1.450  0.00  0.00    +0.242 C 
ATOM     29  O   UNL     1      -8.468   3.961   0.502  0.00  0.00    -0.270 OA
ATOM     30  N   UNL     1      -8.116   4.117   2.690  0.00  0.00    -0.325 N 
ATOM     31  H   UNL     1      -7.534   3.945   3.446  0.00  0.00    +0.145 HD
ATOM     32  H   UNL     1      -8.969   4.559   2.825  0.00  0.00    +0.145 HD
ENDBRANCH  25  28
ENDBRANCH  21  22
ENDBRANCH  20  21
ENDBRANCH   4  20
TORSDOF 6
