REMARK  Name = ZINC18043057
REMARK  6 active torsions:
REMARK  status: ('A' for Active; 'I' for Inactive)
REMARK    1  A    between atoms: C_1  and  C_2
REMARK    2  A    between atoms: C_2  and  N_3
REMARK    3  A    between atoms: C_4  and  S_15
REMARK    4  A    between atoms: N_5  and  C_6
REMARK    5  A    between atoms: S_15  and  C_16
REMARK    6  A    between atoms: N_21  and  C_24
REMARK                            x       y       z     vdW  Elec       q    Type
REMARK                         _______ _______ _______ _____ _____    ______ ____
ROOT
ATOM      1  N   UNL     1       0.780  -0.488   1.145  0.00  0.00    -0.324 N 
ATOM      2  C   UNL     1       0.882  -1.838   1.381  0.00  0.00    +0.155 C 
ATOM      3  N   UNL     1       1.575  -2.274   2.408  0.00  0.00    -0.226 NA
ATOM      4  H   UNL     1       1.185   0.144   1.759  0.00  0.00    +0.148 HD
ENDROOT
BRANCH   3   5
ATOM      5  C   UNL     1       2.094  -1.385   3.312  0.00  0.00    +0.070 A 
ATOM      6  C   UNL     1       1.253  -0.490   3.976  0.00  0.00    +0.031 A 
ATOM      7  C   UNL     1       1.778   0.405   4.886  0.00  0.00    +0.051 A 
ATOM      8  C   UNL     1       3.140   0.419   5.145  0.00  0.00    +0.166 A 
ATOM      9  C   UNL     1       3.985  -0.471   4.486  0.00  0.00    +0.168 A 
ATOM     10  C   UNL     1       3.464  -1.375   3.577  0.00  0.00    +0.077 A 
ATOM     11  O   UNL     1       5.264  -0.256   4.913  0.00  0.00    -0.453 OA
ATOM     12  C   UNL     1       5.249   1.044   5.531  0.00  0.00    +0.466 C 
ATOM     13  O   UNL     1       3.891   1.192   5.985  0.00  0.00    -0.453 OA
ENDBRANCH   3   5
BRANCH   1  15
ATOM     14  C   UNL     1       0.096   1.526  -0.062  0.00  0.00    +0.024 C 
ATOM     15  C   UNL     1       0.060  -0.003  -0.036  0.00  0.00    +0.100 C 
ENDBRANCH   1  15
BRANCH   2  16
ATOM     16  S   UNL     1       0.082  -2.983   0.307  0.00  0.00    -0.077 S 
BRANCH  16  17
ATOM     17  C   UNL     1       0.494  -4.604   1.009  0.00  0.00    +0.149 C 
ATOM     18  C   UNL     1      -0.197  -5.731   0.215  0.00  0.00    +0.120 C 
ATOM     19  C   UNL     1       0.958  -6.545  -0.325  0.00  0.00    +0.228 C 
ATOM     20  O   UNL     1       0.856  -7.538  -1.014  0.00  0.00    -0.275 OA
ATOM     21  N   UNL     1       2.110  -5.997   0.079  0.00  0.00    -0.207 N 
ATOM     22  C   UNL     1       1.969  -4.899   0.838  0.00  0.00    +0.240 C 
ATOM     23  O   UNL     1       2.874  -4.246   1.311  0.00  0.00    -0.274 OA
BRANCH  21  24
ATOM     24  C   UNL     1       3.364  -6.527  -0.261  0.00  0.00    +0.079 A 
ATOM     25  C   UNL     1       4.009  -6.101  -1.414  0.00  0.00    +0.027 A 
ATOM     26  C   UNL     1       5.244  -6.625  -1.746  0.00  0.00    +0.002 A 
ATOM     27  C   UNL     1       5.838  -7.571  -0.932  0.00  0.00    +0.003 A 
ATOM     28  C   UNL     1       5.199  -7.998   0.217  0.00  0.00    +0.040 A 
ATOM     29  C   UNL     1       3.966  -7.474   0.559  0.00  0.00    +0.145 A 
ATOM     30  F   UNL     1       3.344  -7.887   1.685  0.00  0.00    -0.204 F 
ENDBRANCH  21  24
ENDBRANCH  16  17
ENDBRANCH   2  16
TORSDOF 5
