REMARK  Name = ZINC58556265
REMARK  11 active torsions:
REMARK  status: ('A' for Active; 'I' for Inactive)
REMARK    1  A    between atoms: C_1  and  C_2
REMARK    2  A    between atoms: C_7  and  C_8
REMARK    3  A    between atoms: C_8  and  C_9
REMARK    4  A    between atoms: C_8  and  C_10
REMARK    5  A    between atoms: C_11  and  C_16
REMARK    6  A    between atoms: C_16  and  S_17
REMARK    7  A    between atoms: S_17  and  C_18
REMARK    8  A    between atoms: C_21  and  C_28
REMARK    9  A    between atoms: N_22  and  C_23
REMARK   10  A    between atoms: C_23  and  C_24
REMARK   11  A    between atoms: C_24  and  C_25
REMARK                            x       y       z     vdW  Elec       q    Type
REMARK                         _______ _______ _______ _____ _____    ______ ____
ROOT
ATOM      1  S   UNL     1       2.624  -4.598   1.589  0.00  0.00    -0.081 S 
ENDROOT
BRANCH   1   2
ATOM      2  C   UNL     1       2.912  -5.556   3.039  0.00  0.00    +0.192 A 
ATOM      3  N   UNL     1       2.046  -6.343   3.636  0.00  0.00    -0.122 NA
ATOM      4  N   UNL     1       2.584  -6.891   4.667  0.00  0.00    -0.128 NA
ATOM      5  C   UNL     1       3.829  -6.487   4.791  0.00  0.00    +0.172 A 
ATOM      6  N   UNL     1       4.079  -5.624   3.748  0.00  0.00    -0.301 N 
BRANCH   5   7
ATOM      7  C   UNL     1       4.778  -6.887   5.843  0.00  0.00    +0.056 A 
ATOM      8  C   UNL     1       4.701  -7.937   6.723  0.00  0.00    +0.019 A 
ATOM      9  C   UNL     1       5.722  -8.115   7.629  0.00  0.00    +0.008 A 
ATOM     10  C   UNL     1       6.770  -7.251   7.625  0.00  0.00    +0.046 A 
ATOM     11  S   UNL     1       6.332  -6.138   6.300  0.00  0.00    -0.094 S 
ENDBRANCH   5   7
BRANCH   6  12
ATOM     12  C   UNL     1       5.332  -4.922   3.460  0.00  0.00    +0.135 C 
BRANCH  12  13
ATOM     13  C   UNL     1       5.336  -3.570   4.177  0.00  0.00    +0.117 C 
BRANCH  13  14
ATOM     14  C   UNL     1       6.626  -2.849   3.880  0.00  0.00    +0.212 C 
ATOM     15  O   UNL     1       7.459  -3.365   3.166  0.00  0.00    -0.276 OA
ATOM     16  N   UNL     1       6.853  -1.630   4.409  0.00  0.00    -0.329 N 
ATOM     17  H   UNL     1       6.186  -1.217   4.980  0.00  0.00    +0.145 HD
ATOM     18  H   UNL     1       7.682  -1.165   4.218  0.00  0.00    +0.145 HD
ENDBRANCH  13  14
ENDBRANCH  12  13
ENDBRANCH   6  12
ENDBRANCH   1   2
BRANCH   1  19
ATOM     19  C   UNL     1       0.898  -4.956   1.160  0.00  0.00    +0.113 C 
BRANCH  19  27
ATOM     20  C   UNL     1      -0.488   1.457   0.079  0.00  0.00    +0.044 C 
ATOM     21  C   UNL     1      -0.224  -0.026   0.035  0.00  0.00    -0.044 A 
ATOM     22  C   UNL     1      -0.330  -0.703  -1.162  0.00  0.00    +0.050 A 
ATOM     23  C   UNL     1      -0.087  -2.070  -1.206  0.00  0.00    +0.140 A 
ATOM     24  C   UNL     1       0.264  -2.746  -0.025  0.00  0.00    +0.022 A 
ATOM     25  C   UNL     1       0.365  -2.042   1.179  0.00  0.00    +0.016 A 
ATOM     26  C   UNL     1       0.128  -0.696   1.198  0.00  0.00    -0.041 A 
ATOM     27  C   UNL     1       0.519  -4.189  -0.080  0.00  0.00    -0.020 A 
ATOM     28  C   UNL     1       0.404  -4.814  -1.279  0.00  0.00    +0.097 A 
ATOM     29  C   UNL     1       0.047  -4.072  -2.426  0.00  0.00    +0.338 A 
ATOM     30  O   UNL     1      -0.053  -4.646  -3.496  0.00  0.00    -0.245 OA
ATOM     31  O   UNL     1      -0.185  -2.752  -2.367  0.00  0.00    -0.422 OA
BRANCH  26  32
ATOM     32  C   UNL     1       0.243   0.066   2.493  0.00  0.00    +0.013 C 
ATOM     33  C   UNL     1      -0.843  -0.407   3.461  0.00  0.00    +0.012 C 
ATOM     34  C   UNL     1       1.621  -0.185   3.111  0.00  0.00    +0.012 C 
ENDBRANCH  26  32
ENDBRANCH  19  27
ENDBRANCH   1  19
TORSDOF 8
