REMARK  Name = ZINC38626303
REMARK  5 active torsions:
REMARK  status: ('A' for Active; 'I' for Inactive)
REMARK    1  A    between atoms: C_1  and  C_2
REMARK    2  A    between atoms: C_2  and  C_16
REMARK    3  A    between atoms: N_3  and  N_4
REMARK    4  A    between atoms: C_5  and  C_7
REMARK    5  A    between atoms: C_20  and  N_22
REMARK                            x       y       z     vdW  Elec       q    Type
REMARK                         _______ _______ _______ _____ _____    ______ ____
ROOT
ATOM      1  C   UNL     1      -0.018   1.503   0.010  0.00  0.00    +0.068 C 
ATOM      2  C   UNL     1       0.002  -0.004   0.002  0.00  0.00    +0.063 C 
ATOM      3  N   UNL     1       0.022  -0.659   1.122  0.00  0.00    -0.184 NA
ENDROOT
BRANCH   2   4
ATOM      4  C   UNL     1      -0.000  -0.735  -1.279  0.00  0.00    -0.000 A 
ATOM      5  C   UNL     1      -0.015  -0.033  -2.487  0.00  0.00    +0.010 A 
ATOM      6  C   UNL     1      -0.017  -0.723  -3.682  0.00  0.00    +0.003 A 
ATOM      7  C   UNL     1      -0.003  -2.106  -3.685  0.00  0.00    +0.033 A 
ATOM      8  C   UNL     1       0.012  -2.808  -2.493  0.00  0.00    +0.127 A 
ATOM      9  C   UNL     1       0.019  -2.131  -1.291  0.00  0.00    +0.042 A 
BRANCH   8  10
ATOM     10  N   UNL     1       0.026  -4.288  -2.507  0.00  0.00    +0.056 N 
ATOM     11  O   UNL     1       0.024  -4.882  -3.560  0.00  0.00    -0.126 OA
ATOM     12  O   UNL     1       0.039  -4.902  -1.466  0.00  0.00    -0.126 OA
ENDBRANCH   8  10
ENDBRANCH   2   4
BRANCH   3  13
ATOM     13  N   UNL     1       0.024   0.035   2.339  0.00  0.00    -0.205 N 
ATOM     14  C   UNL     1       0.044  -0.645   3.503  0.00  0.00    +0.263 C 
ATOM     15  O   UNL     1       0.060  -1.858   3.496  0.00  0.00    -0.271 OA
ATOM     16  H   UNL     1       0.011   1.005   2.345  0.00  0.00    +0.177 HD
BRANCH  14  17
ATOM     17  C   UNL     1       0.046   0.101   4.812  0.00  0.00    +0.243 C 
ATOM     18  C   UNL     1       1.448   0.547   5.173  0.00  0.00    -0.012 C 
ATOM     19  C   UNL     1       1.715  -0.072   6.322  0.00  0.00    +0.065 C 
ATOM     20  C   UNL     1       3.109   0.299   6.795  0.00  0.00    +0.057 C 
ATOM     21  C   UNL     1       3.811   0.891   5.553  0.00  0.00    +0.011 C 
ATOM     22  C   UNL     1       2.608   1.399   4.726  0.00  0.00    +0.035 C 
ATOM     23  N   UNL     1       0.651  -0.833   6.696  0.00  0.00    -0.158 NA
ATOM     24  N   UNL     1      -0.313  -0.795   5.924  0.00  0.00    -0.170 NA
ENDBRANCH  14  17
ENDBRANCH   3  13
TORSDOF 4
