REMARK  Name = ZINC04847805
REMARK  5 active torsions:
REMARK  status: ('A' for Active; 'I' for Inactive)
REMARK    1  A    between atoms: C_10  and  C_12
REMARK    2  A    between atoms: C_10  and  C_19
REMARK    3  A    between atoms: C_10  and  N_56
REMARK    4  A    between atoms: C_15  and  O_18
REMARK    5  A    between atoms: N_23  and  C_24
REMARK                            x       y       z     vdW  Elec       q    Type
REMARK                         _______ _______ _______ _____ _____    ______ ____
ROOT
ATOM      1  C   UNL     1      -0.769   1.977   1.165  0.00  0.00    +0.034 C 
ENDROOT
BRANCH   1  11
ATOM      2  C   UNL     1       3.660   0.335  -3.193  0.00  0.00    +0.000 A 
ATOM      3  C   UNL     1       4.070   1.491  -2.556  0.00  0.00    +0.000 A 
ATOM      4  C   UNL     1       3.311   2.016  -1.529  0.00  0.00    +0.002 A 
ATOM      5  C   UNL     1       2.139   1.388  -1.132  0.00  0.00    -0.061 A 
ATOM      6  C   UNL     1       1.730   0.237  -1.770  0.00  0.00    -0.048 A 
ATOM      7  C   UNL     1       2.494  -0.289  -2.801  0.00  0.00    +0.004 A 
ATOM      8  C   UNL     1       0.461  -0.476  -1.378  0.00  0.00    +0.017 C 
ATOM      9  C   UNL     1       0.002  -0.004   0.002  0.00  0.00    -0.072 C 
ATOM     10  C   UNL     1       1.351   1.993  -0.000  0.00  0.00    -0.041 C 
ATOM     11  N   UNL     1      -0.027   1.473  -0.011  0.00  0.00    +0.392 N 
ATOM     12  H   UNL     1      -0.499   1.792  -0.866  0.00  0.00    -0.080 HD
ENDBRANCH   1  11
BRANCH   1  13
ATOM     13  C   UNL     1      -2.217   1.578   1.038  0.00  0.00    -0.053 A 
ATOM     14  C   UNL     1      -2.841   1.628  -0.194  0.00  0.00    +0.006 A 
ATOM     15  C   UNL     1      -4.167   1.257  -0.314  0.00  0.00    +0.045 A 
ATOM     16  C   UNL     1      -4.874   0.845   0.806  0.00  0.00    +0.117 A 
ATOM     17  C   UNL     1      -4.247   0.801   2.043  0.00  0.00    +0.045 A 
ATOM     18  C   UNL     1      -2.920   1.167   2.156  0.00  0.00    +0.006 A 
BRANCH  16  19
ATOM     19  O   UNL     1      -6.180   0.485   0.693  0.00  0.00    -0.507 OA
ATOM     20  H   UNL     1      -6.801   1.217   0.813  0.00  0.00    +0.292 HD
ENDBRANCH  16  19
ENDBRANCH   1  13
BRANCH   1  21
ATOM     21  C   UNL     1      -0.665   3.480   1.208  0.00  0.00    +0.143 A 
ATOM     22  N   UNL     1      -0.794   4.303   0.196  0.00  0.00    -0.115 NA
ATOM     23  N   UNL     1      -0.639   5.504   0.637  0.00  0.00    -0.023 NA
ATOM     24  N   UNL     1      -0.408   5.468   1.903  0.00  0.00    -0.044 NA
ATOM     25  N   UNL     1      -0.415   4.237   2.292  0.00  0.00    -0.227 N 
BRANCH  25  26
ATOM     26  C   UNL     1      -0.195   3.756   3.658  0.00  0.00    +0.111 C 
ATOM     27  C   UNL     1      -1.258   4.347   4.586  0.00  0.00    +0.027 C 
ATOM     28  C   UNL     1      -1.027   3.844   6.012  0.00  0.00    +0.002 C 
ATOM     29  C   UNL     1       0.362   4.276   6.487  0.00  0.00    +0.000 C 
ATOM     30  C   UNL     1       1.425   3.685   5.559  0.00  0.00    +0.002 C 
ATOM     31  C   UNL     1       1.194   4.188   4.133  0.00  0.00    +0.027 C 
ENDBRANCH  25  26
ENDBRANCH   1  21
TORSDOF 5
