REMARK  Name = ZINC09515069
REMARK  5 active torsions:
REMARK  status: ('A' for Active; 'I' for Inactive)
REMARK    1  A    between atoms: C_4  and  C_7
REMARK    2  A    between atoms: C_7  and  N_59
REMARK    3  A    between atoms: C_16  and  C_18
REMARK    4  A    between atoms: C_18  and  C_19
REMARK    5  A    between atoms: C_19  and  N_20
REMARK                            x       y       z     vdW  Elec       q    Type
REMARK                         _______ _______ _______ _____ _____    ______ ____
ROOT
ATOM      1  C   UNL     1       4.318   5.231   0.436  0.00  0.00    -0.072 C 
ATOM      2  C   UNL     1       2.865   5.020   0.003  0.00  0.00    +0.038 C 
ATOM      3  C   UNL     1       2.584   3.521  -0.003  0.00  0.00    +0.050 A 
ATOM      4  C   UNL     1       3.626   2.648  -0.019  0.00  0.00    -0.002 A 
ATOM      5  S   UNL     1       2.814   1.074  -0.019  0.00  0.00    -0.059 S 
ATOM      6  C   UNL     1       1.183   1.677  -0.000  0.00  0.00    +0.165 A 
ATOM      7  N   UNL     1       1.370   2.982  -0.001  0.00  0.00    -0.229 NA
ATOM      8  N   UNL     1      -0.011   0.966   0.007  0.00  0.00    -0.265 N 
ATOM      9  C   UNL     1      -1.187   1.624   0.017  0.00  0.00    +0.220 C 
ATOM     10  O   UNL     1      -1.204   2.837   0.023  0.00  0.00    -0.275 OA
ATOM     11  C   UNL     1       5.079   2.979  -0.034  0.00  0.00    -0.033 C 
ATOM     12  H   UNL     1       0.002  -0.004   0.002  0.00  0.00    +0.157 HD
ATOM     13  N   UNL     1       5.211   4.410  -0.407  0.00  0.00    +0.386 N 
ATOM     14  H   UNL     1       4.942   4.526  -1.391  0.00  0.00    -0.081 HD
ENDROOT
BRANCH  13  15
ATOM     15  C   UNL     1       6.613   4.850  -0.238  0.00  0.00    -0.043 C 
BRANCH  15  19
ATOM     16  C   UNL     1       9.041   2.881  -3.148  0.00  0.00    +0.000 A 
ATOM     17  C   UNL     1       8.445   4.091  -3.450  0.00  0.00    +0.000 A 
ATOM     18  C   UNL     1       7.659   4.728  -2.508  0.00  0.00    +0.002 A 
ATOM     19  C   UNL     1       7.469   4.155  -1.264  0.00  0.00    -0.064 A 
ATOM     20  C   UNL     1       8.070   2.947  -0.961  0.00  0.00    +0.002 A 
ATOM     21  C   UNL     1       8.851   2.308  -1.904  0.00  0.00    +0.000 A 
ENDBRANCH  15  19
ENDBRANCH  13  15
BRANCH   9  22
ATOM     22  C   UNL     1      -2.482   0.853   0.018  0.00  0.00    +0.115 C 
BRANCH  22  23
ATOM     23  C   UNL     1      -3.658   1.831   0.029  0.00  0.00    +0.127 C 
BRANCH  23  24
ATOM     24  N   UNL     1      -4.917   1.081   0.031  0.00  0.00    -0.224 N 
ATOM     25  C   UNL     1      -5.564   0.687   1.149  0.00  0.00    +0.247 C 
ATOM     26  O   UNL     1      -5.229   0.876   2.299  0.00  0.00    -0.273 OA
ATOM     27  C   UNL     1      -6.792  -0.040   0.662  0.00  0.00    +0.113 C 
ATOM     28  C   UNL     1      -8.071   0.638   1.170  0.00  0.00    +0.035 C 
ATOM     29  C   UNL     1      -9.049  -0.541   1.414  0.00  0.00    +0.003 C 
ATOM     30  C   UNL     1      -8.118  -1.651   1.965  0.00  0.00    +0.003 C 
ATOM     31  C   UNL     1      -6.812  -1.489   1.156  0.00  0.00    +0.035 C 
ATOM     32  N   UNL     1      -6.702   0.025  -0.798  0.00  0.00    -0.285 N 
ATOM     33  C   UNL     1      -5.572   0.707  -1.075  0.00  0.00    +0.309 C 
ATOM     34  O   UNL     1      -5.190   0.951  -2.203  0.00  0.00    -0.252 OA
ATOM     35  H   UNL     1      -7.331  -0.344  -1.437  0.00  0.00    +0.151 HD
ENDBRANCH  23  24
ENDBRANCH  22  23
ENDBRANCH   9  22
TORSDOF 5
