REMARK  Name = ZINC63302915
REMARK  11 active torsions:
REMARK  status: ('A' for Active; 'I' for Inactive)
REMARK    1  A    between atoms: C_1  and  C_2
REMARK    2  A    between atoms: C_2  and  C_4
REMARK    3  A    between atoms: C_2  and  N_17
REMARK    4  A    between atoms: C_4  and  N_6
REMARK    5  A    between atoms: C_18  and  C_20
REMARK    6  A    between atoms: C_25  and  O_34
REMARK    7  A    between atoms: C_26  and  O_32
REMARK    8  A    between atoms: C_27  and  O_30
REMARK    9  A    between atoms: O_30  and  C_31
REMARK   10  A    between atoms: O_32  and  C_33
REMARK   11  A    between atoms: O_34  and  C_35
REMARK                            x       y       z     vdW  Elec       q    Type
REMARK                         _______ _______ _______ _____ _____    ______ ____
ROOT
ATOM      1  N   UNL     1      -1.543  -0.540   0.101  0.00  0.00    -0.302 N 
ATOM      2  C   UNL     1      -2.246  -0.685  -1.040  0.00  0.00    +0.240 C 
ATOM      3  O   UNL     1      -1.741  -0.397  -2.104  0.00  0.00    -0.273 OA
ATOM      4  H   UNL     1      -1.947  -0.770   0.952  0.00  0.00    +0.150 HD
ENDROOT
BRANCH   2   5
ATOM      5  C   UNL     1      -3.660  -1.203  -0.992  0.00  0.00    +0.190 C 
ATOM      6  C   UNL     1      -4.537  -0.254  -0.207  0.00  0.00    +0.017 C 
ATOM      7  C   UNL     1      -5.492   0.171  -1.062  0.00  0.00    +0.004 A 
ATOM      8  C   UNL     1      -6.626   1.091  -0.910  0.00  0.00    +0.059 A 
ATOM      9  C   UNL     1      -7.436   1.335  -1.966  0.00  0.00    +0.166 A 
ATOM     10  C   UNL     1      -7.233   0.733  -3.225  0.00  0.00    +0.206 A 
ATOM     11  C   UNL     1      -6.212  -0.131  -3.463  0.00  0.00    +0.189 A 
ATOM     12  C   UNL     1      -5.275  -0.463  -2.384  0.00  0.00    +0.089 A 
ATOM     13  N   UNL     1      -4.227  -1.252  -2.345  0.00  0.00    -0.367 N 
ATOM     14  H   UNL     1      -3.884  -1.777  -3.084  0.00  0.00    +0.161 HD
BRANCH  11  15
ATOM     15  O   UNL     1      -6.058  -0.685  -4.696  0.00  0.00    -0.489 OA
ATOM     16  C   UNL     1      -6.636  -1.975  -4.904  0.00  0.00    +0.277 C 
ENDBRANCH  11  15
BRANCH  10  17
ATOM     17  O   UNL     1      -8.090   1.028  -4.237  0.00  0.00    -0.488 OA
ATOM     18  C   UNL     1      -7.704   2.074  -5.130  0.00  0.00    +0.277 C 
ENDBRANCH  10  17
BRANCH   9  19
ATOM     19  O   UNL     1      -8.481   2.189  -1.807  0.00  0.00    -0.491 OA
ATOM     20  C   UNL     1      -8.650   2.776  -0.515  0.00  0.00    +0.277 C 
ENDBRANCH   9  19
ENDBRANCH   2   5
BRANCH   1  22
ATOM     21  C   UNL     1      -0.186   1.494   0.045  0.00  0.00    +0.038 C 
ATOM     22  C   UNL     1      -0.168  -0.036   0.055  0.00  0.00    +0.158 C 
BRANCH  22  23
ATOM     23  C   UNL     1       0.586  -0.522   1.266  0.00  0.00    +0.258 C 
ATOM     24  O   UNL     1       0.028  -1.222   2.089  0.00  0.00    -0.272 OA
BRANCH  23  25
ATOM     25  N   UNL     1       1.860  -0.184   1.435  0.00  0.00    -0.155 NA
ATOM     26  C   UNL     1       2.496  -0.525   2.554  0.00  0.00    +0.164 A 
ATOM     27  N   UNL     1       2.039  -1.303   3.567  0.00  0.00    -0.335 N 
ATOM     28  H   UNL     1       1.148  -1.685   3.523  0.00  0.00    +0.168 HD
ATOM     29  C   UNL     1       2.846  -1.552   4.661  0.00  0.00    +0.055 A 
ATOM     30  C   UNL     1       2.578  -2.318   5.804  0.00  0.00    +0.027 A 
ATOM     31  C   UNL     1       3.520  -2.448   6.797  0.00  0.00    +0.002 A 
ATOM     32  C   UNL     1       4.756  -1.830   6.699  0.00  0.00    +0.001 A 
ATOM     33  C   UNL     1       5.046  -1.068   5.580  0.00  0.00    +0.017 A 
ATOM     34  C   UNL     1       4.105  -0.938   4.587  0.00  0.00    +0.039 A 
ATOM     35  S   UNL     1       4.050  -0.093   3.028  0.00  0.00    -0.052 S 
ENDBRANCH  23  25
ENDBRANCH  22  23
ENDBRANCH   1  22
TORSDOF 7
