REMARK  Name = ZINC12759011
REMARK  3 active torsions:
REMARK  status: ('A' for Active; 'I' for Inactive)
REMARK    1  A    between atoms: C_3  and  C_6
REMARK    2  A    between atoms: C_6  and  N_7
REMARK    3  A    between atoms: C_20  and  N_51
REMARK                            x       y       z     vdW  Elec       q    Type
REMARK                         _______ _______ _______ _____ _____    ______ ____
ROOT
ATOM      1  N   UNL     1      -0.101   1.297   0.961  0.00  0.00    -0.322 N 
ATOM      2  C   UNL     1      -0.012   0.022   0.436  0.00  0.00    +0.162 A 
ATOM      3  C   UNL     1      -1.230  -0.671  -0.001  0.00  0.00    +0.164 A 
ATOM      4  N   UNL     1      -1.168  -1.885  -0.504  0.00  0.00    -0.203 NA
ATOM      5  C   UNL     1       0.020  -2.494  -0.618  0.00  0.00    +0.244 A 
ATOM      6  C   UNL     1       1.250  -1.794  -0.177  0.00  0.00    +0.244 A 
ATOM      7  N   UNL     1       1.165  -0.556   0.328  0.00  0.00    -0.204 NA
ATOM      8  N   UNL     1       2.190  -2.672  -0.433  0.00  0.00    -0.027 NA
ATOM      9  O   UNL     1       1.685  -3.666  -0.912  0.00  0.00    -0.238 OA
ATOM     10  N   UNL     1       0.479  -3.645  -1.047  0.00  0.00    -0.027 NA
ATOM     11  N   UNL     1      -2.454  -0.041   0.116  0.00  0.00    -0.313 N 
ATOM     12  C   UNL     1      -2.795   0.680  -1.116  0.00  0.00    +0.105 C 
ATOM     13  C   UNL     1      -4.081   1.481  -0.901  0.00  0.00    +0.004 C 
ATOM     14  C   UNL     1      -5.214   0.525  -0.517  0.00  0.00    -0.066 C 
ATOM     15  C   UNL     1      -4.813  -0.249   0.742  0.00  0.00    +0.004 C 
ATOM     16  C   UNL     1      -3.506  -1.000   0.479  0.00  0.00    +0.105 C 
ATOM     17  H   UNL     1      -0.953   1.760   0.967  0.00  0.00    +0.148 HD
ENDROOT
BRANCH  14  23
ATOM     18  C   UNL     1      -7.047   1.758  -1.500  0.00  0.00    -0.068 C 
ATOM     19  C   UNL     1      -8.511   2.139  -1.253  0.00  0.00    +0.050 C 
ATOM     20  S   UNL     1      -8.552   3.499  -0.044  0.00  0.00    -0.164 S 
ATOM     21  C   UNL     1      -7.495   2.874   1.299  0.00  0.00    +0.050 C 
ATOM     22  C   UNL     1      -6.176   2.387   0.688  0.00  0.00    -0.068 C 
ATOM     23  N   UNL     1      -6.457   1.264  -0.235  0.00  0.00    +0.383 N 
ATOM     24  H   UNL     1      -7.127   0.628   0.213  0.00  0.00    -0.081 HD
ENDBRANCH  14  23
BRANCH   1  25
ATOM     25  C   UNL     1       1.092   1.951   1.502  0.00  0.00    +0.145 C 
BRANCH  25  28
ATOM     26  C   UNL     1       0.030   5.026   3.484  0.00  0.00    +0.008 A 
ATOM     27  C   UNL     1       0.312   3.695   3.244  0.00  0.00    +0.013 A 
ATOM     28  C   UNL     1       0.727   3.323   2.008  0.00  0.00    +0.007 A 
ATOM     29  S   UNL     1       0.736   4.882   1.137  0.00  0.00    -0.100 S 
ATOM     30  C   UNL     1       0.177   5.921   2.477  0.00  0.00    +0.045 A 
ENDBRANCH  25  28
ENDBRANCH   1  25
TORSDOF 3
