REMARK  Name = ZINC66688202
REMARK  6 active torsions:
REMARK  status: ('A' for Active; 'I' for Inactive)
REMARK    1  A    between atoms: C_1  and  C_2
REMARK    2  A    between atoms: C_2  and  N_3
REMARK    3  A    between atoms: C_9  and  C_11
REMARK    4  A    between atoms: C_11  and  C_12
REMARK    5  A    between atoms: N_20  and  C_21
REMARK    6  A    between atoms: C_27  and  C_29
REMARK                            x       y       z     vdW  Elec       q    Type
REMARK                         _______ _______ _______ _____ _____    ______ ____
ROOT
ATOM      1  C   UNL     1      -5.271  -5.003  -2.325  0.00  0.00    +0.001 C 
ATOM      2  C   UNL     1      -6.708  -4.511  -2.143  0.00  0.00    +0.023 C 
ATOM      3  C   UNL     1      -7.613  -5.197  -3.172  0.00  0.00    +0.109 C 
ATOM      4  N   UNL     1      -7.452  -6.652  -3.046  0.00  0.00    -0.286 N 
ATOM      5  C   UNL     1      -6.100  -7.223  -3.115  0.00  0.00    +0.109 C 
ATOM      6  C   UNL     1      -5.213  -6.513  -2.087  0.00  0.00    +0.023 C 
ATOM      7  C   UNL     1      -8.525  -7.449  -2.870  0.00  0.00    +0.302 C 
ATOM      8  O   UNL     1      -8.390  -8.657  -2.859  0.00  0.00    -0.253 OA
ATOM      9  N   UNL     1      -9.748  -6.906  -2.707  0.00  0.00    -0.296 N 
ATOM     10  H   UNL     1      -9.868  -5.947  -2.788  0.00  0.00    +0.151 HD
ENDROOT
BRANCH   9  11
ATOM     11  C   UNL     1     -10.896  -7.764  -2.405  0.00  0.00    +0.077 C 
ATOM     12  C   UNL     1     -10.965  -8.012  -0.896  0.00  0.00    +0.022 C 
ATOM     13  C   UNL     1     -12.164  -8.909  -0.581  0.00  0.00    +0.002 C 
ATOM     14  C   UNL     1     -13.450  -8.222  -1.045  0.00  0.00    +0.000 C 
ATOM     15  C   UNL     1     -13.381  -7.974  -2.553  0.00  0.00    +0.005 C 
ATOM     16  C   UNL     1     -12.182  -7.077  -2.868  0.00  0.00    +0.006 C 
ATOM     17  C   UNL     1     -12.113  -6.830  -4.376  0.00  0.00    +0.009 C 
ENDBRANCH   9  11
BRANCH   1  18
ATOM     18  C   UNL     1      -4.359  -4.294  -1.322  0.00  0.00    +0.099 C 
BRANCH  18  25
ATOM     19  N   UNL     1      -1.378  -0.515   0.024  0.00  0.00    +0.382 N 
ATOM     20  C   UNL     1      -2.052  -0.118  -1.218  0.00  0.00    -0.060 C 
ATOM     21  C   UNL     1      -3.522  -0.548  -1.161  0.00  0.00    +0.089 C 
ATOM     22  N   UNL     1      -3.575  -1.990  -0.875  0.00  0.00    -0.305 N 
ATOM     23  C   UNL     1      -2.792  -2.502   0.260  0.00  0.00    +0.089 C 
ATOM     24  C   UNL     1      -1.357  -1.979   0.136  0.00  0.00    -0.060 C 
ATOM     25  C   UNL     1      -4.320  -2.820  -1.633  0.00  0.00    +0.216 C 
ATOM     26  O   UNL     1      -4.959  -2.380  -2.565  0.00  0.00    -0.276 OA
ATOM     27  H   UNL     1      -1.874  -0.126   0.812  0.00  0.00    -0.082 HD
BRANCH  19  29
ATOM     28  C   UNL     1      -0.021   1.523   0.025  0.00  0.00    -0.017 C 
ATOM     29  C   UNL     1       0.000  -0.007   0.015  0.00  0.00    -0.082 C 
ENDBRANCH  19  29
ENDBRANCH  18  25
ENDBRANCH   1  18
TORSDOF 4
