REMARK  Name = ZINC12753688
REMARK  8 active torsions:
REMARK  status: ('A' for Active; 'I' for Inactive)
REMARK    1  A    between atoms: C_1  and  C_2
REMARK    2  A    between atoms: C_5  and  N_8
REMARK    3  A    between atoms: C_9  and  C_32
REMARK    4  A    between atoms: C_10  and  N_14
REMARK    5  A    between atoms: C_11  and  C_13
REMARK    6  A    between atoms: C_15  and  C_17
REMARK    7  A    between atoms: C_17  and  N_18
REMARK    8  A    between atoms: C_26  and  C_28
REMARK                            x       y       z     vdW  Elec       q    Type
REMARK                         _______ _______ _______ _____ _____    ______ ____
ROOT
ATOM      1  N   UNL     1       0.002   1.415   2.533  0.00  0.00    -0.281 N 
ATOM      2  C   UNL     1      -0.507   1.563   1.294  0.00  0.00    +0.235 C 
ATOM      3  O   UNL     1      -1.637   1.980   1.149  0.00  0.00    -0.274 OA
ATOM      4  H   UNL     1       0.871   1.001   2.654  0.00  0.00    +0.155 HD
ENDROOT
BRANCH   1   7
ATOM      5  N   UNL     1      -1.535   2.043   5.682  0.00  0.00    -0.235 N 
ATOM      6  C   UNL     1      -0.689   1.322   4.897  0.00  0.00    +0.063 A 
ATOM      7  C   UNL     1      -0.727   1.861   3.652  0.00  0.00    +0.078 A 
ATOM      8  C   UNL     1      -1.616   2.946   3.679  0.00  0.00    +0.082 A 
ATOM      9  N   UNL     1      -2.102   3.050   4.890  0.00  0.00    -0.170 NA
ATOM     10  C   UNL     1      -1.958   3.836   2.512  0.00  0.00    +0.069 C 
ATOM     11  C   UNL     1       0.138   0.139   5.331  0.00  0.00    +0.068 C 
BRANCH   5  16
ATOM     12  C   UNL     1      -2.579   1.135  11.186  0.00  0.00    +0.044 C 
ATOM     13  C   UNL     1      -2.302   1.376   9.724  0.00  0.00    -0.050 A 
ATOM     14  C   UNL     1      -1.007   1.296   9.245  0.00  0.00    +0.005 A 
ATOM     15  C   UNL     1      -0.750   1.516   7.906  0.00  0.00    +0.028 A 
ATOM     16  C   UNL     1      -1.793   1.819   7.041  0.00  0.00    +0.066 A 
ATOM     17  C   UNL     1      -3.091   1.905   7.526  0.00  0.00    +0.028 A 
ATOM     18  C   UNL     1      -3.343   1.678   8.865  0.00  0.00    +0.005 A 
ENDBRANCH   5  16
ENDBRANCH   1   7
BRANCH   2  19
ATOM     19  C   UNL     1       0.327   1.211   0.090  0.00  0.00    +0.214 C 
BRANCH  19  20
ATOM     20  N   UNL     1      -0.446   1.459  -1.129  0.00  0.00    -0.215 N 
ATOM     21  C   UNL     1      -0.456   2.632  -1.796  0.00  0.00    +0.247 C 
ATOM     22  O   UNL     1       0.149   3.643  -1.511  0.00  0.00    -0.273 OA
ATOM     23  C   UNL     1      -1.382   2.420  -2.972  0.00  0.00    +0.115 C 
ATOM     24  C   UNL     1      -0.625   2.604  -4.283  0.00  0.00    +0.035 C 
ATOM     25  C   UNL     1      -1.572   2.358  -5.460  0.00  0.00    +0.003 C 
ATOM     26  C   UNL     1      -2.743   3.340  -5.386  0.00  0.00    +0.000 C 
ATOM     27  C   UNL     1      -3.506   3.127  -4.077  0.00  0.00    +0.006 C 
ATOM     28  C   UNL     1      -2.567   3.376  -2.894  0.00  0.00    +0.018 C 
ATOM     29  C   UNL     1      -3.324   3.143  -1.585  0.00  0.00    +0.010 C 
ATOM     30  N   UNL     1      -1.831   1.030  -2.826  0.00  0.00    -0.285 N 
ATOM     31  C   UNL     1      -1.226   0.548  -1.724  0.00  0.00    +0.310 C 
ATOM     32  O   UNL     1      -1.375  -0.587  -1.313  0.00  0.00    -0.252 OA
ATOM     33  H   UNL     1      -2.439   0.551  -3.411  0.00  0.00    +0.151 HD
ENDBRANCH  19  20
ENDBRANCH   2  19
TORSDOF 4
