REMARK  Name = ZINC01009642
REMARK  5 active torsions:
REMARK  status: ('A' for Active; 'I' for Inactive)
REMARK    1  A    between atoms: C_1  and  C_2
REMARK    2  A    between atoms: C_2  and  C_33
REMARK    3  A    between atoms: C_6  and  C_17
REMARK    4  A    between atoms: C_21  and  O_23
REMARK    5  A    between atoms: O_23  and  C_24
REMARK                            x       y       z     vdW  Elec       q    Type
REMARK                         _______ _______ _______ _____ _____    ______ ____
ROOT
ATOM      1  C   UNL     1       2.391   2.236  -0.685  0.00  0.00    +0.011 C 
ATOM      2  C   UNL     1       2.002   0.767  -0.512  0.00  0.00    -0.023 C 
ATOM      3  C   UNL     1       0.491   0.656  -0.295  0.00  0.00    +0.058 C 
ATOM      4  C   UNL     1       0.114  -0.790  -0.080  0.00  0.00    +0.017 C 
ATOM      5  C   UNL     1       0.972  -1.651   0.504  0.00  0.00    +0.024 C 
ATOM      6  C   UNL     1       0.606  -3.097   0.724  0.00  0.00    +0.092 C 
ATOM      7  C   UNL     1      -0.876  -3.305   0.628  0.00  0.00    +0.069 A 
ATOM      8  C   UNL     1      -1.692  -2.348   0.016  0.00  0.00    +0.137 A 
ATOM      9  N   UNL     1      -3.002  -2.550  -0.066  0.00  0.00    -0.178 NA
ATOM     10  C   UNL     1      -3.553  -3.654   0.431  0.00  0.00    +0.350 A 
ATOM     11  N   UNL     1      -2.804  -4.597   1.031  0.00  0.00    -0.273 N 
ATOM     12  C   UNL     1      -1.451  -4.436   1.138  0.00  0.00    +0.260 A 
ATOM     13  O   UNL     1      -0.694  -5.380   1.738  0.00  0.00    -0.267 OA
ATOM     14  O   UNL     1      -4.760  -3.814   0.342  0.00  0.00    -0.245 OA
ATOM     15  N   UNL     1      -1.125  -1.199  -0.494  0.00  0.00    -0.302 N 
ATOM     16  C   UNL     1       2.247  -1.229   0.925  0.00  0.00    +0.162 C 
ATOM     17  O   UNL     1       2.988  -2.024   1.468  0.00  0.00    -0.292 OA
ATOM     18  C   UNL     1       2.710   0.187   0.717  0.00  0.00    +0.086 C 
ATOM     19  C   UNL     1       2.403  -0.023  -1.759  0.00  0.00    +0.011 C 
ATOM     20  H   UNL     1      -1.609  -0.676  -1.152  0.00  0.00    +0.153 HD
ATOM     21  H   UNL     1      -3.226  -5.394   1.389  0.00  0.00    +0.173 HD
ENDROOT
BRANCH   6  22
ATOM     22  C   UNL     1       1.290  -3.943  -0.319  0.00  0.00    -0.032 A 
ATOM     23  C   UNL     1       1.038  -3.724  -1.661  0.00  0.00    +0.005 A 
ATOM     24  C   UNL     1       1.664  -4.498  -2.620  0.00  0.00    +0.004 A 
ATOM     25  C   UNL     1       2.543  -5.493  -2.240  0.00  0.00    +0.046 A 
ATOM     26  C   UNL     1       2.798  -5.716  -0.894  0.00  0.00    +0.129 A 
ATOM     27  C   UNL     1       2.172  -4.933   0.066  0.00  0.00    +0.050 A 
BRANCH  26  28
ATOM     28  O   UNL     1       3.662  -6.694  -0.518  0.00  0.00    -0.456 OA
BRANCH  28  29
ATOM     29  C   UNL     1       3.873  -6.882   0.811  0.00  0.00    +0.128 A 
ATOM     30  C   UNL     1       3.075  -7.765   1.524  0.00  0.00    +0.046 A 
ATOM     31  C   UNL     1       3.292  -7.954   2.875  0.00  0.00    +0.004 A 
ATOM     32  C   UNL     1       4.303  -7.264   3.518  0.00  0.00    +0.000 A 
ATOM     33  C   UNL     1       5.100  -6.383   2.810  0.00  0.00    +0.004 A 
ATOM     34  C   UNL     1       4.892  -6.196   1.457  0.00  0.00    +0.046 A 
ENDBRANCH  28  29
ENDBRANCH  26  28
ENDBRANCH   6  22
TORSDOF 3
