REMARK  Name = ZINC39485721
REMARK  4 active torsions:
REMARK  status: ('A' for Active; 'I' for Inactive)
REMARK    1  A    between atoms: C_4  and  C_7
REMARK    2  A    between atoms: C_9  and  C_13
REMARK    3  A    between atoms: C_18  and  N_21
REMARK    4  A    between atoms: C_29  and  C_31
REMARK                            x       y       z     vdW  Elec       q    Type
REMARK                         _______ _______ _______ _____ _____    ______ ____
ROOT
ATOM      1  C   UNL     1       5.756  -2.976  -1.313  0.00  0.00    +0.246 C 
ATOM      2  O   UNL     1       6.225  -2.361  -2.248  0.00  0.00    -0.273 OA
ATOM      3  N   UNL     1       5.612  -4.314  -1.391  0.00  0.00    -0.299 N 
ATOM      4  C   UNL     1       5.041  -5.072  -0.270  0.00  0.00    +0.109 C 
ATOM      5  C   UNL     1       6.008  -6.198   0.108  0.00  0.00    +0.041 C 
ATOM      6  C   UNL     1       6.312  -7.042  -1.131  0.00  0.00    +0.080 C 
ATOM      7  C   UNL     1       6.980  -6.168  -2.195  0.00  0.00    +0.041 C 
ATOM      8  C   UNL     1       6.019  -5.041  -2.602  0.00  0.00    +0.109 C 
ENDROOT
BRANCH   6   9
ATOM      9  N   UNL     1       7.211  -8.140  -0.766  0.00  0.00    -0.291 N 
ATOM     10  C   UNL     1       8.488  -8.012  -0.218  0.00  0.00    +0.122 A 
ATOM     11  C   UNL     1       9.036  -9.277  -0.006  0.00  0.00    +0.067 A 
ATOM     12  C   UNL     1      10.311  -9.381   0.537  0.00  0.00    +0.028 A 
ATOM     13  C   UNL     1      10.995  -8.214   0.850  0.00  0.00    +0.019 A 
ATOM     14  C   UNL     1      10.393  -6.996   0.614  0.00  0.00    +0.084 A 
ATOM     15  N   UNL     1       9.181  -6.925   0.097  0.00  0.00    -0.348 N 
ATOM     16  N   UNL     1       8.129 -10.264  -0.410  0.00  0.00    -0.321 N 
ATOM     17  C   UNL     1       6.931  -9.574  -0.904  0.00  0.00    +0.189 C 
ATOM     18  H   UNL     1       8.266 -11.223  -0.369  0.00  0.00    +0.148 HD
ATOM     19  H   UNL     1       8.785  -6.053  -0.057  0.00  0.00    +0.167 HD
BRANCH  17  20
ATOM     20  C   UNL     1       6.690  -9.926  -2.373  0.00  0.00    +0.157 C 
ATOM     21  C   UNL     1       6.277 -11.409  -2.495  0.00  0.00    +0.037 C 
ATOM     22  C   UNL     1       7.026 -11.854  -3.781  0.00  0.00    +0.031 C 
ATOM     23  C   UNL     1       8.318 -11.005  -3.678  0.00  0.00    +0.160 C 
ATOM     24  O   UNL     1       7.899  -9.748  -3.120  0.00  0.00    -0.373 OA
ENDBRANCH  17  20
ENDBRANCH   6   9
BRANCH   1  27
ATOM     25  C   UNL     1       3.699  -0.689  -0.037  0.00  0.00    +0.092 C 
ATOM     26  C   UNL     1       3.832  -2.029  -0.051  0.00  0.00    +0.040 C 
ATOM     27  C   UNL     1       5.335  -2.245  -0.065  0.00  0.00    +0.238 C 
ATOM     28  N   UNL     1       5.871  -0.874  -0.056  0.00  0.00    -0.170 NA
ATOM     29  N   UNL     1       4.919  -0.090  -0.047  0.00  0.00    -0.153 NA
BRANCH  25  33
ATOM     30  C   UNL     1      -0.017   1.379   0.010  0.00  0.00    +0.000 A 
ATOM     31  C   UNL     1       1.169   2.092   0.002  0.00  0.00    +0.001 A 
ATOM     32  C   UNL     1       2.377   1.426  -0.013  0.00  0.00    +0.010 A 
ATOM     33  C   UNL     1       2.402   0.033  -0.021  0.00  0.00    +0.002 A 
ATOM     34  C   UNL     1       1.205  -0.680  -0.013  0.00  0.00    +0.010 A 
ATOM     35  C   UNL     1       0.002  -0.004   0.002  0.00  0.00    +0.001 A 
ENDBRANCH  25  33
ENDBRANCH   1  27
TORSDOF 4
