REMARK  Name = ZINC21468789
REMARK  7 active torsions:
REMARK  status: ('A' for Active; 'I' for Inactive)
REMARK    1  A    between atoms: C_1  and  C_2
REMARK    2  A    between atoms: C_5  and  C_8
REMARK    3  A    between atoms: C_11  and  S_14
REMARK    4  A    between atoms: N_12  and  N_13
REMARK    5  A    between atoms: S_14  and  C_15
REMARK    6  A    between atoms: C_15  and  C_16
REMARK    7  A    between atoms: C_22  and  C_24
REMARK                            x       y       z     vdW  Elec       q    Type
REMARK                         _______ _______ _______ _____ _____    ______ ____
ROOT
ATOM      1  C   UNL     1       3.512  -3.757  -2.935  0.00  0.00    +0.173 C 
ENDROOT
BRANCH   1   2
ATOM      2  C   UNL     1       2.300  -3.476  -2.084  0.00  0.00    +0.226 C 
ATOM      3  O   UNL     1       1.380  -2.828  -2.535  0.00  0.00    -0.275 OA
ATOM      4  N   UNL     1       2.239  -3.945  -0.822  0.00  0.00    -0.294 N 
ATOM      5  C   UNL     1       3.282  -4.742  -0.150  0.00  0.00    +0.108 C 
ATOM      6  C   UNL     1       2.531  -5.525   0.956  0.00  0.00    +0.021 C 
ATOM      7  C   UNL     1       1.484  -4.479   1.422  0.00  0.00    +0.029 C 
ATOM      8  C   UNL     1       1.123  -3.745   0.113  0.00  0.00    +0.106 C 
BRANCH   8   9
ATOM      9  C   UNL     1       0.938  -2.275   0.385  0.00  0.00    -0.023 A 
ATOM     10  C   UNL     1       2.042  -1.452   0.512  0.00  0.00    +0.009 A 
ATOM     11  C   UNL     1       1.877  -0.103   0.763  0.00  0.00    +0.050 A 
ATOM     12  C   UNL     1       0.602   0.429   0.888  0.00  0.00    +0.162 A 
ATOM     13  C   UNL     1      -0.508  -0.397   0.757  0.00  0.00    +0.162 A 
ATOM     14  C   UNL     1      -0.335  -1.750   0.507  0.00  0.00    +0.055 A 
ATOM     15  O   UNL     1      -1.767   0.107   0.867  0.00  0.00    -0.485 OA
ATOM     16  C   UNL     1      -1.895   1.389   1.492  0.00  0.00    +0.270 C 
ATOM     17  C   UNL     1      -0.836   2.323   0.890  0.00  0.00    +0.270 C 
ATOM     18  O   UNL     1       0.456   1.758   1.142  0.00  0.00    -0.485 OA
ENDBRANCH   8   9
ENDBRANCH   1   2
BRANCH   1  19
ATOM     19  S   UNL     1       3.294  -3.000  -4.564  0.00  0.00    -0.075 S 
BRANCH  19  23
ATOM     20  C   UNL     1       6.449  -3.745  -6.746  0.00  0.00    +0.182 A 
ATOM     21  N   UNL     1       6.736  -4.340  -5.612  0.00  0.00    -0.127 NA
ATOM     22  N   UNL     1       5.775  -4.176  -4.775  0.00  0.00    -0.121 NA
ATOM     23  C   UNL     1       4.811  -3.473  -5.326  0.00  0.00    +0.209 A 
ATOM     24  N   UNL     1       5.207  -3.171  -6.598  0.00  0.00    -0.224 N 
BRANCH  20  29
ATOM     25  C   UNL     1       9.759  -3.568 -11.450  0.00  0.00    +0.044 C 
ATOM     26  C   UNL     1       8.892  -3.614 -10.218  0.00  0.00    -0.050 A 
ATOM     27  C   UNL     1       7.848  -2.718 -10.077  0.00  0.00    +0.004 A 
ATOM     28  C   UNL     1       7.050  -2.755  -8.952  0.00  0.00    +0.012 A 
ATOM     29  C   UNL     1       7.299  -3.700  -7.955  0.00  0.00    +0.021 A 
ATOM     30  C   UNL     1       8.358  -4.597  -8.101  0.00  0.00    +0.012 A 
ATOM     31  C   UNL     1       9.144  -4.553  -9.233  0.00  0.00    +0.004 A 
ENDBRANCH  20  29
BRANCH  24  32
ATOM     32  N   UNL     1       4.515  -2.449  -7.529  0.00  0.00    -0.295 N 
ATOM     33  H   UNL     1       3.523  -2.042  -7.282  0.00  0.00    +0.163 HD
ATOM     34  H   UNL     1       4.949  -2.276  -8.524  0.00  0.00    +0.163 HD
ENDBRANCH  24  32
ENDBRANCH  19  23
ENDBRANCH   1  19
TORSDOF 6
