REMARK  Name = ZINC02409768
REMARK  3 active torsions:
REMARK  status: ('A' for Active; 'I' for Inactive)
REMARK    1  A    between atoms: C_1  and  C_2
REMARK    2  A    between atoms: C_10  and  C_22
REMARK    3  A    between atoms: C_13  and  C_16
REMARK                            x       y       z     vdW  Elec       q    Type
REMARK                         _______ _______ _______ _____ _____    ______ ____
ROOT
ATOM      1  C   UNL     1      -0.018   1.503   0.010  0.00  0.00    +0.109 C 
ATOM      2  C   UNL     1       0.002  -0.004   0.002  0.00  0.00    +0.216 C 
ATOM      3  O   UNL     1       1.060  -0.596  -0.011  0.00  0.00    -0.276 OA
ATOM      4  N   UNL     1      -1.156  -0.694   0.009  0.00  0.00    -0.253 N 
ATOM      5  C   UNL     1      -1.137  -2.092   0.002  0.00  0.00    +0.242 A 
ATOM      6  N   UNL     1      -0.034  -2.856  -0.007  0.00  0.00    -0.180 NA
ATOM      7  C   UNL     1      -0.378  -4.116  -0.013  0.00  0.00    +0.216 A 
ATOM      8  N   UNL     1      -1.731  -4.185  -0.005  0.00  0.00    -0.224 N 
ATOM      9  N   UNL     1      -2.196  -2.869   0.008  0.00  0.00    -0.131 NA
ATOM     10  C   UNL     1      -2.492  -5.433  -0.004  0.00  0.00    +0.143 C 
ATOM     11  C   UNL     1      -1.575  -6.572   0.459  0.00  0.00    +0.058 C 
ATOM     12  C   UNL     1      -0.257  -6.525  -0.323  0.00  0.00    +0.106 C 
ATOM     13  N   UNL     1       0.423  -5.250  -0.025  0.00  0.00    -0.307 N 
ATOM     14  H   UNL     1      -2.002  -0.220   0.020  0.00  0.00    +0.158 HD
ATOM     15  H   UNL     1       1.376  -5.207   0.153  0.00  0.00    +0.149 HD
ENDROOT
BRANCH  10  16
ATOM     16  C   UNL     1      -3.663  -5.310   0.937  0.00  0.00    -0.023 A 
ATOM     17  C   UNL     1      -3.447  -5.045   2.277  0.00  0.00    +0.007 A 
ATOM     18  C   UNL     1      -4.520  -4.932   3.141  0.00  0.00    +0.020 A 
ATOM     19  C   UNL     1      -5.810  -5.084   2.664  0.00  0.00    +0.041 A 
ATOM     20  C   UNL     1      -6.025  -5.349   1.324  0.00  0.00    +0.020 A 
ATOM     21  C   UNL     1      -4.952  -5.457   0.460  0.00  0.00    +0.007 A 
ATOM     22 CL   UNL     1      -7.159  -4.943   3.749  0.00  0.00    -0.084 Cl
ENDBRANCH  10  16
BRANCH  12  23
ATOM     23  C   UNL     1      -0.542  -6.617  -1.800  0.00  0.00    -0.027 A 
ATOM     24  C   UNL     1      -0.948  -5.494  -2.497  0.00  0.00    +0.005 A 
ATOM     25  C   UNL     1      -1.209  -5.578  -3.852  0.00  0.00    +0.000 A 
ATOM     26  C   UNL     1      -1.065  -6.785  -4.510  0.00  0.00    +0.000 A 
ATOM     27  C   UNL     1      -0.659  -7.908  -3.813  0.00  0.00    +0.000 A 
ATOM     28  C   UNL     1      -0.393  -7.823  -2.459  0.00  0.00    +0.005 A 
ENDBRANCH  12  23
TORSDOF 2
