REMARK  Name = ZINC63291107
REMARK  6 active torsions:
REMARK  status: ('A' for Active; 'I' for Inactive)
REMARK    1  A    between atoms: C_1  and  O_2
REMARK    2  A    between atoms: O_2  and  C_3
REMARK    3  A    between atoms: C_6  and  C_19
REMARK    4  A    between atoms: C_8  and  C_9
REMARK    5  A    between atoms: C_9  and  N_10
REMARK    6  A    between atoms: CA_32  and  C_35
REMARK                            x       y       z     vdW  Elec       q    Type
REMARK                         _______ _______ _______ _____ _____    ______ ____
ROOT
ATOM      1  C   UNL     1      -1.200  -0.637   0.010  0.00  0.00    +0.125 A 
ATOM      2  C   UNL     1      -2.375   0.101   0.019  0.00  0.00    +0.046 A 
ATOM      3  C   UNL     1      -3.596  -0.545   0.027  0.00  0.00    +0.009 A 
ATOM      4  C   UNL     1      -3.648  -1.927   0.026  0.00  0.00    -0.028 A 
ATOM      5  C   UNL     1      -2.479  -2.665   0.017  0.00  0.00    +0.014 A 
ATOM      6  C   UNL     1      -1.255  -2.023   0.003  0.00  0.00    +0.016 A 
ENDROOT
BRANCH   4   7
ATOM      7  C   UNL     1      -4.981  -2.629   0.034  0.00  0.00    +0.111 C 
ATOM      8  C   UNL     1      -5.570  -2.634  -1.379  0.00  0.00    +0.128 C 
ATOM      9  C   UNL     1      -6.979  -3.203  -1.251  0.00  0.00    -0.035 C 
ATOM     10  C   UNL     1      -7.054  -4.213  -2.106  0.00  0.00    -0.001 A 
ATOM     11  C   UNL     1      -8.172  -5.088  -2.496  0.00  0.00    +0.010 A 
ATOM     12  C   UNL     1      -7.888  -6.052  -3.411  0.00  0.00    +0.001 A 
ATOM     13  C   UNL     1      -6.620  -6.231  -3.972  0.00  0.00    +0.002 A 
ATOM     14  C   UNL     1      -5.536  -5.469  -3.676  0.00  0.00    +0.026 A 
ATOM     15  C   UNL     1      -5.711  -4.418  -2.729  0.00  0.00    +0.043 A 
ATOM     16  N   UNL     1      -4.848  -3.524  -2.286  0.00  0.00    -0.376 N 
ATOM     17  C   UNL     1      -7.955  -2.677  -0.227  0.00  0.00    +0.063 C 
ATOM     18  CA  UNL     1      -7.187  -2.614   1.106  0.00  0.00    +0.172 C 
ATOM     19  N   UNL     1      -5.912  -1.915   0.922  0.00  0.00    -0.295 NA
ATOM     20  H   UNL     1      -5.480  -1.711   1.810  0.00  0.00    +0.123 HD
ATOM     21  H   UNL     1      -3.907  -3.464  -2.511  0.00  0.00    +0.160 HD
BRANCH  18  22
ATOM     22  C   UNL     1      -8.016  -1.875   2.126  0.00  0.00    +0.373 C 
ATOM     23  O   UNL     1      -8.795  -2.487   2.837  0.00  0.00    -0.245 OA
ATOM     24  OXT UNL     1      -7.907  -0.666   2.239  0.00  0.00    -0.245 OA
ENDBRANCH  18  22
ENDBRANCH   4   7
BRANCH   1  26
ATOM     25  C   UNL     1      -0.017   1.425   0.010  0.00  0.00    +0.277 C 
ATOM     26  O   UNL     1       0.002  -0.004   0.002  0.00  0.00    -0.495 OA
ENDBRANCH   1  26
BRANCH   6  27
ATOM     27  C   UNL     1       0.018  -2.829  -0.013  0.00  0.00    +0.184 C 
BRANCH  27  28
ATOM     28  N   UNL     1       0.547  -2.880  -1.378  0.00  0.00    -0.239 N 
ATOM     29  C   UNL     1       0.258  -3.821  -2.337  0.00  0.00    +0.089 A 
ATOM     30  C   UNL     1      -0.552  -4.951  -2.370  0.00  0.00    +0.029 A 
ATOM     31  C   UNL     1      -0.627  -5.701  -3.509  0.00  0.00    +0.002 A 
ATOM     32  C   UNL     1       0.101  -5.346  -4.638  0.00  0.00    +0.002 A 
ATOM     33  C   UNL     1       0.902  -4.242  -4.633  0.00  0.00    +0.032 A 
ATOM     34  C   UNL     1       0.996  -3.456  -3.477  0.00  0.00    +0.113 A 
ATOM     35  N   UNL     1       1.686  -2.338  -3.176  0.00  0.00    -0.129 NA
ATOM     36  N   UNL     1       1.442  -1.974  -1.966  0.00  0.00    -0.064 NA
ENDBRANCH  27  28
ENDBRANCH   6  27
TORSDOF 5
