REMARK  Name = ZINC04149665
REMARK  4 active torsions:
REMARK  status: ('A' for Active; 'I' for Inactive)
REMARK    1  A    between atoms: C_10  and  C_11
REMARK    2  A    between atoms: C_20  and  C_28
REMARK    3  A    between atoms: C_22  and  C_23
REMARK    4  A    between atoms: C_22  and  C_25
REMARK                            x       y       z     vdW  Elec       q    Type
REMARK                         _______ _______ _______ _____ _____    ______ ____
ROOT
ATOM      1  C   UNL     1      -1.423   5.996   0.046  0.00  0.00    +0.066 C 
ATOM      2  C   UNL     1      -1.465   6.985  -1.120  0.00  0.00    +0.027 C 
ATOM      3  C   UNL     1      -1.080   6.339  -2.429  0.00  0.00    +0.009 C 
ATOM      4  C   UNL     1      -2.301   5.994  -3.278  0.00  0.00    +0.005 C 
ATOM      5  C   UNL     1      -3.090   7.286  -3.538  0.00  0.00    +0.027 C 
ATOM      6  C   UNL     1      -3.543   7.820  -2.203  0.00  0.00    -0.026 C 
ATOM      7  C   UNL     1      -2.808   7.653  -1.122  0.00  0.00    -0.047 C 
ATOM      8  C   UNL     1      -3.314   8.144   0.187  0.00  0.00    +0.164 C 
ATOM      9  C   UNL     1      -2.724   7.711   1.330  0.00  0.00    +0.065 C 
ATOM     10  C   UNL     1      -1.556   6.772   1.357  0.00  0.00    +0.188 C 
ATOM     11  N   UNL     1      -3.222   8.157   2.522  0.00  0.00    -0.304 NA
ATOM     12  H   UNL     1      -2.820   7.864   3.355  0.00  0.00    +0.186 HD
ENDROOT
BRANCH   1  22
ATOM     13  C   UNL     1      -0.011   1.078   0.190  0.00  0.00    +0.001 A 
ATOM     14  C   UNL     1      -1.233   1.748   0.200  0.00  0.00    +0.001 A 
ATOM     15  C   UNL     1      -1.287   3.107   0.155  0.00  0.00    +0.009 A 
ATOM     16  C   UNL     1      -0.096   3.849   0.085  0.00  0.00    -0.014 A 
ATOM     17  C   UNL     1       1.147   3.167   0.069  0.00  0.00    -0.018 A 
ATOM     18  C   UNL     1       1.163   1.763   0.122  0.00  0.00    +0.008 A 
ATOM     19  C   UNL     1       2.338   3.909  -0.002  0.00  0.00    +0.008 A 
ATOM     20  C   UNL     1       2.284   5.268  -0.053  0.00  0.00    +0.001 A 
ATOM     21  C   UNL     1       1.062   5.938  -0.037  0.00  0.00    +0.004 A 
ATOM     22  C   UNL     1      -0.112   5.253   0.031  0.00  0.00    -0.033 A 
ENDBRANCH   1  22
BRANCH  10  23
ATOM     23  C   UNL     1      -1.733   5.818   2.464  0.00  0.00    +0.091 C 
ATOM     24  N   UNL     1      -1.869   5.082   3.318  0.00  0.00    -0.195 NA
ENDBRANCH  10  23
BRANCH  10  25
ATOM     25  C   UNL     1      -0.325   7.547   1.584  0.00  0.00    +0.091 C 
ATOM     26  N   UNL     1       0.625   8.145   1.759  0.00  0.00    -0.195 NA
ENDBRANCH  10  25
BRANCH   8  27
ATOM     27  C   UNL     1      -4.412   9.061   0.241  0.00  0.00    +0.076 C 
ATOM     28  N   UNL     1      -5.284   9.789   0.284  0.00  0.00    -0.196 NA
ENDBRANCH   8  27
TORSDOF 4
