REMARK  Name = ZINC05245438
REMARK  7 active torsions:
REMARK  status: ('A' for Active; 'I' for Inactive)
REMARK    1  A    between atoms: C_1  and  O_2
REMARK    2  A    between atoms: O_2  and  C_3
REMARK    3  A    between atoms: C_7  and  C_11
REMARK    4  A    between atoms: C_8  and  O_9
REMARK    5  A    between atoms: O_9  and  C_10
REMARK    6  A    between atoms: C_16  and  C_21
REMARK    7  A    between atoms: C_26  and  O_27
REMARK                            x       y       z     vdW  Elec       q    Type
REMARK                         _______ _______ _______ _____ _____    ______ ____
ROOT
ATOM      1  C   UNL     1       1.394  -4.134   2.219  0.00  0.00    +0.179 C 
ATOM      2  C   UNL     1       0.707  -4.617   3.477  0.00  0.00    +0.041 C 
ATOM      3  C   UNL     1       1.398  -5.087   4.538  0.00  0.00    +0.020 C 
ATOM      4  C   UNL     1       0.683  -5.564   5.780  0.00  0.00    +0.060 C 
ATOM      5  C   UNL     1      -0.618  -4.780   5.959  0.00  0.00    +0.035 C 
ATOM      6  C   UNL     1      -1.481  -4.987   4.710  0.00  0.00    +0.088 C 
ATOM      7  C   UNL     1      -0.699  -4.557   3.501  0.00  0.00    +0.164 C 
ATOM      8  O   UNL     1      -1.293  -4.149   2.522  0.00  0.00    -0.292 OA
ATOM      9  N   UNL     1       2.770  -5.158   4.534  0.00  0.00    -0.287 N 
ATOM     10  C   UNL     1       3.425  -5.030   3.320  0.00  0.00    +0.218 A 
ATOM     11  N   UNL     1       2.790  -4.554   2.223  0.00  0.00    -0.221 N 
ATOM     12  N   UNL     1       3.727  -4.565   1.191  0.00  0.00    -0.156 NA
ATOM     13  C   UNL     1       4.844  -5.024   1.700  0.00  0.00    +0.247 A 
ATOM     14  N   UNL     1       4.656  -5.303   2.987  0.00  0.00    -0.201 NA
ATOM     15  H   UNL     1       3.266  -5.295   5.356  0.00  0.00    +0.155 HD
ENDROOT
BRANCH   1  20
ATOM     16  C   UNL     1       0.626  -0.619   1.042  0.00  0.00    +0.162 A 
ATOM     17  C   UNL     1       1.202   0.137   2.051  0.00  0.00    +0.049 A 
ATOM     18  C   UNL     1       1.836  -0.490   3.108  0.00  0.00    +0.004 A 
ATOM     19  C   UNL     1       1.897  -1.870   3.161  0.00  0.00    +0.010 A 
ATOM     20  C   UNL     1       1.325  -2.630   2.158  0.00  0.00    +0.027 A 
ATOM     21  C   UNL     1       0.683  -2.008   1.099  0.00  0.00    +0.167 A 
BRANCH  16  23
ATOM     22  C   UNL     1      -0.017   1.425   0.010  0.00  0.00    +0.277 C 
ATOM     23  O   UNL     1       0.002  -0.004   0.002  0.00  0.00    -0.491 OA
ENDBRANCH  16  23
BRANCH  21  24
ATOM     24  O   UNL     1       0.115  -2.754   0.114  0.00  0.00    -0.491 OA
ATOM     25  C   UNL     1       0.940  -3.091  -1.003  0.00  0.00    +0.277 C 
ENDBRANCH  21  24
ENDBRANCH   1  20
BRANCH   5  26
ATOM     26  C   UNL     1      -1.352  -5.285   7.174  0.00  0.00    -0.002 A 
ATOM     27  C   UNL     1      -1.746  -6.608   7.244  0.00  0.00    +0.007 A 
ATOM     28  C   UNL     1      -2.420  -7.072   8.357  0.00  0.00    +0.001 A 
ATOM     29  C   UNL     1      -2.702  -6.215   9.405  0.00  0.00    +0.004 A 
ATOM     30  C   UNL     1      -2.310  -4.892   9.341  0.00  0.00    +0.046 A 
ATOM     31  C   UNL     1      -1.629  -4.425   8.226  0.00  0.00    +0.120 A 
BRANCH  31  32
ATOM     32  O   UNL     1      -1.238  -3.125   8.163  0.00  0.00    -0.506 OA
ATOM     33  H   UNL     1      -1.894  -2.535   7.768  0.00  0.00    +0.292 HD
ENDBRANCH  31  32
ENDBRANCH   5  26
TORSDOF 5
