REMARK  Name = ZINC35843183
REMARK  5 active torsions:
REMARK  status: ('A' for Active; 'I' for Inactive)
REMARK    1  A    between atoms: C_1  and  C_2
REMARK    2  A    between atoms: C_4  and  C_37
REMARK    3  A    between atoms: N_21  and  C_24
REMARK    4  A    between atoms: C_28  and  N_31
REMARK    5  A    between atoms: C_29  and  C_30
REMARK                            x       y       z     vdW  Elec       q    Type
REMARK                         _______ _______ _______ _____ _____    ______ ____
ROOT
ATOM      1  C   UNL     1       0.575   0.628  -0.921  0.00  0.00    +0.044 C 
ATOM      2  C   UNL     1       0.797  -0.861  -0.854  0.00  0.00    -0.050 A 
ATOM      3  C   UNL     1       1.100  -1.569  -2.003  0.00  0.00    +0.008 A 
ATOM      4  C   UNL     1       1.305  -2.932  -1.943  0.00  0.00    -0.029 A 
ATOM      5  C   UNL     1       1.210  -3.604  -0.728  0.00  0.00    +0.042 A 
ATOM      6  C   UNL     1       0.903  -2.884   0.425  0.00  0.00    +0.004 A 
ATOM      7  C   UNL     1       0.706  -1.522   0.357  0.00  0.00    +0.011 A 
ATOM      8  C   UNL     1       0.880  -3.886   1.539  0.00  0.00    +0.138 C 
ATOM      9  C   UNL     1       1.851  -3.554   2.659  0.00  0.00    +0.123 C 
ATOM     10  C   UNL     1       0.977  -2.435   3.346  0.00  0.00    +0.107 C 
ATOM     11  C   UNL     1      -0.377  -3.011   3.414  0.00  0.00    +0.071 C 
ATOM     12  N   UNL     1      -0.427  -3.941   2.227  0.00  0.00    -0.281 NA
ATOM     13  C   UNL     1      -1.571  -3.624   1.385  0.00  0.00    +0.086 C 
ATOM     14  C   UNL     1      -2.463  -2.655   2.193  0.00  0.00    +0.017 C 
ATOM     15  C   UNL     1      -1.450  -1.931   3.137  0.00  0.00    +0.021 C 
ATOM     16  C   UNL     1       1.943  -1.775   4.190  0.00  0.00    +0.232 C 
ATOM     17  O   UNL     1       1.757  -1.276   5.279  0.00  0.00    -0.274 OA
ATOM     18  N   UNL     1       3.122  -1.839   3.487  0.00  0.00    -0.209 N 
ATOM     19  C   UNL     1       3.070  -2.718   2.424  0.00  0.00    +0.233 C 
ATOM     20  O   UNL     1       3.842  -2.798   1.492  0.00  0.00    -0.274 OA
ATOM     21  C   UNL     1       1.200  -5.206   0.889  0.00  0.00    +0.243 C 
ATOM     22  O   UNL     1       1.284  -6.283   1.440  0.00  0.00    -0.273 OA
ATOM     23  N   UNL     1       1.375  -4.957  -0.422  0.00  0.00    -0.283 N 
ATOM     24  C   UNL     1       1.633  -3.696  -3.200  0.00  0.00    +0.045 C 
ATOM     25  H   UNL     1       1.590  -5.638  -1.079  0.00  0.00    +0.155 HD
ENDROOT
BRANCH  18  26
ATOM     26  C   UNL     1       4.264  -1.098   3.818  0.00  0.00    +0.049 A 
ATOM     27  C   UNL     1       5.209  -1.628   4.687  0.00  0.00    +0.024 A 
ATOM     28  C   UNL     1       6.334  -0.896   5.012  0.00  0.00    +0.004 A 
ATOM     29  C   UNL     1       6.520   0.364   4.473  0.00  0.00    +0.033 A 
ATOM     30  C   UNL     1       5.581   0.895   3.609  0.00  0.00    +0.131 A 
ATOM     31  C   UNL     1       4.457   0.165   3.275  0.00  0.00    +0.002 A 
ATOM     32  C   UNL     1       3.437   0.741   2.327  0.00  0.00    +0.048 C 
BRANCH  30  33
ATOM     33  N   UNL     1       5.783   2.244   3.035  0.00  0.00    +0.057 N 
ATOM     34  O   UNL     1       6.894   2.610   2.727  0.00  0.00    -0.126 OA
ATOM     35  O   UNL     1       4.838   2.981   2.874  0.00  0.00    -0.126 OA
ENDBRANCH  30  33
ENDBRANCH  18  26
TORSDOF 2
