REMARK  Name = ZINC05491397
REMARK  6 active torsions:
REMARK  status: ('A' for Active; 'I' for Inactive)
REMARK    1  A    between atoms: C_4  and  C_7
REMARK    2  A    between atoms: C_7  and  C_8
REMARK    3  A    between atoms: C_8  and  C_9
REMARK    4  A    between atoms: C_12  and  C_23
REMARK    5  A    between atoms: C_18  and  N_22
REMARK    6  A    between atoms: C_19  and  C_20
REMARK                            x       y       z     vdW  Elec       q    Type
REMARK                         _______ _______ _______ _____ _____    ______ ____
ROOT
ATOM      1  C   UNL     1       5.283  -1.483   1.526  0.00  0.00    +0.072 C 
ATOM      2  C   UNL     1       5.814  -1.961   2.853  0.00  0.00    +0.050 A 
ATOM      3  C   UNL     1       5.375  -3.020   3.652  0.00  0.00    +0.101 A 
ATOM      4  N   UNL     1       6.140  -3.064   4.726  0.00  0.00    -0.171 NA
ATOM      5  N   UNL     1       7.087  -2.031   4.636  0.00  0.00    -0.246 N 
ATOM      6  H   UNL     1       7.776  -1.831   5.289  0.00  0.00    +0.192 HD
ATOM      7  C   UNL     1       6.871  -1.368   3.481  0.00  0.00    +0.222 A 
ATOM      8  O   UNL     1       7.530  -0.303   2.959  0.00  0.00    -0.423 OA
ATOM      9  C   UNL     1       7.299   0.002   1.666  0.00  0.00    +0.200 C 
ATOM     10  C   UNL     1       6.277  -0.510   0.943  0.00  0.00    +0.094 C 
ENDROOT
BRANCH   3  11
ATOM     11  C   UNL     1       4.247  -3.935   3.347  0.00  0.00    +0.021 A 
ATOM     12  C   UNL     1       4.146  -4.525   2.089  0.00  0.00    +0.011 A 
ATOM     13  C   UNL     1       3.095  -5.375   1.810  0.00  0.00    +0.001 A 
ATOM     14  C   UNL     1       2.142  -5.642   2.777  0.00  0.00    +0.001 A 
ATOM     15  C   UNL     1       2.236  -5.059   4.027  0.00  0.00    +0.020 A 
ATOM     16  C   UNL     1       3.287  -4.211   4.319  0.00  0.00    +0.050 A 
ATOM     17 CL   UNL     1       3.408  -3.485   5.892  0.00  0.00    -0.083 Cl
ENDBRANCH   3  11
BRANCH   9  18
ATOM     18  N   UNL     1       8.150   0.884   1.048  0.00  0.00    -0.328 N 
ATOM     19  H   UNL     1       8.891   1.268   1.541  0.00  0.00    +0.145 HD
ATOM     20  H   UNL     1       8.009   1.123   0.118  0.00  0.00    +0.145 HD
ENDBRANCH   9  18
BRANCH  10  21
ATOM     21  C   UNL     1       6.134  -0.116  -0.427  0.00  0.00    +0.100 C 
ATOM     22  N   UNL     1       6.021   0.197  -1.513  0.00  0.00    -0.191 NA
ENDBRANCH  10  21
BRANCH   1  23
ATOM     23  C   UNL     1       3.937  -0.785   1.731  0.00  0.00    +0.018 C 
BRANCH  23  24
ATOM     24  C   UNL     1       3.351  -0.399   0.371  0.00  0.00    +0.036 C 
BRANCH  24  28
ATOM     25  C   UNL     1      -0.408   1.550   0.940  0.00  0.00    +0.000 A 
ATOM     26  C   UNL     1       0.758   2.292   0.908  0.00  0.00    +0.000 A 
ATOM     27  C   UNL     1       1.974   1.661   0.725  0.00  0.00    +0.003 A 
ATOM     28  C   UNL     1       2.025   0.288   0.573  0.00  0.00    -0.047 A 
ATOM     29  C   UNL     1       0.859  -0.454   0.605  0.00  0.00    +0.003 A 
ATOM     30  C   UNL     1      -0.357   0.177   0.787  0.00  0.00    +0.000 A 
ENDBRANCH  24  28
ENDBRANCH  23  24
ENDBRANCH   1  23
TORSDOF 6
