REMARK  Name = ZINC59292928
REMARK  6 active torsions:
REMARK  status: ('A' for Active; 'I' for Inactive)
REMARK    1  A    between atoms: C_1  and  C_2
REMARK    2  A    between atoms: C_2  and  C_3
REMARK    3  A    between atoms: C_2  and  O_4
REMARK    4  A    between atoms: O_4  and  C_5
REMARK    5  A    between atoms: C_5  and  C_7
REMARK    6  A    between atoms: C_8  and  N_32
REMARK                            x       y       z     vdW  Elec       q    Type
REMARK                         _______ _______ _______ _____ _____    ______ ____
ROOT
ATOM      1  C   UNL     1      -2.857  -2.217  -0.640  0.00  0.00    +0.117 C 
ATOM      2  C   UNL     1      -3.084  -3.375  -1.315  0.00  0.00    +0.196 C 
ATOM      3  O   UNL     1      -4.302  -3.941  -1.347  0.00  0.00    -0.440 OA
ATOM      4  C   UNL     1      -5.395  -3.214  -1.048  0.00  0.00    +0.152 A 
ATOM      5  C   UNL     1      -6.728  -3.672  -1.470  0.00  0.00    +0.060 A 
ATOM      6  C   UNL     1      -6.889  -4.862  -2.183  0.00  0.00    +0.015 A 
ATOM      7  C   UNL     1      -8.152  -5.262  -2.562  0.00  0.00    +0.001 A 
ATOM      8  C   UNL     1      -9.257  -4.489  -2.241  0.00  0.00    +0.004 A 
ATOM      9  C   UNL     1      -9.112  -3.311  -1.538  0.00  0.00    +0.047 A 
ATOM     10  C   UNL     1      -7.848  -2.890  -1.145  0.00  0.00    +0.143 A 
ATOM     11  O   UNL     1      -7.686  -1.740  -0.456  0.00  0.00    -0.422 OA
ATOM     12  C   UNL     1      -6.474  -1.317  -0.064  0.00  0.00    +0.346 A 
ATOM     13  O   UNL     1      -6.384  -0.276   0.563  0.00  0.00    -0.245 OA
ATOM     14  C   UNL     1      -5.306  -2.043  -0.354  0.00  0.00    +0.104 A 
ATOM     15  C   UNL     1      -3.967  -1.531   0.102  0.00  0.00    +0.145 C 
ATOM     16  C   UNL     1      -3.801  -1.694   1.581  0.00  0.00    -0.001 A 
ATOM     17  C   UNL     1      -3.788  -2.817   2.379  0.00  0.00    +0.022 A 
ATOM     18  C   UNL     1      -3.608  -2.619   3.744  0.00  0.00    +0.018 A 
ATOM     19  C   UNL     1      -3.448  -1.353   4.272  0.00  0.00    +0.017 A 
ATOM     20  C   UNL     1      -3.460  -0.219   3.475  0.00  0.00    +0.025 A 
ATOM     21  C   UNL     1      -3.642  -0.405   2.103  0.00  0.00    +0.038 A 
ATOM     22  N   UNL     1      -3.697   0.535   1.089  0.00  0.00    -0.284 N 
ATOM     23  C   UNL     1      -3.887  -0.034  -0.119  0.00  0.00    +0.237 C 
ATOM     24  O   UNL     1      -3.977   0.543  -1.182  0.00  0.00    -0.274 OA
ATOM     25 BR   UNL     1      -3.581  -4.114   4.902  0.00  0.00    -0.050 Br
ATOM     26  H   UNL     1      -3.610   1.491   1.230  0.00  0.00    +0.155 HD
ENDROOT
BRANCH   2  27
ATOM     27  N   UNL     1      -2.048  -3.978  -1.977  0.00  0.00    -0.329 N 
ATOM     28  H   UNL     1      -1.147  -3.629  -1.888  0.00  0.00    +0.145 HD
ATOM     29  H   UNL     1      -2.215  -4.754  -2.534  0.00  0.00    +0.145 HD
ENDBRANCH   2  27
BRANCH   1  30
ATOM     30  C   UNL     1      -1.569  -1.660  -0.633  0.00  0.00    +0.342 C 
ATOM     31  O   UNL     1      -0.849  -1.804   0.339  0.00  0.00    -0.245 OA
BRANCH  30  32
ATOM     32  O   UNL     1      -1.128  -0.965  -1.703  0.00  0.00    -0.458 OA
BRANCH  32  34
ATOM     33  C   UNL     1       0.799  -0.358  -3.030  0.00  0.00    +0.052 C 
ATOM     34  C   UNL     1       0.193  -0.425  -1.627  0.00  0.00    +0.171 C 
ATOM     35  C   UNL     1       0.136   0.982  -1.028  0.00  0.00    +0.052 C 
ENDBRANCH  32  34
ENDBRANCH  30  32
ENDBRANCH   1  30
TORSDOF 4
