REMARK  Name = ZINC26174215
REMARK  11 active torsions:
REMARK  status: ('A' for Active; 'I' for Inactive)
REMARK    1  A    between atoms: C_1  and  C_2
REMARK    2  A    between atoms: C_2  and  C_3
REMARK    3  A    between atoms: C_3  and  C_4
REMARK    4  A    between atoms: C_4  and  N_5
REMARK    5  A    between atoms: C_9  and  S_28
REMARK    6  A    between atoms: C_13  and  C_14
REMARK    7  A    between atoms: C_14  and  O_15
REMARK    8  A    between atoms: O_15  and  C_16
REMARK    9  A    between atoms: C_16  and  C_18
REMARK   10  A    between atoms: C_23  and  C_27
REMARK   11  A    between atoms: S_28  and  N_31
REMARK                            x       y       z     vdW  Elec       q    Type
REMARK                         _______ _______ _______ _____ _____    ______ ____
ROOT
ATOM      1  N   UNL     1      -5.712  -2.273  -0.281  0.00  0.00    -0.325 N 
ATOM      2  C   UNL     1      -4.739  -1.350   0.045  0.00  0.00    +0.069 A 
ATOM      3  C   UNL     1      -4.223  -0.871   1.242  0.00  0.00    +0.030 A 
ATOM      4  C   UNL     1      -3.225   0.080   1.224  0.00  0.00    +0.030 A 
ATOM      5  C   UNL     1      -2.733   0.560   0.018  0.00  0.00    +0.107 A 
ATOM      6  C   UNL     1      -3.232   0.104  -1.169  0.00  0.00    +0.058 A 
ATOM      7  C   UNL     1      -4.240  -0.863  -1.175  0.00  0.00    +0.091 A 
ATOM      8  N   UNL     1      -4.921  -1.501  -2.162  0.00  0.00    -0.229 NA
ATOM      9  C   UNL     1      -5.781  -2.325  -1.639  0.00  0.00    +0.149 A 
ENDROOT
BRANCH   5  10
ATOM     10  S   UNL     1      -1.456   1.774   0.019  0.00  0.00    +0.056 S 
ATOM     11  O   UNL     1      -1.536   2.446   1.268  0.00  0.00    -0.153 OA
ATOM     12  O   UNL     1      -1.548   2.460  -1.223  0.00  0.00    -0.153 OA
BRANCH  10  13
ATOM     13  N   UNL     1      -0.011   0.966   0.007  0.00  0.00    -0.204 NA
ATOM     14  H   UNL     1       0.815   1.692   0.007  0.00  0.00    +0.144 HD
ATOM     15  H   UNL     1       0.051   0.339  -0.894  0.00  0.00    +0.144 HD
ENDBRANCH  10  13
ENDBRANCH   5  10
BRANCH   1  16
ATOM     16  C   UNL     1      -6.520  -3.052   0.660  0.00  0.00    +0.123 C 
BRANCH  16  17
ATOM     17  C   UNL     1      -7.796  -2.278   0.998  0.00  0.00    +0.021 C 
BRANCH  17  19
ATOM     18  C   UNL     1      -9.916  -2.319   2.320  0.00  0.00    +0.004 C 
ATOM     19  C   UNL     1      -8.641  -3.092   1.981  0.00  0.00    -0.002 C 
ENDBRANCH  17  19
ENDBRANCH  16  17
ENDBRANCH   1  16
BRANCH   9  20
ATOM     20  C   UNL     1      -6.718  -3.208  -2.422  0.00  0.00    +0.306 C 
BRANCH  20  21
ATOM     21  O   UNL     1      -7.962  -2.499  -2.664  0.00  0.00    -0.452 OA
BRANCH  21  22
ATOM     22  C   UNL     1      -8.914  -3.153  -3.358  0.00  0.00    +0.360 C 
ATOM     23  O   UNL     1      -8.710  -4.285  -3.749  0.00  0.00    -0.243 OA
BRANCH  22  24
ATOM     24  C   UNL     1     -10.203  -2.496  -3.641  0.00  0.00    +0.166 A 
ATOM     25  C   UNL     1     -11.246  -3.042  -4.334  0.00  0.00    +0.127 A 
ATOM     26  N   UNL     1     -12.238  -2.109  -4.365  0.00  0.00    -0.306 N 
ATOM     27  C   UNL     1     -13.489  -2.115  -4.915  0.00  0.00    +0.093 A 
ATOM     28  C   UNL     1     -14.292  -1.037  -4.808  0.00  0.00    +0.021 A 
ATOM     29  C   UNL     1     -13.852   0.112  -4.128  0.00  0.00    -0.046 A 
ATOM     30  C   UNL     1     -12.610   0.134  -3.577  0.00  0.00    +0.050 A 
ATOM     31  C   UNL     1     -11.780  -1.002  -3.695  0.00  0.00    +0.139 A 
ATOM     32  N   UNL     1     -10.554  -1.251  -3.266  0.00  0.00    -0.221 NA
ATOM     33  C   UNL     1     -14.753   1.314  -4.013  0.00  0.00    +0.044 C 
ENDBRANCH  22  24
ENDBRANCH  21  22
ENDBRANCH  20  21
ENDBRANCH   9  20
TORSDOF 9
