REMARK  Name = ZINC06684161
REMARK  8 active torsions:
REMARK  status: ('A' for Active; 'I' for Inactive)
REMARK    1  A    between atoms: C_1  and  C_2
REMARK    2  A    between atoms: C_5  and  C_23
REMARK    3  A    between atoms: C_6  and  S_8
REMARK    4  A    between atoms: S_8  and  N_11
REMARK    5  A    between atoms: N_11  and  N_12
REMARK    6  A    between atoms: C_13  and  C_14
REMARK    7  A    between atoms: C_13  and  C_15
REMARK    8  A    between atoms: C_20  and  O_21
REMARK                            x       y       z     vdW  Elec       q    Type
REMARK                         _______ _______ _______ _____ _____    ______ ____
ROOT
ATOM      1  N   UNL     1      -0.848  -2.905   3.246  0.00  0.00    -0.136 N 
ATOM      2  H   UNL     1      -1.323  -2.332   3.868  0.00  0.00    +0.197 HD
ENDROOT
BRANCH   1   3
ATOM      3  S   UNL     1       0.724  -2.570   2.848  0.00  0.00    +0.087 S 
ATOM      4  O   UNL     1       1.124  -1.475   3.660  0.00  0.00    -0.149 OA
ATOM      5  O   UNL     1       0.784  -2.528   1.429  0.00  0.00    -0.149 OA
BRANCH   3  11
ATOM      6  C   UNL     1       3.796  -6.659   1.768  0.00  0.00    +0.044 C 
ATOM      7  C   UNL     1       3.097  -5.812   2.800  0.00  0.00    -0.049 A 
ATOM      8  C   UNL     1       3.218  -6.119   4.143  0.00  0.00    +0.004 A 
ATOM      9  C   UNL     1       2.577  -5.343   5.090  0.00  0.00    +0.005 A 
ATOM     10  C   UNL     1       1.816  -4.259   4.694  0.00  0.00    -0.024 A 
ATOM     11  C   UNL     1       1.696  -3.951   3.352  0.00  0.00    +0.113 A 
ATOM     12  C   UNL     1       2.340  -4.726   2.405  0.00  0.00    +0.032 A 
ATOM     13  C   UNL     1       1.116  -3.412   5.726  0.00  0.00    +0.046 C 
ENDBRANCH   3  11
ENDBRANCH   1   3
BRANCH   1  14
ATOM     14  N   UNL     1      -1.491  -4.017   2.685  0.00  0.00    -0.170 NA
ATOM     15  C   UNL     1      -2.676  -4.353   3.091  0.00  0.00    +0.068 C 
ATOM     16  C   UNL     1      -3.309  -3.630   4.252  0.00  0.00    +0.068 C 
BRANCH  15  17
ATOM     17  C   UNL     1      -3.405  -5.443   2.415  0.00  0.00    +0.040 A 
ATOM     18  C   UNL     1      -4.721  -5.738   2.778  0.00  0.00    +0.033 A 
ATOM     19  C   UNL     1      -5.397  -6.759   2.141  0.00  0.00    +0.042 A 
ATOM     20  C   UNL     1      -4.775  -7.492   1.144  0.00  0.00    +0.023 A 
ATOM     21  C   UNL     1      -3.473  -7.208   0.776  0.00  0.00    +0.047 A 
ATOM     22  C   UNL     1      -2.783  -6.184   1.402  0.00  0.00    +0.126 A 
ATOM     23 CL   UNL     1      -7.032  -7.126   2.593  0.00  0.00    -0.084 Cl
BRANCH  22  24
ATOM     24  O   UNL     1      -1.504  -5.901   1.037  0.00  0.00    -0.506 OA
ATOM     25  H   UNL     1      -0.836  -6.393   1.534  0.00  0.00    +0.292 HD
ENDBRANCH  22  24
ENDBRANCH  15  17
ENDBRANCH   1  14
TORSDOF 5
