REMARK  Name = ZINC39611161
REMARK  6 active torsions:
REMARK  status: ('A' for Active; 'I' for Inactive)
REMARK    1  A    between atoms: C_9  and  C_12
REMARK    2  A    between atoms: N_14  and  C_15
REMARK    3  A    between atoms: C_19  and  S_21
REMARK    4  A    between atoms: S_21  and  C_22
REMARK    5  A    between atoms: C_22  and  C_23
REMARK    6  A    between atoms: C_26  and  C_29
REMARK                            x       y       z     vdW  Elec       q    Type
REMARK                         _______ _______ _______ _____ _____    ______ ____
ROOT
ATOM      1  C   UNL     1       0.146  -2.905  -0.017  0.00  0.00    +0.243 C 
ATOM      2  O   UNL     1      -0.947  -2.384   0.088  0.00  0.00    -0.270 OA
ATOM      3  N   UNL     1       0.247  -4.244  -0.127  0.00  0.00    -0.283 N 
ATOM      4  H   UNL     1       1.119  -4.660  -0.211  0.00  0.00    +0.152 HD
ENDROOT
BRANCH   1  13
ATOM      5  C   UNL     1      -0.017   1.352  -0.044  0.00  0.00    +0.001 A 
ATOM      6  C   UNL     1       1.168   2.099  -0.050  0.00  0.00    +0.002 A 
ATOM      7  C   UNL     1       2.396   1.526  -0.048  0.00  0.00    +0.024 A 
ATOM      8  C   UNL     1       2.529   0.120  -0.039  0.00  0.00    +0.041 A 
ATOM      9  N   UNL     1       3.733  -0.433  -0.036  0.00  0.00    -0.285 N 
ATOM     10  C   UNL     1       3.932  -1.746  -0.028  0.00  0.00    +0.222 C 
ATOM     11  O   UNL     1       5.063  -2.190  -0.026  0.00  0.00    -0.275 OA
ATOM     12  C   UNL     1       2.749  -2.688  -0.021  0.00  0.00    +0.137 C 
ATOM     13  C   UNL     1       1.365  -2.069  -0.024  0.00  0.00    +0.032 C 
ATOM     14  C   UNL     1       1.293  -0.692  -0.032  0.00  0.00    +0.005 A 
ATOM     15  C   UNL     1       0.002  -0.004  -0.035  0.00  0.00    +0.010 A 
ATOM     16  H   UNL     1       4.508   0.150  -0.041  0.00  0.00    +0.155 HD
ENDBRANCH   1  13
BRANCH   3  17
ATOM     17  C   UNL     1      -0.961  -5.073  -0.121  0.00  0.00    +0.242 C 
ATOM     18  N   UNL     1      -0.629  -6.509   0.010  0.00  0.00    -0.237 N 
ATOM     19  N   UNL     1      -1.005  -7.298  -1.054  0.00  0.00    -0.171 NA
ATOM     20  C   UNL     1      -1.609  -6.835  -2.105  0.00  0.00    +0.152 C 
ATOM     21  S   UNL     1      -1.772  -5.087  -1.773  0.00  0.00    -0.054 S 
ATOM     22  H   UNL     1      -0.178  -6.869   0.790  0.00  0.00    +0.171 HD
BRANCH  20  23
ATOM     23  S   UNL     1      -2.144  -7.724  -3.529  0.00  0.00    -0.093 S 
BRANCH  23  24
ATOM     24  C   UNL     1      -1.656  -9.438  -3.186  0.00  0.00    +0.111 C 
BRANCH  24  25
ATOM     25  C   UNL     1      -2.061 -10.316  -4.341  0.00  0.00    -0.037 A 
ATOM     26  C   UNL     1      -3.311 -10.911  -4.349  0.00  0.00    +0.006 A 
ATOM     27  C   UNL     1      -3.688 -11.716  -5.404  0.00  0.00    +0.019 A 
ATOM     28  C   UNL     1      -2.806 -11.931  -6.464  0.00  0.00    +0.052 A 
ATOM     29  C   UNL     1      -1.546 -11.328  -6.450  0.00  0.00    +0.019 A 
ATOM     30  C   UNL     1      -1.184 -10.520  -5.391  0.00  0.00    +0.006 A 
BRANCH  28  31
ATOM     31  C   UNL     1      -3.190 -12.766  -7.562  0.00  0.00    +0.099 C 
ATOM     32  N   UNL     1      -3.495 -13.429  -8.433  0.00  0.00    -0.191 NA
ENDBRANCH  28  31
ENDBRANCH  24  25
ENDBRANCH  23  24
ENDBRANCH  20  23
ENDBRANCH   3  17
TORSDOF 6
