REMARK  Name = ZINC05824369
REMARK  11 active torsions:
REMARK  status: ('A' for Active; 'I' for Inactive)
REMARK    1  A    between atoms: N_4  and  N_5
REMARK    2  A    between atoms: C_6  and  C_7
REMARK    3  A    between atoms: C_6  and  C_8
REMARK    4  A    between atoms: C_8  and  C_10
REMARK    5  A    between atoms: C_8  and  C_13
REMARK    6  A    between atoms: C_10  and  N_59
REMARK    7  A    between atoms: C_11  and  N_59
REMARK    8  A    between atoms: C_12  and  N_59
REMARK    9  A    between atoms: C_13  and  C_15
REMARK   10  A    between atoms: C_13  and  C_21
REMARK   11  A    between atoms: C_22  and  O_32
REMARK                            x       y       z     vdW  Elec       q    Type
REMARK                         _______ _______ _______ _____ _____    ______ ____
ROOT
ATOM      1  C   UNL     1       2.207  -1.232   1.886  0.00  0.00    +0.066 C 
ENDROOT
BRANCH   1   2
ATOM      2  C   UNL     1       2.768  -2.613   2.104  0.00  0.00    +0.087 A 
ATOM      3  C   UNL     1       2.184  -3.457   3.008  0.00  0.00    +0.138 A 
ATOM      4  C   UNL     1       2.771  -4.795   3.185  0.00  0.00    +0.059 A 
ATOM      5  C   UNL     1       2.225  -5.707   4.090  0.00  0.00    +0.015 A 
ATOM      6  C   UNL     1       2.798  -6.951   4.231  0.00  0.00    +0.001 A 
ATOM      7  C   UNL     1       3.910  -7.299   3.479  0.00  0.00    +0.004 A 
ATOM      8  C   UNL     1       4.459  -6.408   2.581  0.00  0.00    +0.047 A 
ATOM      9  C   UNL     1       3.897  -5.147   2.424  0.00  0.00    +0.143 A 
ATOM     10  O   UNL     1       4.421  -4.262   1.550  0.00  0.00    -0.422 OA
ATOM     11  C   UNL     1       3.890  -3.041   1.377  0.00  0.00    +0.345 A 
ATOM     12  O   UNL     1       4.398  -2.282   0.571  0.00  0.00    -0.245 OA
BRANCH   3  13
ATOM     13  O   UNL     1       1.099  -3.073   3.719  0.00  0.00    -0.506 OA
ATOM     14  H   UNL     1       0.256  -3.276   3.291  0.00  0.00    +0.292 HD
ENDBRANCH   3  13
ENDBRANCH   1   2
BRANCH   1  15
ATOM     15  C   UNL     1       3.196  -0.205   2.373  0.00  0.00    -0.039 A 
ATOM     16  C   UNL     1       3.049   0.356   3.627  0.00  0.00    +0.004 A 
ATOM     17  C   UNL     1       3.959   1.296   4.075  0.00  0.00    +0.000 A 
ATOM     18  C   UNL     1       5.011   1.680   3.265  0.00  0.00    +0.000 A 
ATOM     19  C   UNL     1       5.155   1.123   2.009  0.00  0.00    +0.000 A 
ATOM     20  C   UNL     1       4.248   0.181   1.562  0.00  0.00    +0.004 A 
ENDBRANCH   1  15
BRANCH   1  21
ATOM     21  C   UNL     1       1.943  -1.019   0.394  0.00  0.00    +0.030 C 
BRANCH  21  23
ATOM     22  N   UNL     1       0.035   0.323  -0.236  0.00  0.00    -0.181 NA
ATOM     23  C   UNL     1       1.242   0.299   0.191  0.00  0.00    +0.038 C 
ATOM     24  C   UNL     1       1.961   1.589   0.490  0.00  0.00    +0.063 C 
BRANCH  22  28
ATOM     25  H   UNL     1      -3.447   0.373  -1.483  0.00  0.00    +0.159 HD
ATOM     26  C   UNL     1      -1.913   1.574  -0.888  0.00  0.00    +0.187 C 
ATOM     27  N   UNL     1      -2.553   2.777  -1.074  0.00  0.00    -0.370 N 
ATOM     28  N   UNL     1      -0.617   1.548  -0.424  0.00  0.00    -0.249 N 
ATOM     29  H   UNL     1      -2.092   3.608  -0.878  0.00  0.00    +0.159 HD
ATOM     30  H   UNL     1      -3.466   2.796  -1.401  0.00  0.00    +0.159 HD
ATOM     31  H   UNL     1      -0.154   2.379  -0.232  0.00  0.00    +0.192 HD
ATOM     32  N   UNL     1      -2.488   0.406  -1.137  0.00  0.00    -0.370 N 
ATOM     33  H   UNL     1      -1.967  -0.465  -0.983  0.00  0.00    +0.159 HD
ENDBRANCH  22  28
ENDBRANCH  21  23
BRANCH  21  34
ATOM     34  C   UNL     1       1.062  -2.153  -0.135  0.00  0.00    -0.069 C 
BRANCH  34  37
ATOM     35  C   UNL     1       2.189  -2.219  -2.277  0.00  0.00    -0.097 C 
ATOM     36  C   UNL     1      -0.117  -2.937  -2.100  0.00  0.00    -0.097 C 
ATOM     37  N   UNL     1       0.898  -1.988  -1.595  0.00  0.00    +0.376 N 
ATOM     38  H   UNL     1       0.585  -1.030  -1.789  0.00  0.00    -0.083 HD
ENDBRANCH  34  37
ENDBRANCH  21  34
ENDBRANCH   1  21
TORSDOF 8
