REMARK  Name = ZINC62521001
REMARK  2 active torsions:
REMARK  status: ('A' for Active; 'I' for Inactive)
REMARK    1  A    between atoms: C_8  and  C_13
REMARK    2  A    between atoms: C_14  and  C_15
REMARK                            x       y       z     vdW  Elec       q    Type
REMARK                         _______ _______ _______ _____ _____    ______ ____
ROOT
ATOM      1  C   UNL     1       1.379  -6.460  -0.045  0.00  0.00    +0.018 C 
ATOM      2  C   UNL     1       2.577  -7.080   0.045  0.00  0.00    +0.068 C 
ENDROOT
BRANCH   1  10
ATOM      3  C   UNL     1      -4.657  -7.560   0.035  0.00  0.00    +0.001 A 
ATOM      4  C   UNL     1      -4.567  -8.946   0.015  0.00  0.00    +0.002 A 
ATOM      5  C   UNL     1      -3.340  -9.571  -0.013  0.00  0.00    +0.026 A 
ATOM      6  C   UNL     1      -2.173  -8.810  -0.020  0.00  0.00    +0.049 A 
ATOM      7  C   UNL     1      -2.266  -7.405   0.000  0.00  0.00    -0.001 A 
ATOM      8  C   UNL     1      -3.529  -6.793   0.029  0.00  0.00    +0.010 A 
ATOM      9  C   UNL     1      -1.091  -6.617  -0.008  0.00  0.00    +0.023 A 
ATOM     10  C   UNL     1       0.142  -7.248  -0.035  0.00  0.00    +0.040 A 
ATOM     11  C   UNL     1       0.196  -8.716  -0.056  0.00  0.00    +0.256 A 
ATOM     12  O   UNL     1       1.272  -9.284  -0.081  0.00  0.00    -0.267 OA
ATOM     13  N   UNL     1      -0.943  -9.433  -0.048  0.00  0.00    -0.322 N 
ATOM     14  H   UNL     1      -0.898 -10.402  -0.062  0.00  0.00    +0.169 HD
ENDBRANCH   1  10
BRANCH   2  15
ATOM     15  C   UNL     1       3.803  -6.291   0.147  0.00  0.00    +0.240 C 
ATOM     16  O   UNL     1       3.740  -5.080   0.245  0.00  0.00    -0.271 OA
ATOM     17  N   UNL     1       5.002  -6.905   0.132  0.00  0.00    -0.290 N 
ATOM     18  C   UNL     1       6.254  -6.132   0.130  0.00  0.00    +0.136 C 
ATOM     19  C   UNL     1       7.144  -6.644  -1.009  0.00  0.00    +0.179 C 
ATOM     20  O   UNL     1       7.270  -8.065  -0.911  0.00  0.00    -0.373 OA
ATOM     21  C   UNL     1       6.034  -8.767  -1.037  0.00  0.00    +0.139 C 
ATOM     22  C   UNL     1       5.107  -8.377   0.125  0.00  0.00    +0.105 C 
ATOM     23  C   UNL     1       5.727  -8.821   1.452  0.00  0.00    +0.025 C 
ATOM     24  C   UNL     1       5.940 -10.335   1.443  0.00  0.00    +0.002 C 
ATOM     25  C   UNL     1       6.892 -10.705   0.303  0.00  0.00    +0.003 C 
ATOM     26  C   UNL     1       6.272 -10.273  -1.026  0.00  0.00    +0.033 C 
ENDBRANCH   2  15
TORSDOF 2
