REMARK  Name = ZINC08961948
REMARK  4 active torsions:
REMARK  status: ('A' for Active; 'I' for Inactive)
REMARK    1  A    between atoms: C_1  and  C_2
REMARK    2  A    between atoms: C_10  and  N_15
REMARK    3  A    between atoms: N_15  and  S_16
REMARK    4  A    between atoms: S_16  and  C_19
REMARK                            x       y       z     vdW  Elec       q    Type
REMARK                         _______ _______ _______ _____ _____    ______ ____
ROOT
ATOM      1  C   UNL     1      -2.447   0.077   2.228  0.00  0.00    +0.053 C 
ATOM      2  C   UNL     1      -3.120   1.058   1.266  0.00  0.00    +0.187 C 
ATOM      3  C   UNL     1      -3.164   2.436   1.912  0.00  0.00    +0.148 C 
ATOM      4  N   UNL     1      -3.482   3.465   0.920  0.00  0.00    -0.308 N 
ATOM      5  C   UNL     1      -2.534   3.856   0.036  0.00  0.00    +0.248 C 
ATOM      6  O   UNL     1      -2.748   4.770  -0.737  0.00  0.00    -0.270 OA
ATOM      7  C   UNL     1      -1.236   3.155   0.028  0.00  0.00    +0.080 A 
ATOM      8  C   UNL     1      -0.035   3.863   0.021  0.00  0.00    +0.041 A 
ATOM      9  C   UNL     1       1.166   3.173   0.007  0.00  0.00    +0.049 A 
ATOM     10  C   UNL     1       1.174   1.782   0.000  0.00  0.00    +0.028 A 
ATOM     11  C   UNL     1      -0.013   1.076   0.008  0.00  0.00    +0.048 A 
ATOM     12  C   UNL     1      -1.221   1.752   0.017  0.00  0.00    +0.133 A 
ATOM     13  O   UNL     1      -2.399   1.076   0.041  0.00  0.00    -0.487 OA
ATOM     14  H   UNL     1      -4.366   3.863   0.896  0.00  0.00    +0.149 HD
ENDROOT
BRANCH   9  15
ATOM     15  N   UNL     1       2.375   3.878   0.001  0.00  0.00    -0.216 N 
ATOM     16  H   UNL     1       2.500   4.633   0.598  0.00  0.00    +0.174 HD
BRANCH  15  17
ATOM     17  S   UNL     1       3.593   3.424  -1.025  0.00  0.00    +0.079 S 
ATOM     18  O   UNL     1       4.662   4.337  -0.815  0.00  0.00    -0.149 OA
ATOM     19  O   UNL     1       3.749   2.020  -0.873  0.00  0.00    -0.149 OA
BRANCH  17  20
ATOM     20  C   UNL     1       3.017   3.692  -2.668  0.00  0.00    +0.147 A 
ATOM     21  C   UNL     1       3.119   4.803  -3.438  0.00  0.00    +0.038 A 
ATOM     22  C   UNL     1       2.591   4.785  -4.715  0.00  0.00    +0.030 A 
ATOM     23  C   UNL     1       1.976   3.659  -5.156  0.00  0.00    +0.080 A 
ATOM     24  S   UNL     1       2.141   2.573  -3.749  0.00  0.00    -0.057 S 
ATOM     25 CL   UNL     1       1.225   3.353  -6.691  0.00  0.00    -0.076 Cl
ENDBRANCH  17  20
ENDBRANCH  15  17
ENDBRANCH   9  15
TORSDOF 3
