REMARK  Name = ZINC21887916
REMARK  8 active torsions:
REMARK  status: ('A' for Active; 'I' for Inactive)
REMARK    1  A    between atoms: C_1  and  C_2
REMARK    2  A    between atoms: C_2  and  C_3
REMARK    3  A    between atoms: C_2  and  C_4
REMARK    4  A    between atoms: C_4  and  C_6
REMARK    5  A    between atoms: C_4  and  N_16
REMARK    6  A    between atoms: N_8  and  C_9
REMARK    7  A    between atoms: N_16  and  S_17
REMARK    8  A    between atoms: S_17  and  C_20
REMARK                            x       y       z     vdW  Elec       q    Type
REMARK                         _______ _______ _______ _____ _____    ______ ____
ROOT
ATOM      1  N   UNL     1       5.380  -0.546  -1.013  0.00  0.00    -0.178 NA
ATOM      2  H   UNL     1       5.067  -1.551  -0.693  0.00  0.00    +0.149 HD
ENDROOT
BRANCH   1   3
ATOM      3  S   UNL     1       6.159   0.440   0.066  0.00  0.00    +0.059 S 
ATOM      4  O   UNL     1       7.214   1.069  -0.648  0.00  0.00    -0.153 OA
ATOM      5  O   UNL     1       6.386  -0.336   1.234  0.00  0.00    -0.153 OA
BRANCH   3   6
ATOM      6  C   UNL     1       5.027   1.712   0.518  0.00  0.00    +0.106 A 
ATOM      7  C   UNL     1       5.048   2.930  -0.138  0.00  0.00    +0.030 A 
ATOM      8  C   UNL     1       4.163   3.913   0.230  0.00  0.00    +0.025 A 
ATOM      9  C   UNL     1       3.232   3.712   1.264  0.00  0.00    +0.037 A 
ATOM     10  C   UNL     1       3.209   2.494   1.908  0.00  0.00    -0.024 A 
ATOM     11  C   UNL     1       4.116   1.504   1.528  0.00  0.00    +0.034 A 
ATOM     12  C   UNL     1       2.268   2.118   3.005  0.00  0.00    +0.037 C 
ATOM     13  C   UNL     1       0.883   2.675   2.894  0.00  0.00    +0.014 C 
ATOM     14  C   UNL     1       0.784   4.127   3.298  0.00  0.00    +0.096 C 
ATOM     15  C   UNL     1       1.381   5.028   2.277  0.00  0.00    +0.217 C 
ATOM     16  O   UNL     1       0.833   6.097   2.114  0.00  0.00    -0.275 OA
ATOM     17  N   UNL     1       2.429   4.796   1.538  0.00  0.00    -0.285 N 
ATOM     18  H   UNL     1       2.635   5.767   1.065  0.00  0.00    +0.155 HD
ENDBRANCH   3   6
ENDBRANCH   1   3
BRANCH   1  19
ATOM     19  C   UNL     1       4.923  -0.011  -2.297  0.00  0.00    +0.165 C 
BRANCH  19  20
ATOM     20  C   UNL     1       5.952  -0.302  -3.359  0.00  0.00    +0.236 C 
ATOM     21  O   UNL     1       6.737  -1.215  -3.208  0.00  0.00    -0.274 OA
ATOM     22  N   UNL     1       6.001   0.451  -4.475  0.00  0.00    -0.284 N 
ATOM     23  H   UNL     1       5.364   1.343  -4.566  0.00  0.00    +0.155 HD
BRANCH  22  24
ATOM     24  C   UNL     1       6.863   0.098  -5.520  0.00  0.00    +0.034 A 
ATOM     25  C   UNL     1       7.167  -1.238  -5.751  0.00  0.00    +0.025 A 
ATOM     26  C   UNL     1       8.014  -1.583  -6.785  0.00  0.00    +0.022 A 
ATOM     27  C   UNL     1       8.568  -0.600  -7.586  0.00  0.00    +0.041 A 
ATOM     28  C   UNL     1       8.271   0.732  -7.355  0.00  0.00    +0.022 A 
ATOM     29  C   UNL     1       7.421   1.083  -6.325  0.00  0.00    +0.025 A 
ATOM     30 CL   UNL     1       9.637  -1.037  -8.882  0.00  0.00    -0.084 Cl
ENDBRANCH  22  24
ENDBRANCH  19  20
BRANCH  19  32
ATOM     31  C   UNL     1       3.757  -2.189  -2.668  0.00  0.00    +0.009 C 
ATOM     32  C   UNL     1       3.595  -0.667  -2.680  0.00  0.00    +0.010 C 
ATOM     33  C   UNL     1       2.516  -0.261  -1.675  0.00  0.00    +0.009 C 
ENDBRANCH  19  32
ENDBRANCH   1  19
TORSDOF 6
