REMARK  Name = ZINC01329196
REMARK  5 active torsions:
REMARK  status: ('A' for Active; 'I' for Inactive)
REMARK    1  A    between atoms: C_5  and  C_11
REMARK    2  A    between atoms: C_11  and  C_13
REMARK    3  A    between atoms: C_11  and  N_24
REMARK    4  A    between atoms: N_17  and  C_18
REMARK    5  A    between atoms: C_27  and  O_30
REMARK                            x       y       z     vdW  Elec       q    Type
REMARK                         _______ _______ _______ _____ _____    ______ ____
ROOT
ATOM      1  C   UNL     1       6.087   1.964  -0.044  0.00  0.00    +0.033 C 
ENDROOT
BRANCH   1   6
ATOM      2  C   UNL     1      -0.017   1.389   0.010  0.00  0.00    +0.020 A 
ATOM      3  C   UNL     1       1.158   2.087   0.002  0.00  0.00    +0.011 A 
ATOM      4  C   UNL     1       2.362   1.359  -0.013  0.00  0.00    +0.001 A 
ATOM      5  C   UNL     1       3.608   2.007  -0.021  0.00  0.00    +0.012 A 
ATOM      6  C   UNL     1       4.751   1.267  -0.035  0.00  0.00    -0.053 A 
ATOM      7  C   UNL     1       4.701  -0.125  -0.043  0.00  0.00    +0.004 A 
ATOM      8  C   UNL     1       3.512  -0.786  -0.036  0.00  0.00    +0.028 A 
ATOM      9  C   UNL     1       2.309  -0.057  -0.020  0.00  0.00    +0.071 A 
ATOM     10  N   UNL     1       1.126  -0.679  -0.012  0.00  0.00    -0.255 NA
ATOM     11  C   UNL     1       0.002  -0.004   0.002  0.00  0.00    +0.111 A 
ENDBRANCH   1   6
BRANCH   1  12
ATOM     12  N   UNL     1       7.020   1.245   0.834  0.00  0.00    +0.389 N 
ATOM     13  C   UNL     1       8.323   1.919   0.818  0.00  0.00    -0.075 C 
ATOM     14  C   UNL     1       9.322   1.128   1.666  0.00  0.00    +0.013 C 
ATOM     15  C   UNL     1       8.806   1.045   3.106  0.00  0.00    +0.111 C 
ATOM     16  C   UNL     1       7.414   0.407   3.103  0.00  0.00    +0.013 C 
ATOM     17  C   UNL     1       6.486   1.225   2.201  0.00  0.00    -0.075 C 
ATOM     18  H   UNL     1       7.129   0.298   0.503  0.00  0.00    -0.080 HD
BRANCH  15  19
ATOM     19  O   UNL     1       9.696   0.245   3.887  0.00  0.00    -0.392 OA
ATOM     20  H   UNL     1       9.430   0.150   4.812  0.00  0.00    +0.210 HD
ENDBRANCH  15  19
ENDBRANCH   1  12
BRANCH   1  21
ATOM     21  C   UNL     1       6.634   1.985  -1.448  0.00  0.00    +0.143 A 
ATOM     22  N   UNL     1       7.155   0.975  -2.100  0.00  0.00    -0.115 NA
ATOM     23  N   UNL     1       7.505   1.392  -3.268  0.00  0.00    -0.023 NA
ATOM     24  N   UNL     1       7.219   2.643  -3.378  0.00  0.00    -0.044 NA
ATOM     25  N   UNL     1       6.676   3.044  -2.278  0.00  0.00    -0.227 N 
BRANCH  25  26
ATOM     26  C   UNL     1       6.198   4.397  -1.987  0.00  0.00    +0.111 C 
ATOM     27  C   UNL     1       5.106   4.779  -2.988  0.00  0.00    +0.027 C 
ATOM     28  C   UNL     1       4.607   6.193  -2.683  0.00  0.00    +0.002 C 
ATOM     29  C   UNL     1       5.770   7.180  -2.797  0.00  0.00    +0.000 C 
ATOM     30  C   UNL     1       6.863   6.798  -1.797  0.00  0.00    +0.002 C 
ATOM     31  C   UNL     1       7.362   5.385  -2.101  0.00  0.00    +0.027 C 
ENDBRANCH  25  26
ENDBRANCH   1  21
TORSDOF 5
