REMARK  Name = ZINC07718977
REMARK  6 active torsions:
REMARK  status: ('A' for Active; 'I' for Inactive)
REMARK    1  A    between atoms: C_1  and  C_2
REMARK    2  A    between atoms: C_2  and  C_4
REMARK    3  A    between atoms: C_2  and  N_10
REMARK    4  A    between atoms: C_12  and  C_17
REMARK    5  A    between atoms: N_19  and  C_20
REMARK    6  A    between atoms: C_23  and  N_26
REMARK                            x       y       z     vdW  Elec       q    Type
REMARK                         _______ _______ _______ _____ _____    ______ ____
ROOT
ATOM      1  C   UNL     1      -2.778   7.447   3.689  0.00  0.00    +0.222 C 
ATOM      2  O   UNL     1      -1.888   7.260   4.492  0.00  0.00    -0.275 OA
ATOM      3  N   UNL     1      -4.005   7.807   4.114  0.00  0.00    -0.285 N 
ATOM      4  H   UNL     1      -4.737   7.874   3.481  0.00  0.00    +0.155 HD
ENDROOT
BRANCH   1   7
ATOM      5  N   UNL     1      -1.220   5.807   0.825  0.00  0.00    -0.294 N 
ATOM      6  C   UNL     1      -1.091   6.708   1.977  0.00  0.00    +0.121 C 
ATOM      7  C   UNL     1      -2.511   7.275   2.216  0.00  0.00    +0.101 C 
ATOM      8  C   UNL     1      -3.398   6.158   1.619  0.00  0.00    +0.110 C 
ATOM      9  C   UNL     1      -2.504   5.474   0.607  0.00  0.00    +0.217 C 
ATOM     10  O   UNL     1      -2.890   4.734  -0.273  0.00  0.00    -0.276 OA
BRANCH   5  12
ATOM     11  C   UNL     1      -0.219   5.867  -1.405  0.00  0.00    +0.033 C 
ATOM     12  C   UNL     1      -0.094   5.328   0.021  0.00  0.00    +0.103 C 
BRANCH  12  13
ATOM     13  C   UNL     1      -0.104   3.821  -0.010  0.00  0.00    -0.027 A 
ATOM     14  C   UNL     1       0.200   3.151  -1.180  0.00  0.00    +0.005 A 
ATOM     15  C   UNL     1       0.191   1.769  -1.208  0.00  0.00    +0.000 A 
ATOM     16  C   UNL     1      -0.122   1.057  -0.066  0.00  0.00    +0.000 A 
ATOM     17  C   UNL     1      -0.431   1.727   1.104  0.00  0.00    +0.000 A 
ATOM     18  C   UNL     1      -0.418   3.109   1.133  0.00  0.00    +0.005 A 
ENDBRANCH  12  13
ENDBRANCH   5  12
ENDBRANCH   1   7
BRANCH   3  19
ATOM     19  C   UNL     1      -4.223   8.086   5.468  0.00  0.00    +0.034 A 
ATOM     20  C   UNL     1      -5.491   7.933   6.013  0.00  0.00    +0.025 A 
ATOM     21  C   UNL     1      -5.705   8.203   7.349  0.00  0.00    +0.030 A 
ATOM     22  C   UNL     1      -4.654   8.638   8.147  0.00  0.00    +0.069 A 
ATOM     23  C   UNL     1      -3.387   8.795   7.601  0.00  0.00    +0.030 A 
ATOM     24  C   UNL     1      -3.172   8.521   6.266  0.00  0.00    +0.025 A 
BRANCH  22  25
ATOM     25  N   UNL     1      -4.873   8.918   9.504  0.00  0.00    -0.200 N 
ATOM     26  C   UNL     1      -6.035   8.818  10.185  0.00  0.00    +0.250 A 
ATOM     27  N   UNL     1      -5.793   9.174  11.420  0.00  0.00    -0.116 NA
ATOM     28  N   UNL     1      -4.558   9.492  11.566  0.00  0.00    -0.023 NA
ATOM     29  N   UNL     1      -3.929   9.358  10.448  0.00  0.00    -0.039 NA
ENDBRANCH  22  25
ENDBRANCH   3  19
TORSDOF 5
