REMARK  Name = ZINC04729867
REMARK  10 active torsions:
REMARK  status: ('A' for Active; 'I' for Inactive)
REMARK    1  A    between atoms: C_1  and  C_2
REMARK    2  A    between atoms: C_2  and  C_3
REMARK    3  A    between atoms: C_3  and  C_4
REMARK    4  A    between atoms: C_4  and  C_5
REMARK    5  A    between atoms: C_5  and  C_6
REMARK    6  A    between atoms: C_6  and  C_7
REMARK    7  A    between atoms: C_7  and  C_30
REMARK    8  A    between atoms: C_9  and  C_23
REMARK    9  A    between atoms: C_12  and  C_14
REMARK   10  A    between atoms: C_28  and  O_29
REMARK                            x       y       z     vdW  Elec       q    Type
REMARK                         _______ _______ _______ _____ _____    ______ ____
ROOT
ATOM      1  C   UNL     1       2.264  -4.584   3.704  0.00  0.00    +0.026 C 
ATOM      2  N   UNL     1       2.252  -6.051   3.707  0.00  0.00    +0.400 N 
ATOM      3  C   UNL     1       3.079  -6.537   2.590  0.00  0.00    -0.028 C 
ATOM      4  C   UNL     1       4.543  -6.205   2.897  0.00  0.00    +0.044 C 
ATOM      5  C   UNL     1       4.647  -4.769   3.333  0.00  0.00    +0.040 C 
ATOM      6  N   UNL     1       3.630  -4.077   3.688  0.00  0.00    -0.300 NA
ATOM      7  C   UNL     1       1.552  -4.074   4.958  0.00  0.00    +0.014 C 
ATOM      8  H   UNL     1       2.628  -6.390   4.579  0.00  0.00    -0.081 HD
ATOM      9  H   UNL     1       1.305  -6.382   3.594  0.00  0.00    -0.081 HD
ENDROOT
BRANCH   5  10
ATOM     10  C   UNL     1       5.977  -4.133   3.353  0.00  0.00    -0.001 A 
ATOM     11  C   UNL     1       7.107  -4.858   2.966  0.00  0.00    +0.013 A 
ATOM     12  C   UNL     1       8.349  -4.260   2.985  0.00  0.00    +0.050 A 
ATOM     13  C   UNL     1       8.482  -2.938   3.388  0.00  0.00    +0.166 A 
ATOM     14  C   UNL     1       7.358  -2.209   3.775  0.00  0.00    +0.167 A 
ATOM     15  C   UNL     1       6.109  -2.800   3.752  0.00  0.00    +0.059 A 
ATOM     16  O   UNL     1       7.755  -0.949   4.121  0.00  0.00    -0.453 OA
ATOM     17  C   UNL     1       9.176  -1.039   4.334  0.00  0.00    +0.466 C 
ATOM     18  O   UNL     1       9.579  -2.135   3.492  0.00  0.00    -0.453 OA
ENDBRANCH   5  10
BRANCH   3  19
ATOM     19  C   UNL     1       2.915  -8.029   2.448  0.00  0.00    -0.019 A 
ATOM     20  C   UNL     1       2.432  -8.775   3.505  0.00  0.00    +0.005 A 
ATOM     21  C   UNL     1       2.282 -10.143   3.376  0.00  0.00    +0.000 A 
ATOM     22  C   UNL     1       2.614 -10.768   2.188  0.00  0.00    +0.004 A 
ATOM     23  C   UNL     1       3.096 -10.026   1.127  0.00  0.00    +0.045 A 
ATOM     24  C   UNL     1       3.244  -8.652   1.253  0.00  0.00    +0.118 A 
BRANCH  24  25
ATOM     25  O   UNL     1       3.713  -7.920   0.209  0.00  0.00    -0.507 OA
ATOM     26  H   UNL     1       4.676  -7.826   0.196  0.00  0.00    +0.292 HD
ENDBRANCH  24  25
ENDBRANCH   3  19
BRANCH   1  27
ATOM     27  C   UNL     1       1.524  -4.077   2.464  0.00  0.00    +0.010 C 
BRANCH  27  28
ATOM     28  C   UNL     1       1.503  -2.548   2.473  0.00  0.00    +0.000 C 
BRANCH  28  29
ATOM     29  C   UNL     1       0.763  -2.041   1.233  0.00  0.00    -0.000 C 
BRANCH  29  30
ATOM     30  C   UNL     1       0.742  -0.511   1.242  0.00  0.00    -0.000 C 
BRANCH  30  32
ATOM     31  C   UNL     1      -0.019   1.526   0.010  0.00  0.00    +0.004 C 
ATOM     32  C   UNL     1       0.002  -0.004   0.002  0.00  0.00    -0.003 C 
ENDBRANCH  30  32
ENDBRANCH  29  30
ENDBRANCH  28  29
ENDBRANCH  27  28
ENDBRANCH   1  27
TORSDOF 8
