REMARK  Name = ZINC13201071
REMARK  9 active torsions:
REMARK  status: ('A' for Active; 'I' for Inactive)
REMARK    1  A    between atoms: C_1  and  C_2
REMARK    2  A    between atoms: C_2  and  N_3
REMARK    3  A    between atoms: C_9  and  C_30
REMARK    4  A    between atoms: C_13  and  S_14
REMARK    5  A    between atoms: S_14  and  C_15
REMARK    6  A    between atoms: C_15  and  C_16
REMARK    7  A    between atoms: N_18  and  C_19
REMARK    8  A    between atoms: C_24  and  C_29
REMARK    9  A    between atoms: C_26  and  C_28
REMARK                            x       y       z     vdW  Elec       q    Type
REMARK                         _______ _______ _______ _____ _____    ______ ____
ROOT
ATOM      1  N   UNL     1       1.157  -0.733  -0.013  0.00  0.00    -0.288 N 
ATOM      2  C   UNL     1       2.360  -0.115  -0.021  0.00  0.00    +0.262 A 
ATOM      3  O   UNL     1       3.397  -0.753  -0.035  0.00  0.00    -0.267 OA
ATOM      4  C   UNL     1       2.370   1.357  -0.013  0.00  0.00    +0.065 A 
ATOM      5  C   UNL     1       3.562   2.080  -0.021  0.00  0.00    +0.016 A 
ATOM      6  C   UNL     1       3.529   3.445  -0.013  0.00  0.00    +0.016 A 
ATOM      7  C   UNL     1       2.306   4.129   0.003  0.00  0.00    +0.065 A 
ATOM      8  C   UNL     1       1.107   3.428   0.011  0.00  0.00    +0.043 A 
ATOM      9  C   UNL     1       1.128   2.030   0.002  0.00  0.00    +0.080 A 
ATOM     10  N   UNL     1      -0.016   1.306   0.009  0.00  0.00    -0.223 NA
ATOM     11  C   UNL     1       0.002  -0.004   0.002  0.00  0.00    +0.173 A 
ENDROOT
BRANCH   7  12
ATOM     12  C   UNL     1       2.292   5.609   0.011  0.00  0.00    +0.387 C 
ATOM     13  O   UNL     1       1.234   6.205   0.025  0.00  0.00    -0.241 OA
ATOM     14  O   UNL     1       3.452   6.293   0.002  0.00  0.00    -0.241 OA
ENDBRANCH   7  12
BRANCH   1  16
ATOM     15  C   UNL     1       1.055  -2.698  -1.467  0.00  0.00    +0.027 C 
ATOM     16  C   UNL     1       1.091  -2.197  -0.022  0.00  0.00    +0.124 C 
ENDBRANCH   1  16
BRANCH  11  17
ATOM     17  S   UNL     1      -1.535  -0.865   0.012  0.00  0.00    -0.078 S 
BRANCH  17  18
ATOM     18  C   UNL     1      -2.680   0.537   0.030  0.00  0.00    +0.173 C 
BRANCH  18  19
ATOM     19  C   UNL     1      -4.098   0.027   0.041  0.00  0.00    +0.224 C 
ATOM     20  O   UNL     1      -4.314  -1.167   0.037  0.00  0.00    -0.275 OA
ATOM     21  N   UNL     1      -5.127   0.897   0.056  0.00  0.00    -0.312 N 
ATOM     22  H   UNL     1      -4.955   1.851   0.059  0.00  0.00    +0.149 HD
BRANCH  21  23
ATOM     23  C   UNL     1      -6.506   0.401   0.066  0.00  0.00    +0.076 C 
ATOM     24  C   UNL     1      -6.930   0.102   1.506  0.00  0.00    +0.022 C 
ATOM     25  C   UNL     1      -8.369  -0.415   1.517  0.00  0.00    +0.002 C 
ATOM     26  C   UNL     1      -9.297   0.646   0.922  0.00  0.00    +0.003 C 
ATOM     27  C   UNL     1      -8.874   0.944  -0.518  0.00  0.00    -0.009 C 
ATOM     28  C   UNL     1      -7.434   1.462  -0.529  0.00  0.00    +0.009 C 
ATOM     29  C   UNL     1      -7.010   1.760  -1.968  0.00  0.00    +0.009 C 
ATOM     30  C   UNL     1      -8.962  -0.336  -1.351  0.00  0.00    +0.008 C 
ENDBRANCH  21  23
ENDBRANCH  18  19
ENDBRANCH  17  18
ENDBRANCH  11  17
TORSDOF 6
