REMARK  Name = ZINC39601290
REMARK  10 active torsions:
REMARK  status: ('A' for Active; 'I' for Inactive)
REMARK    1  A    between atoms: C_1  and  C_2
REMARK    2  A    between atoms: C_2  and  C_3
REMARK    3  A    between atoms: C_2  and  C_4
REMARK    4  A    between atoms: C_4  and  C_5
REMARK    5  A    between atoms: C_5  and  N_6
REMARK    6  A    between atoms: C_7  and  C_9
REMARK    7  A    between atoms: C_20  and  C_22
REMARK    8  A    between atoms: C_25  and  O_32
REMARK    9  A    between atoms: C_26  and  C_28
REMARK   10  A    between atoms: O_32  and  C_33
REMARK                            x       y       z     vdW  Elec       q    Type
REMARK                         _______ _______ _______ _____ _____    ______ ____
ROOT
ATOM      1  C   UNL     1      -5.118  -4.390  -0.160  0.00  0.00    +0.100 C 
ATOM      2  C   UNL     1      -5.612  -3.683  -1.442  0.00  0.00    +0.121 C 
ATOM      3  N   UNL     1      -5.445  -4.692  -2.514  0.00  0.00    -0.296 N 
ATOM      4  C   UNL     1      -5.846  -5.972  -1.882  0.00  0.00    +0.115 C 
ATOM      5  C   UNL     1      -5.276  -5.892  -0.452  0.00  0.00    -0.004 C 
ATOM      6  C   UNL     1      -3.920  -6.589  -0.386  0.00  0.00    -0.010 C 
ATOM      7  C   UNL     1      -4.110  -8.089  -0.623  0.00  0.00    -0.082 C 
ATOM      8  N   UNL     1      -5.014  -8.637   0.396  0.00  0.00    +0.379 N 
ATOM      9  C   UNL     1      -6.344  -8.028   0.265  0.00  0.00    -0.082 C 
ATOM     10  C   UNL     1      -6.247  -6.524   0.540  0.00  0.00    -0.010 C 
ATOM     11  C   UNL     1      -5.025  -4.491  -3.779  0.00  0.00    +0.247 C 
ATOM     12  O   UNL     1      -4.610  -3.399  -4.115  0.00  0.00    -0.270 OA
ATOM     13  H   UNL     1      -5.090  -9.636   0.274  0.00  0.00    -0.086 HD
ATOM     14  H   UNL     1      -4.644  -8.439   1.313  0.00  0.00    -0.086 HD
ENDROOT
BRANCH  11  15
ATOM     15  C   UNL     1      -5.067  -5.597  -4.755  0.00  0.00    +0.038 A 
ATOM     16  C   UNL     1      -5.915  -6.688  -4.542  0.00  0.00    +0.016 A 
ATOM     17  C   UNL     1      -5.952  -7.717  -5.455  0.00  0.00    +0.047 A 
ATOM     18  C   UNL     1      -5.149  -7.673  -6.588  0.00  0.00    +0.132 A 
ATOM     19  C   UNL     1      -4.304  -6.591  -6.804  0.00  0.00    +0.097 A 
ATOM     20  C   UNL     1      -4.265  -5.554  -5.898  0.00  0.00    +0.029 A 
BRANCH  19  21
ATOM     21  C   UNL     1      -3.435  -6.548  -8.034  0.00  0.00    +0.421 C 
ATOM     22  F   UNL     1      -2.679  -5.370  -8.031  0.00  0.00    -0.166 F 
ATOM     23  F   UNL     1      -2.576  -7.652  -8.037  0.00  0.00    -0.166 F 
ATOM     24  F   UNL     1      -4.241  -6.582  -9.177  0.00  0.00    -0.166 F 
ENDBRANCH  19  21
BRANCH  18  25
ATOM     25  O   UNL     1      -5.188  -8.690  -7.486  0.00  0.00    -0.495 OA
ATOM     26  C   UNL     1      -6.077  -9.772  -7.202  0.00  0.00    +0.277 C 
ENDBRANCH  18  25
ENDBRANCH  11  15
BRANCH   1  28
ATOM     27  N   UNL     1      -3.173  -4.145   1.348  0.00  0.00    -0.315 N 
ATOM     28  C   UNL     1      -3.672  -4.056   0.100  0.00  0.00    +0.218 C 
ATOM     29  O   UNL     1      -2.957  -3.705  -0.815  0.00  0.00    -0.275 OA
ATOM     30  H   UNL     1      -3.744  -4.425   2.080  0.00  0.00    +0.149 HD
BRANCH  27  31
ATOM     31  C   UNL     1      -1.767  -3.820   1.601  0.00  0.00    +0.104 C 
BRANCH  31  32
ATOM     32  C   UNL     1      -1.460  -4.002   3.088  0.00  0.00    +0.022 C 
BRANCH  32  34
ATOM     33  C   UNL     1       0.284  -3.724   4.856  0.00  0.00    +0.007 C 
ATOM     34  C   UNL     1       0.008  -3.662   3.352  0.00  0.00    -0.016 C 
ATOM     35  C   UNL     1       0.903  -4.670   2.627  0.00  0.00    +0.007 C 
ENDBRANCH  32  34
ENDBRANCH  31  32
ENDBRANCH  27  31
ENDBRANCH   1  28
TORSDOF 7
