REMARK  Name = ZINC09970396
REMARK  13 active torsions:
REMARK  status: ('A' for Active; 'I' for Inactive)
REMARK    1  A    between atoms: C_1  and  C_2
REMARK    2  A    between atoms: C_11  and  O_13
REMARK    3  A    between atoms: O_13  and  C_14
REMARK    4  A    between atoms: C_14  and  C_29
REMARK    5  A    between atoms: C_15  and  C_27
REMARK    6  A    between atoms: C_15  and  O_28
REMARK    7  A    between atoms: C_16  and  C_25
REMARK    8  A    between atoms: C_16  and  O_26
REMARK    9  A    between atoms: C_17  and  C_23
REMARK   10  A    between atoms: C_17  and  O_24
REMARK   11  A    between atoms: C_18  and  C_20
REMARK   12  A    between atoms: C_18  and  C_21
REMARK   13  A    between atoms: C_21  and  O_22
REMARK                            x       y       z     vdW  Elec       q    Type
REMARK                         _______ _______ _______ _____ _____    ______ ____
ROOT
ATOM      1  C   UNL     1       2.519   3.733   0.233  0.00  0.00    +0.242 C 
ATOM      2  C   UNL     1       2.288   5.224   0.490  0.00  0.00    +0.159 C 
ATOM      3  C   UNL     1       1.575   5.838  -0.719  0.00  0.00    +0.129 C 
ATOM      4  C   UNL     1       2.416   5.588  -1.975  0.00  0.00    +0.125 C 
ATOM      5  C   UNL     1       2.643   4.082  -2.136  0.00  0.00    +0.125 C 
ATOM      6  O   UNL     1       3.281   3.570  -0.965  0.00  0.00    -0.326 OA
ATOM      7  C   UNL     1       1.297   3.382  -2.332  0.00  0.00    +0.047 C 
ATOM      8  C   UNL     1       3.765   6.296  -1.837  0.00  0.00    +0.047 C 
ATOM      9  C   UNL     1       1.409   7.344  -0.506  0.00  0.00    +0.047 C 
ATOM     10  C   UNL     1       1.420   5.399   1.738  0.00  0.00    +0.051 C 
ATOM     11  C   UNL     1       3.284   3.125   1.411  0.00  0.00    +0.092 C 
ENDROOT
BRANCH   4  12
ATOM     12  O   UNL     1       1.727   6.092  -3.120  0.00  0.00    -0.383 OA
ATOM     13  H   UNL     1       2.201   5.963  -3.953  0.00  0.00    +0.210 HD
ENDBRANCH   4  12
BRANCH   3  14
ATOM     14  O   UNL     1       0.290   5.233  -0.877  0.00  0.00    -0.383 OA
ATOM     15  H   UNL     1      -0.297   5.352  -0.117  0.00  0.00    +0.210 HD
ENDBRANCH   3  14
BRANCH   2  16
ATOM     16  O   UNL     1       3.544   5.876   0.685  0.00  0.00    -0.379 OA
ATOM     17  H   UNL     1       4.053   5.534   1.433  0.00  0.00    +0.211 HD
ENDBRANCH   2  16
BRANCH   1  18
ATOM     18  O   UNL     1       1.260   3.073   0.091  0.00  0.00    -0.458 OA
BRANCH  18  29
ATOM     19  C   UNL     1       2.683  -3.129  -1.254  0.00  0.00    +0.045 C 
ATOM     20  C   UNL     1       1.385  -2.406  -1.001  0.00  0.00    -0.033 A 
ATOM     21  C   UNL     1       0.200  -3.069  -1.032  0.00  0.00    +0.096 A 
ATOM     22  C   UNL     1      -1.002  -2.370  -0.792  0.00  0.00    +0.337 A 
ATOM     23  O   UNL     1      -2.057  -2.977  -0.823  0.00  0.00    -0.245 OA
ATOM     24  O   UNL     1      -1.012  -1.054  -0.532  0.00  0.00    -0.422 OA
ATOM     25  C   UNL     1       0.131  -0.336  -0.487  0.00  0.00    +0.143 A 
ATOM     26  C   UNL     1       1.367  -0.970  -0.716  0.00  0.00    +0.021 A 
ATOM     27  C   UNL     1       2.553  -0.229  -0.670  0.00  0.00    +0.015 A 
ATOM     28  C   UNL     1       2.508   1.108  -0.402  0.00  0.00    +0.046 A 
ATOM     29  C   UNL     1       1.288   1.742  -0.174  0.00  0.00    +0.128 A 
ATOM     30  C   UNL     1       0.103   1.024  -0.216  0.00  0.00    +0.092 A 
ENDBRANCH  18  29
ENDBRANCH   1  18
BRANCH   5  31
ATOM     31  C   UNL     1       3.533   3.828  -3.355  0.00  0.00    +0.193 C 
BRANCH  31  32
ATOM     32  O   UNL     1       3.650   2.421  -3.573  0.00  0.00    -0.392 OA
ATOM     33  H   UNL     1       4.202   2.185  -4.332  0.00  0.00    +0.210 HD
ENDBRANCH  31  32
ENDBRANCH   5  31
TORSDOF 7
