REMARK  Name = ZINC09125092
REMARK  6 active torsions:
REMARK  status: ('A' for Active; 'I' for Inactive)
REMARK    1  A    between atoms: C_1  and  C_2
REMARK    2  A    between atoms: C_5  and  C_8
REMARK    3  A    between atoms: C_8  and  C_10
REMARK    4  A    between atoms: C_8  and  N_15
REMARK    5  A    between atoms: C_16  and  C_18
REMARK    6  A    between atoms: C_18  and  N_19
REMARK                            x       y       z     vdW  Elec       q    Type
REMARK                         _______ _______ _______ _____ _____    ______ ____
ROOT
ATOM      1  C   UNL     1       1.900  -1.081  -3.143  0.00  0.00    +0.213 C 
ENDROOT
BRANCH   1   2
ATOM      2  N   UNL     1       1.387  -1.129  -4.515  0.00  0.00    -0.215 N 
ATOM      3  C   UNL     1       0.796  -2.210  -5.065  0.00  0.00    +0.251 C 
ATOM      4  O   UNL     1       0.596  -3.284  -4.540  0.00  0.00    -0.272 OA
ATOM      5  C   UNL     1       0.433  -1.799  -6.475  0.00  0.00    +0.138 C 
ATOM      6  C   UNL     1       1.159  -2.683  -7.481  0.00  0.00    +0.040 C 
ATOM      7  C   UNL     1       0.625  -2.365  -8.883  0.00  0.00    +0.008 C 
ATOM      8  C   UNL     1      -0.817  -2.859  -8.975  0.00  0.00    +0.035 C 
ATOM      9  C   UNL     1      -1.633  -2.335  -7.823  0.00  0.00    -0.042 A 
ATOM     10  C   UNL     1      -1.056  -1.852  -6.668  0.00  0.00    -0.012 A 
ATOM     11  C   UNL     1      -1.864  -1.394  -5.636  0.00  0.00    +0.006 A 
ATOM     12  C   UNL     1      -3.238  -1.414  -5.760  0.00  0.00    +0.000 A 
ATOM     13  C   UNL     1      -3.817  -1.895  -6.919  0.00  0.00    +0.000 A 
ATOM     14  C   UNL     1      -3.016  -2.353  -7.945  0.00  0.00    +0.004 A 
ATOM     15  N   UNL     1       0.911  -0.413  -6.573  0.00  0.00    -0.281 N 
ATOM     16  C   UNL     1       1.453  -0.109  -5.379  0.00  0.00    +0.310 C 
ATOM     17  O   UNL     1       1.946   0.970  -5.115  0.00  0.00    -0.252 OA
ATOM     18  H   UNL     1       0.848   0.169  -7.347  0.00  0.00    +0.152 HD
ENDBRANCH   1   2
BRANCH   1  20
ATOM     19  N   UNL     1       1.058  -0.473  -0.898  0.00  0.00    -0.303 N 
ATOM     20  C   UNL     1       0.814  -0.598  -2.217  0.00  0.00    +0.232 C 
ATOM     21  O   UNL     1      -0.281  -0.322  -2.660  0.00  0.00    -0.274 OA
ATOM     22  H   UNL     1       1.934  -0.694  -0.544  0.00  0.00    +0.150 HD
BRANCH  19  23
ATOM     23  C   UNL     1       0.002  -0.004   0.002  0.00  0.00    +0.140 C 
BRANCH  23  28
ATOM     24  C   UNL     1       1.023  -1.946   5.348  0.00  0.00    +0.044 C 
ATOM     25  C   UNL     1       0.757  -1.440   3.954  0.00  0.00    -0.050 A 
ATOM     26  C   UNL     1      -0.534  -1.420   3.461  0.00  0.00    +0.004 A 
ATOM     27  C   UNL     1      -0.779  -0.956   2.182  0.00  0.00    +0.006 A 
ATOM     28  C   UNL     1       0.268  -0.510   1.396  0.00  0.00    -0.022 A 
ATOM     29  C   UNL     1       1.560  -0.535   1.887  0.00  0.00    +0.006 A 
ATOM     30  C   UNL     1       1.804  -0.996   3.168  0.00  0.00    +0.004 A 
ENDBRANCH  23  28
BRANCH  23  31
ATOM     31  C   UNL     1      -0.018   1.503   0.010  0.00  0.00    +0.014 A 
ATOM     32  C   UNL     1      -1.083   2.342   0.019  0.00  0.00    +0.013 A 
ATOM     33  C   UNL     1      -0.861   3.706   0.029  0.00  0.00    +0.008 A 
ATOM     34  C   UNL     1       0.415   4.165   0.020  0.00  0.00    +0.045 A 
ATOM     35  S   UNL     1       1.353   2.646   0.003  0.00  0.00    -0.099 S 
ENDBRANCH  23  31
ENDBRANCH  19  23
ENDBRANCH   1  20
TORSDOF 5
