REMARK  Name = ZINC32835207
REMARK  4 active torsions:
REMARK  status: ('A' for Active; 'I' for Inactive)
REMARK    1  A    between atoms: C_3  and  C_6
REMARK    2  A    between atoms: C_9  and  C_12
REMARK    3  A    between atoms: C_17  and  C_19
REMARK    4  A    between atoms: C_19  and  N_20
REMARK                            x       y       z     vdW  Elec       q    Type
REMARK                         _______ _______ _______ _____ _____    ______ ____
ROOT
ATOM      1  C   UNL     1       0.002  -0.004   0.002  0.00  0.00    +0.104 C 
ATOM      2  N   UNL     1       1.225  -0.418  -0.012  0.00  0.00    -0.178 NA
ATOM      3  N   UNL     1       2.171   0.605  -0.015  0.00  0.00    -0.183 N 
ATOM      4  C   UNL     1       1.472   1.900  -0.002  0.00  0.00    +0.144 C 
ATOM      5  C   UNL     1      -0.018   1.508   0.010  0.00  0.00    +0.090 C 
ATOM      6  C   UNL     1       3.508   0.436  -0.029  0.00  0.00    +0.253 C 
ATOM      7  O   UNL     1       4.242   1.403  -0.030  0.00  0.00    -0.272 OA
ENDROOT
BRANCH   1  10
ATOM      8  C   UNL     1      -2.529  -2.638   0.012  0.00  0.00    +0.042 A 
ATOM      9  C   UNL     1      -1.182  -2.231   0.001  0.00  0.00    +0.051 A 
ATOM     10  C   UNL     1      -1.183  -0.867   0.009  0.00  0.00    +0.150 A 
ATOM     11  O   UNL     1      -2.466  -0.451   0.029  0.00  0.00    -0.462 OA
ATOM     12  C   UNL     1      -3.281  -1.518   0.025  0.00  0.00    +0.196 A 
ENDBRANCH   1  10
BRANCH   4  13
ATOM     13  C   UNL     1       1.802   2.693  -1.240  0.00  0.00    +0.013 A 
ATOM     14  C   UNL     1       1.930   4.035  -1.386  0.00  0.00    +0.013 A 
ATOM     15  C   UNL     1       2.244   4.547  -2.630  0.00  0.00    +0.008 A 
ATOM     16  C   UNL     1       2.405   3.693  -3.671  0.00  0.00    +0.045 A 
ATOM     17  S   UNL     1       2.117   2.110  -2.898  0.00  0.00    -0.100 S 
ENDBRANCH   4  13
BRANCH   6  18
ATOM     18  C   UNL     1       4.092  -0.953  -0.042  0.00  0.00    +0.215 C 
BRANCH  18  19
ATOM     19  N   UNL     1       5.555  -0.868  -0.055  0.00  0.00    -0.215 N 
ATOM     20  C   UNL     1       6.320  -0.830   1.053  0.00  0.00    +0.247 C 
ATOM     21  O   UNL     1       5.941  -0.856   2.204  0.00  0.00    -0.273 OA
ATOM     22  C   UNL     1       7.755  -0.747   0.562  0.00  0.00    +0.113 C 
ATOM     23  C   UNL     1       8.470  -2.057   0.963  0.00  0.00    +0.035 C 
ATOM     24  C   UNL     1       9.634  -2.276   0.037  0.00  0.00    +0.003 C 
ATOM     25  C   UNL     1      10.956  -1.719   0.602  0.00  0.00    +0.000 C 
ATOM     26  C   UNL     1      10.786  -0.343   1.273  0.00  0.00    +0.000 C 
ATOM     27  C   UNL     1       9.876   0.566   0.491  0.00  0.00    +0.003 C 
ATOM     28  C   UNL     1       8.450   0.434   1.059  0.00  0.00    +0.035 C 
ATOM     29  N   UNL     1       7.611  -0.744  -0.908  0.00  0.00    -0.285 N 
ATOM     30  C   UNL     1       6.294  -0.824  -1.168  0.00  0.00    +0.310 C 
ATOM     31  O   UNL     1       5.828  -0.850  -2.290  0.00  0.00    -0.252 OA
ATOM     32  H   UNL     1       8.503  -0.683  -1.548  0.00  0.00    +0.151 HD
ENDBRANCH  18  19
ENDBRANCH   6  18
TORSDOF 4
