REMARK  Name = ZINC64480850
REMARK  9 active torsions:
REMARK  status: ('A' for Active; 'I' for Inactive)
REMARK    1  A    between atoms: C_3  and  C_27
REMARK    2  A    between atoms: C_6  and  C_7
REMARK    3  A    between atoms: C_7  and  N_8
REMARK    4  A    between atoms: C_16  and  S_18
REMARK    5  A    between atoms: S_18  and  C_19
REMARK    6  A    between atoms: C_19  and  C_20
REMARK    7  A    between atoms: N_29  and  C_30
REMARK    8  A    between atoms: C_30  and  C_31
REMARK    9  A    between atoms: C_31  and  C_32
REMARK                            x       y       z     vdW  Elec       q    Type
REMARK                         _______ _______ _______ _____ _____    ______ ____
ROOT
ATOM      1  C   UNL     1      -1.295  -0.772   0.010  0.00  0.00    +0.143 C 
ENDROOT
BRANCH   1   2
ATOM      2  N   UNL     1      -1.728  -1.013  -1.368  0.00  0.00    -0.296 N 
ATOM      3  C   UNL     1      -2.543  -0.177  -2.141  0.00  0.00    +0.069 A 
ATOM      4  C   UNL     1      -3.142   1.040  -1.855  0.00  0.00    +0.107 A 
ATOM      5  N   UNL     1      -3.882   1.656  -2.758  0.00  0.00    -0.365 N 
ATOM      6  C   UNL     1      -4.085   1.149  -3.959  0.00  0.00    +0.084 A 
ATOM      7  C   UNL     1      -3.524  -0.059  -4.323  0.00  0.00    +0.042 A 
ATOM      8  C   UNL     1      -2.735  -0.744  -3.402  0.00  0.00    +0.053 A 
ATOM      9  N   UNL     1      -2.056  -1.957  -3.487  0.00  0.00    -0.316 N 
ATOM     10  C   UNL     1      -1.383  -2.174  -2.199  0.00  0.00    +0.220 C 
ATOM     11  H   UNL     1      -2.029  -2.548  -4.255  0.00  0.00    +0.149 HD
ATOM     12  H   UNL     1      -4.290   2.506  -2.531  0.00  0.00    +0.165 HD
BRANCH  10  13
ATOM     13  S   UNL     1      -1.992  -3.699  -1.428  0.00  0.00    -0.115 S 
BRANCH  13  14
ATOM     14  C   UNL     1      -3.786  -3.452  -1.325  0.00  0.00    +0.107 C 
BRANCH  14  15
ATOM     15  C   UNL     1      -4.424  -4.663  -0.694  0.00  0.00    -0.037 A 
ATOM     16  C   UNL     1      -4.842  -5.716  -1.486  0.00  0.00    +0.006 A 
ATOM     17  C   UNL     1      -5.427  -6.827  -0.908  0.00  0.00    +0.020 A 
ATOM     18  C   UNL     1      -5.595  -6.885   0.464  0.00  0.00    +0.041 A 
ATOM     19  C   UNL     1      -5.176  -5.831   1.257  0.00  0.00    +0.020 A 
ATOM     20  C   UNL     1      -4.586  -4.723   0.678  0.00  0.00    +0.006 A 
ATOM     21 CL   UNL     1      -6.330  -8.279   1.191  0.00  0.00    -0.084 Cl
ENDBRANCH  14  15
ENDBRANCH  13  14
ENDBRANCH  10  13
ENDBRANCH   1   2
BRANCH   1  27
ATOM     22  C   UNL     1      -0.017   1.379   0.010  0.00  0.00    +0.006 A 
ATOM     23  C   UNL     1       1.167   2.088   0.002  0.00  0.00    +0.013 A 
ATOM     24  C   UNL     1       2.385   1.407  -0.013  0.00  0.00    +0.037 A 
ATOM     25  C   UNL     1       2.397   0.011  -0.021  0.00  0.00    +0.013 A 
ATOM     26  C   UNL     1       1.206  -0.686  -0.013  0.00  0.00    +0.006 A 
ATOM     27  C   UNL     1       0.002  -0.004   0.002  0.00  0.00    -0.030 A 
BRANCH  24  28
ATOM     28  C   UNL     1       3.657   2.160  -0.022  0.00  0.00    +0.244 C 
ATOM     29  O   UNL     1       3.643   3.376  -0.015  0.00  0.00    -0.270 OA
ATOM     30  N   UNL     1       4.831   1.499  -0.037  0.00  0.00    -0.311 N 
ATOM     31  H   UNL     1       4.842   0.529  -0.042  0.00  0.00    +0.149 HD
BRANCH  30  32
ATOM     32  C   UNL     1       6.092   2.246  -0.045  0.00  0.00    +0.110 C 
BRANCH  32  33
ATOM     33  C   UNL     1       7.266   1.265  -0.061  0.00  0.00    +0.073 C 
BRANCH  33  34
ATOM     34  C   UNL     1       8.562   2.032  -0.070  0.00  0.00    +0.035 A 
ATOM     35  H   UNL     1      11.003   3.584   1.098  0.00  0.00    +0.166 HD
ATOM     36  C   UNL     1       9.205   2.512   1.012  0.00  0.00    +0.105 A 
ATOM     37  N   UNL     1      10.334   3.139   0.556  0.00  0.00    -0.352 N 
ATOM     38  C   UNL     1      10.341   3.020  -0.789  0.00  0.00    +0.171 A 
ATOM     39  N   UNL     1       9.281   2.353  -1.156  0.00  0.00    -0.350 N 
ATOM     40  H   UNL     1       9.049   2.127  -2.070  0.00  0.00    +0.166 HD
ENDBRANCH  33  34
ENDBRANCH  32  33
ENDBRANCH  30  32
ENDBRANCH  24  28
ENDBRANCH   1  27
TORSDOF 9
