REMARK  Name = ZINC35276913
REMARK  3 active torsions:
REMARK  status: ('A' for Active; 'I' for Inactive)
REMARK    1  A    between atoms: C_5  and  C_7
REMARK    2  A    between atoms: C_9  and  N_19
REMARK    3  A    between atoms: N_10  and  C_12
REMARK                            x       y       z     vdW  Elec       q    Type
REMARK                         _______ _______ _______ _____ _____    ______ ____
ROOT
ATOM      1  C   UNL     1       1.264  -2.177   0.135  0.00  0.00    +0.096 A 
ATOM      2  C   UNL     1       0.134  -3.018   0.158  0.00  0.00    +0.073 A 
ATOM      3  C   UNL     1       0.557  -4.288  -0.081  0.00  0.00    +0.120 A 
ATOM      4  N   UNL     1       1.907  -4.250  -0.248  0.00  0.00    -0.216 N 
ATOM      5  N   UNL     1       2.323  -2.919  -0.114  0.00  0.00    -0.165 NA
ENDROOT
BRANCH   1  10
ATOM      6  C   UNL     1       0.065   1.324   0.799  0.00  0.00    +0.001 A 
ATOM      7  C   UNL     1       1.252   2.032   0.744  0.00  0.00    +0.001 A 
ATOM      8  C   UNL     1       2.443   1.376   0.491  0.00  0.00    +0.016 A 
ATOM      9  C   UNL     1       2.453   0.009   0.293  0.00  0.00    +0.027 A 
ATOM     10  C   UNL     1       1.260  -0.709   0.347  0.00  0.00    +0.016 A 
ATOM     11  C   UNL     1       0.063  -0.042   0.602  0.00  0.00    +0.011 A 
ATOM     12 BR   UNL     1       4.083  -0.886  -0.053  0.00  0.00    -0.050 Br
ENDBRANCH   1  10
BRANCH   4  13
ATOM     13  C   UNL     1       2.736  -5.349  -0.513  0.00  0.00    +0.102 A 
ATOM     14  C   UNL     1       2.392  -6.256  -1.505  0.00  0.00    +0.031 A 
ATOM     15  C   UNL     1       3.210  -7.339  -1.764  0.00  0.00    +0.002 A 
ATOM     16  C   UNL     1       4.372  -7.519  -1.036  0.00  0.00    +0.003 A 
ATOM     17  C   UNL     1       4.720  -6.618  -0.047  0.00  0.00    +0.040 A 
ATOM     18  C   UNL     1       3.908  -5.529   0.213  0.00  0.00    +0.149 A 
ATOM     19  F   UNL     1       4.250  -4.645   1.176  0.00  0.00    -0.203 F 
ENDBRANCH   4  13
BRANCH   3  20
ATOM     20  N   UNL     1      -0.247  -5.423  -0.142  0.00  0.00    -0.343 N 
ATOM     21  H   UNL     1      -1.212  -5.337  -0.095  0.00  0.00    +0.144 HD
ATOM     22  H   UNL     1       0.158  -6.300  -0.231  0.00  0.00    +0.144 HD
ENDBRANCH   3  20
TORSDOF 3
