REMARK  Name = ZINC64152452
REMARK  6 active torsions:
REMARK  status: ('A' for Active; 'I' for Inactive)
REMARK    1  A    between atoms: C_1  and  N_2
REMARK    2  A    between atoms: N_2  and  C_3
REMARK    3  A    between atoms: N_2  and  C_18
REMARK    4  A    between atoms: C_3  and  C_4
REMARK    5  A    between atoms: C_6  and  C_9
REMARK    6  A    between atoms: C_18  and  C_19
REMARK                            x       y       z     vdW  Elec       q    Type
REMARK                         _______ _______ _______ _____ _____    ______ ____
ROOT
ATOM      1  C   UNL     1      -0.018   1.465   0.010  0.00  0.00    -0.095 C 
ATOM      2  N   UNL     1       0.002  -0.004   0.002  0.00  0.00    +0.385 N 
ATOM      3  H   UNL     1      -0.945  -0.353   0.009  0.00  0.00    -0.081 HD
ENDROOT
BRANCH   2   4
ATOM      4  C   UNL     1       0.713  -0.491   1.192  0.00  0.00    +0.021 C 
BRANCH   4   5
ATOM      5  C   UNL     1      -0.059  -0.109   2.429  0.00  0.00    +0.211 A 
ATOM      6  N   UNL     1      -0.980  -0.829   3.003  0.00  0.00    -0.193 NA
ATOM      7  C   UNL     1      -1.460  -0.187   4.083  0.00  0.00    +0.202 A 
ATOM      8  N   UNL     1      -0.837   0.960   4.200  0.00  0.00    -0.056 NA
ATOM      9  O   UNL     1       0.090   1.025   3.126  0.00  0.00    -0.340 OA
BRANCH   7  10
ATOM     10  C   UNL     1      -2.519  -0.692   4.991  0.00  0.00    +0.026 A 
ATOM     11  C   UNL     1      -3.102  -1.936   4.759  0.00  0.00    +0.015 A 
ATOM     12  C   UNL     1      -4.087  -2.405   5.604  0.00  0.00    +0.050 A 
ATOM     13  C   UNL     1      -4.501  -1.641   6.685  0.00  0.00    +0.166 A 
ATOM     14  C   UNL     1      -3.921  -0.395   6.921  0.00  0.00    +0.167 A 
ATOM     15  C   UNL     1      -2.929   0.075   6.080  0.00  0.00    +0.061 A 
ATOM     16  O   UNL     1      -4.497   0.149   8.033  0.00  0.00    -0.453 OA
ATOM     17  C   UNL     1      -5.715  -0.590   8.236  0.00  0.00    +0.466 C 
ATOM     18  O   UNL     1      -5.438  -1.875   7.649  0.00  0.00    -0.453 OA
ENDBRANCH   7  10
ENDBRANCH   4   5
ENDBRANCH   2   4
BRANCH   2  19
ATOM     19  C   UNL     1       0.690  -0.478  -1.207  0.00  0.00    -0.050 C 
BRANCH  19  20
ATOM     20  C   UNL     1      -0.118  -0.077  -2.443  0.00  0.00    +0.086 C 
ATOM     21  C   UNL     1       0.476  -0.711  -3.681  0.00  0.00    +0.005 C 
ATOM     22  C   UNL     1      -0.492  -1.500  -4.199  0.00  0.00    -0.001 A 
ATOM     23  C   UNL     1      -0.539  -2.369  -5.381  0.00  0.00    +0.048 A 
ATOM     24  C   UNL     1      -1.677  -3.053  -5.649  0.00  0.00    +0.124 A 
ATOM     25  C   UNL     1      -2.809  -2.950  -4.825  0.00  0.00    +0.040 A 
ATOM     26  C   UNL     1      -2.841  -2.172  -3.724  0.00  0.00    +0.029 A 
ATOM     27  C   UNL     1      -1.700  -1.410  -3.348  0.00  0.00    +0.043 A 
ATOM     28  N   UNL     1      -1.487  -0.594  -2.342  0.00  0.00    -0.380 N 
ATOM     29  F   UNL     1      -1.724  -3.853  -6.736  0.00  0.00    -0.205 F 
ATOM     30  H   UNL     1      -2.127  -0.371  -1.648  0.00  0.00    +0.160 HD
ENDBRANCH  19  20
ENDBRANCH   2  19
TORSDOF 5
