REMARK  Name = ZINC39864804
REMARK  5 active torsions:
REMARK  status: ('A' for Active; 'I' for Inactive)
REMARK    1  A    between atoms: C_1  and  C_2
REMARK    2  A    between atoms: C_2  and  N_3
REMARK    3  A    between atoms: C_7  and  C_8
REMARK    4  A    between atoms: C_11  and  C_13
REMARK    5  A    between atoms: N_16  and  C_17
REMARK                            x       y       z     vdW  Elec       q    Type
REMARK                         _______ _______ _______ _____ _____    ______ ____
ROOT
ATOM      1  N   UNL     1       0.680  -0.608  -1.168  0.00  0.00    -0.246 N 
ATOM      2  C   UNL     1      -0.018  -0.889  -2.256  0.00  0.00    +0.259 C 
ATOM      3  O   UNL     1      -1.235  -0.926  -2.239  0.00  0.00    -0.269 OA
ATOM      4  C   UNL     1       0.742  -1.155  -3.488  0.00  0.00    +0.081 C 
ATOM      5  C   UNL     1       0.287  -1.465  -4.735  0.00  0.00    +0.066 C 
ATOM      6  S   UNL     1       2.422  -0.960  -2.910  0.00  0.00    -0.049 S 
ATOM      7  C   UNL     1       2.055  -0.564  -1.208  0.00  0.00    +0.171 C 
ATOM      8  N   UNL     1       2.895  -0.297  -0.229  0.00  0.00    -0.199 NA
ENDROOT
BRANCH   5   9
ATOM      9  C   UNL     1      -1.100  -1.432  -5.010  0.00  0.00    +0.129 A 
ATOM     10  C   UNL     1      -1.704  -1.803  -6.195  0.00  0.00    +0.049 A 
ATOM     11  C   UNL     1      -3.083  -1.608  -6.019  0.00  0.00    +0.045 A 
ATOM     12  C   UNL     1      -3.263  -1.139  -4.765  0.00  0.00    +0.103 A 
ATOM     13  O   UNL     1      -2.070  -1.038  -4.159  0.00  0.00    -0.461 OA
ATOM     14  C   UNL     1      -4.591  -0.789  -4.144  0.00  0.00    +0.086 C 
ENDBRANCH   5   9
BRANCH   8  15
ATOM     15  C   UNL     1       4.233  -0.301  -0.462  0.00  0.00    +0.195 A 
ATOM     16  N   UNL     1       4.892  -0.540  -1.592  0.00  0.00    -0.230 NA
ATOM     17  C   UNL     1       6.207  -0.500  -1.633  0.00  0.00    +0.121 A 
ATOM     18  C   UNL     1       6.910  -0.211  -0.510  0.00  0.00    +0.068 A 
ATOM     19  S   UNL     1       5.583   0.022   0.665  0.00  0.00    -0.056 S 
ENDBRANCH   8  15
BRANCH   1  21
ATOM     20  C   UNL     1      -0.316   1.164   0.193  0.00  0.00    +0.025 C 
ATOM     21  C   UNL     1      -0.018  -0.334   0.090  0.00  0.00    +0.112 C 
ENDBRANCH   1  21
TORSDOF 3
