REMARK  Name = ZINC39672657
REMARK  7 active torsions:
REMARK  status: ('A' for Active; 'I' for Inactive)
REMARK    1  A    between atoms: C_1  and  C_2
REMARK    2  A    between atoms: C_5  and  C_7
REMARK    3  A    between atoms: C_7  and  N_8
REMARK    4  A    between atoms: C_9  and  C_11
REMARK    5  A    between atoms: C_22  and  C_24
REMARK    6  A    between atoms: C_25  and  C_35
REMARK    7  A    between atoms: C_28  and  C_29
REMARK                            x       y       z     vdW  Elec       q    Type
REMARK                         _______ _______ _______ _____ _____    ______ ____
ROOT
ATOM      1  C   UNL     1      -2.964  -4.452   4.101  0.00  0.00    +0.100 C 
ATOM      2  C   UNL     1      -3.667  -3.208   4.688  0.00  0.00    +0.121 C 
ATOM      3  N   UNL     1      -4.509  -3.737   5.786  0.00  0.00    -0.296 N 
ATOM      4  C   UNL     1      -3.672  -4.783   6.421  0.00  0.00    +0.115 C 
ATOM      5  C   UNL     1      -2.969  -5.483   5.242  0.00  0.00    -0.004 C 
ATOM      6  C   UNL     1      -1.539  -5.853   5.626  0.00  0.00    -0.010 C 
ATOM      7  C   UNL     1      -1.570  -6.923   6.721  0.00  0.00    -0.082 C 
ATOM      8  N   UNL     1      -2.289  -8.106   6.232  0.00  0.00    +0.379 N 
ATOM      9  C   UNL     1      -3.688  -7.762   5.953  0.00  0.00    -0.082 C 
ATOM     10  C   UNL     1      -3.747  -6.728   4.825  0.00  0.00    -0.010 C 
ATOM     11  C   UNL     1      -5.755  -3.354   6.130  0.00  0.00    +0.252 C 
ATOM     12  O   UNL     1      -6.319  -3.889   7.065  0.00  0.00    -0.270 OA
ATOM     13  H   UNL     1      -1.851  -8.438   5.386  0.00  0.00    -0.086 HD
ATOM     14  H   UNL     1      -2.255  -8.832   6.932  0.00  0.00    -0.086 HD
ENDROOT
BRANCH  11  15
ATOM     15  C   UNL     1      -6.433  -2.288   5.373  0.00  0.00    +0.106 A 
ATOM     16  C   UNL     1      -7.230  -2.447   4.278  0.00  0.00    +0.147 A 
ATOM     17  O   UNL     1      -7.651  -1.242   3.887  0.00  0.00    -0.359 OA
ATOM     18  N   UNL     1      -7.119  -0.255   4.747  0.00  0.00    -0.077 NA
ATOM     19  C   UNL     1      -6.386  -0.845   5.657  0.00  0.00    +0.126 A 
ATOM     20  C   UNL     1      -7.576  -3.759   3.622  0.00  0.00    +0.090 C 
BRANCH  19  21
ATOM     21  C   UNL     1      -5.646  -0.185   6.761  0.00  0.00    +0.004 A 
ATOM     22  C   UNL     1      -5.521  -0.819   7.996  0.00  0.00    +0.010 A 
ATOM     23  C   UNL     1      -4.831  -0.201   9.019  0.00  0.00    +0.001 A 
ATOM     24  C   UNL     1      -4.265   1.046   8.820  0.00  0.00    +0.000 A 
ATOM     25  C   UNL     1      -4.386   1.679   7.597  0.00  0.00    +0.001 A 
ATOM     26  C   UNL     1      -5.069   1.068   6.565  0.00  0.00    +0.010 A 
ENDBRANCH  19  21
ENDBRANCH  11  15
BRANCH   1  28
ATOM     27  N   UNL     1      -0.953  -4.792   2.701  0.00  0.00    -0.309 N 
ATOM     28  C   UNL     1      -1.549  -4.116   3.703  0.00  0.00    +0.219 C 
ATOM     29  O   UNL     1      -0.948  -3.239   4.285  0.00  0.00    -0.275 OA
ATOM     30  H   UNL     1      -1.434  -5.494   2.235  0.00  0.00    +0.149 HD
BRANCH  27  31
ATOM     31  C   UNL     1       0.422  -4.465   2.314  0.00  0.00    +0.167 C 
BRANCH  31  36
ATOM     32  C   UNL     1       1.016  -5.801  -2.472  0.00  0.00    +0.066 C 
ATOM     33  C   UNL     1       1.154  -6.035  -0.990  0.00  0.00    +0.046 A 
ATOM     34  C   UNL     1       1.724  -7.166  -0.500  0.00  0.00    +0.070 A 
ATOM     35  S   UNL     1       1.599  -6.863   1.255  0.00  0.00    -0.079 S 
ATOM     36  C   UNL     1       0.849  -5.358   1.178  0.00  0.00    +0.096 A 
ATOM     37  N   UNL     1       0.732  -5.149  -0.110  0.00  0.00    -0.248 NA
ENDBRANCH  31  36
ENDBRANCH  27  31
ENDBRANCH   1  28
TORSDOF 5
