REMARK  Name = ZINC63985278
REMARK  4 active torsions:
REMARK  status: ('A' for Active; 'I' for Inactive)
REMARK    1  A    between atoms: C_8  and  C_16
REMARK    2  A    between atoms: C_18  and  O_33
REMARK    3  A    between atoms: C_20  and  O_32
REMARK    4  A    between atoms: N_22  and  C_25
REMARK                            x       y       z     vdW  Elec       q    Type
REMARK                         _______ _______ _______ _____ _____    ______ ____
ROOT
ATOM      1  C   UNL     1       5.818  -3.207   0.503  0.00  0.00    +0.179 C 
ATOM      2  C   UNL     1       5.311  -4.081  -0.606  0.00  0.00    +0.200 C 
ATOM      3  N   UNL     1       4.964  -5.296  -0.427  0.00  0.00    -0.204 NA
ATOM      4  C   UNL     1       5.011  -5.979   0.855  0.00  0.00    +0.338 C 
ATOM      5  N   UNL     1       5.910  -5.323   1.794  0.00  0.00    -0.225 N 
ATOM      6  C   UNL     1       6.285  -4.049   1.656  0.00  0.00    +0.237 C 
ATOM      7  O   UNL     1       7.023  -3.561   2.486  0.00  0.00    -0.274 OA
ENDROOT
BRANCH   1  14
ATOM      8  C   UNL     1       2.905   3.041  -0.160  0.00  0.00    +0.001 A 
ATOM      9  C   UNL     1       4.212   3.161  -0.650  0.00  0.00    +0.002 A 
ATOM     10  C   UNL     1       5.027   2.098  -0.819  0.00  0.00    +0.026 A 
ATOM     11  C   UNL     1       4.579   0.788  -0.499  0.00  0.00    +0.043 A 
ATOM     12  N   UNL     1       5.181  -0.379  -0.553  0.00  0.00    -0.376 N 
ATOM     13  C   UNL     1       4.217  -1.413  -0.193  0.00  0.00    +0.124 C 
ATOM     14  C   UNL     1       4.694  -2.282   0.974  0.00  0.00    +0.101 C 
ATOM     15  N   UNL     1       3.556  -3.086   1.447  0.00  0.00    -0.310 NA
ATOM     16  C   UNL     1       2.494  -2.281   2.059  0.00  0.00    +0.085 C 
ATOM     17  C   UNL     1       1.852  -1.363   1.002  0.00  0.00    +0.048 C 
ATOM     18  C   UNL     1       2.982  -0.664   0.280  0.00  0.00    -0.036 C 
ATOM     19  C   UNL     1       3.201   0.633   0.031  0.00  0.00    -0.001 A 
ATOM     20  C   UNL     1       2.380   1.842   0.179  0.00  0.00    +0.010 A 
ATOM     21  H   UNL     1       3.189  -3.665   0.707  0.00  0.00    +0.122 HD
ATOM     22  H   UNL     1       6.110  -0.527  -0.791  0.00  0.00    +0.160 HD
ENDBRANCH   1  14
BRANCH   5  23
ATOM     23  C   UNL     1       6.397  -6.056   2.881  0.00  0.00    +0.042 A 
ATOM     24  C   UNL     1       7.569  -6.792   2.755  0.00  0.00    +0.024 A 
ATOM     25  C   UNL     1       8.048  -7.514   3.830  0.00  0.00    +0.003 A 
ATOM     26  C   UNL     1       7.363  -7.506   5.031  0.00  0.00    +0.020 A 
ATOM     27  C   UNL     1       6.196  -6.775   5.160  0.00  0.00    +0.043 A 
ATOM     28  C   UNL     1       5.715  -6.044   4.090  0.00  0.00    +0.043 A 
ATOM     29 CL   UNL     1       5.339  -6.768   6.670  0.00  0.00    -0.083 Cl
ENDBRANCH   5  23
BRANCH   4  30
ATOM     30  O   UNL     1       3.696  -6.006   1.415  0.00  0.00    -0.356 OA
ATOM     31  H   UNL     1       3.044  -6.463   0.867  0.00  0.00    +0.214 HD
ENDBRANCH   4  30
BRANCH   2  32
ATOM     32  O   UNL     1       5.217  -3.560  -1.847  0.00  0.00    -0.495 OA
ATOM     33  H   UNL     1       4.883  -4.180  -2.510  0.00  0.00    +0.293 HD
ENDBRANCH   2  32
TORSDOF 4
