REMARK  Name = ZINC40761051
REMARK  3 active torsions:
REMARK  status: ('A' for Active; 'I' for Inactive)
REMARK    1  A    between atoms: C_1  and  C_2
REMARK    2  A    between atoms: C_13  and  N_28
REMARK    3  A    between atoms: C_14  and  N_18
REMARK                            x       y       z     vdW  Elec       q    Type
REMARK                         _______ _______ _______ _____ _____    ______ ____
ROOT
ATOM      1  C   UNL     1      -0.018   1.503   0.010  0.00  0.00    +0.044 C 
ATOM      2  C   UNL     1       0.002  -0.004   0.002  0.00  0.00    -0.049 A 
ATOM      3  C   UNL     1       0.006  -0.698  -1.199  0.00  0.00    +0.005 A 
ATOM      4  C   UNL     1       0.024  -2.068  -1.234  0.00  0.00    +0.029 A 
ATOM      5  C   UNL     1       0.041  -2.822  -0.038  0.00  0.00    +0.080 A 
ATOM      6  C   UNL     1       0.037  -2.081   1.166  0.00  0.00    +0.041 A 
ATOM      7  C   UNL     1       0.023  -0.709   1.192  0.00  0.00    +0.020 A 
ATOM      8  S   UNL     1       0.061  -3.361   2.398  0.00  0.00    -0.052 S 
ATOM      9  C   UNL     1       0.074  -4.752   1.276  0.00  0.00    +0.165 A 
ATOM     10  N   UNL     1       0.060  -4.165   0.101  0.00  0.00    -0.225 NA
ATOM     11  N   UNL     1       0.095  -6.102   1.570  0.00  0.00    -0.277 N 
ATOM     12  C   UNL     1       0.103  -7.039   0.541  0.00  0.00    +0.150 A 
ATOM     13  C   UNL     1       0.118  -8.406   0.825  0.00  0.00    +0.106 A 
ATOM     14  C   UNL     1       0.125  -9.302  -0.245  0.00  0.00    +0.150 A 
ATOM     15  N   UNL     1       0.116  -8.823  -1.487  0.00  0.00    -0.219 NA
ATOM     16  C   UNL     1       0.102  -7.525  -1.712  0.00  0.00    +0.225 A 
ATOM     17  N   UNL     1       0.090  -6.645  -0.730  0.00  0.00    -0.219 NA
ATOM     18  H   UNL     1       0.105  -6.397   2.494  0.00  0.00    +0.156 HD
ENDROOT
BRANCH  14  19
ATOM     19  N   UNL     1       0.140 -10.674  -0.017  0.00  0.00    -0.277 N 
ATOM     20  C   UNL     1       0.147 -11.552  -1.085  0.00  0.00    +0.165 A 
ATOM     21  N   UNL     1       0.146 -11.285  -2.371  0.00  0.00    -0.225 NA
ATOM     22  C   UNL     1       0.153 -12.253  -3.313  0.00  0.00    +0.080 A 
ATOM     23  C   UNL     1       0.152 -12.102  -4.719  0.00  0.00    +0.029 A 
ATOM     24  C   UNL     1       0.159 -13.199  -5.540  0.00  0.00    +0.002 A 
ATOM     25  C   UNL     1       0.167 -14.489  -5.028  0.00  0.00    +0.001 A 
ATOM     26  C   UNL     1       0.168 -14.673  -3.658  0.00  0.00    +0.017 A 
ATOM     27  C   UNL     1       0.162 -13.580  -2.827  0.00  0.00    +0.041 A 
ATOM     28  S   UNL     1       0.166 -13.339  -1.067  0.00  0.00    -0.052 S 
ATOM     29  H   UNL     1       0.147 -11.015   0.891  0.00  0.00    +0.156 HD
ENDBRANCH  14  19
BRANCH  13  30
ATOM     30  N   UNL     1       0.127  -8.866   2.151  0.00  0.00    -0.353 N 
ATOM     31  H   UNL     1       0.123  -8.231   2.885  0.00  0.00    +0.143 HD
ATOM     32  H   UNL     1       0.138  -9.818   2.333  0.00  0.00    +0.143 HD
ENDBRANCH  13  30
TORSDOF 2
