REMARK  Name = ZINC35544299
REMARK  10 active torsions:
REMARK  status: ('A' for Active; 'I' for Inactive)
REMARK    1  A    between atoms: C_1  and  C_2
REMARK    2  A    between atoms: C_12  and  C_14
REMARK    3  A    between atoms: C_14  and  O_15
REMARK    4  A    between atoms: O_15  and  C_16
REMARK    5  A    between atoms: C_16  and  C_18
REMARK    6  A    between atoms: C_23  and  N_24
REMARK    7  A    between atoms: N_24  and  S_25
REMARK    8  A    between atoms: S_25  and  C_28
REMARK    9  A    between atoms: C_31  and  O_37
REMARK   10  A    between atoms: C_32  and  N_34
REMARK                            x       y       z     vdW  Elec       q    Type
REMARK                         _______ _______ _______ _____ _____    ______ ____
ROOT
ATOM      1  C   UNL     1       5.997  -0.500   4.182  0.00  0.00    +0.083 A 
ATOM      2  C   UNL     1       6.642   0.313   3.246  0.00  0.00    +0.017 A 
ATOM      3  C   UNL     1       7.962   0.660   3.431  0.00  0.00    +0.001 A 
ATOM      4  C   UNL     1       8.656   0.207   4.542  0.00  0.00    +0.002 A 
ATOM      5  C   UNL     1       8.035  -0.597   5.475  0.00  0.00    +0.027 A 
ATOM      6  C   UNL     1       6.702  -0.953   5.309  0.00  0.00    +0.088 A 
ENDROOT
BRANCH   1   7
ATOM      7  C   UNL     1       4.586  -0.875   3.991  0.00  0.00    +0.342 C 
ATOM      8  O   UNL     1       4.027  -1.579   4.810  0.00  0.00    -0.245 OA
BRANCH   7   9
ATOM      9  O   UNL     1       3.913  -0.439   2.908  0.00  0.00    -0.452 OA
BRANCH   9  10
ATOM     10  C   UNL     1       2.547  -0.841   2.786  0.00  0.00    +0.328 C 
BRANCH  10  21
ATOM     11  C   UNL     1      -0.019   1.526   0.010  0.00  0.00    +0.029 C 
ATOM     12  C   UNL     1       0.002  -0.004   0.002  0.00  0.00    +0.083 C 
ATOM     13  C   UNL     1      -1.430  -0.557   0.082  0.00  0.00    +0.059 C 
ATOM     14  C   UNL     1      -1.457  -1.361   1.363  0.00  0.00    -0.024 A 
ATOM     15  C   UNL     1      -2.472  -2.086   1.957  0.00  0.00    +0.005 A 
ATOM     16  C   UNL     1      -2.247  -2.747   3.150  0.00  0.00    +0.000 A 
ATOM     17  C   UNL     1      -1.003  -2.681   3.749  0.00  0.00    +0.002 A 
ATOM     18  C   UNL     1       0.013  -1.959   3.160  0.00  0.00    +0.024 A 
ATOM     19  C   UNL     1      -0.206  -1.288   1.955  0.00  0.00    +0.040 A 
ATOM     20  N   UNL     1       0.679  -0.510   1.199  0.00  0.00    -0.265 N 
ATOM     21  C   UNL     1       1.964  -0.262   1.523  0.00  0.00    +0.258 C 
ATOM     22  O   UNL     1       2.650   0.428   0.799  0.00  0.00    -0.271 OA
ENDBRANCH  10  21
ENDBRANCH   9  10
ENDBRANCH   7   9
ENDBRANCH   1   7
BRANCH   6  23
ATOM     23  N   UNL     1       6.072  -1.757   6.250  0.00  0.00    -0.097 NA
BRANCH  23  24
ATOM     24  S   UNL     1       6.908  -2.288   7.577  0.00  0.00    +0.092 S 
ATOM     25  O   UNL     1       7.916  -3.166   7.098  0.00  0.00    -0.148 OA
ATOM     26  O   UNL     1       7.207  -1.137   8.356  0.00  0.00    -0.148 OA
BRANCH  24  27
ATOM     27  C   UNL     1       5.799  -3.268   8.533  0.00  0.00    +0.113 A 
ATOM     28  C   UNL     1       5.019  -2.676   9.509  0.00  0.00    +0.032 A 
ATOM     29  C   UNL     1       4.149  -3.442  10.259  0.00  0.00    +0.049 A 
ATOM     30  C   UNL     1       4.057  -4.808  10.033  0.00  0.00    +0.147 A 
ATOM     31  C   UNL     1       4.840  -5.400   9.053  0.00  0.00    +0.169 A 
ATOM     32  C   UNL     1       5.706  -4.628   8.302  0.00  0.00    +0.065 A 
BRANCH  31  33
ATOM     33  N   UNL     1       4.746  -6.857   8.809  0.00  0.00    +0.060 N 
ATOM     34  O   UNL     1       5.428  -7.373   7.955  0.00  0.00    -0.126 OA
ATOM     35  O   UNL     1       3.986  -7.531   9.464  0.00  0.00    -0.126 OA
ENDBRANCH  31  33
BRANCH  30  36
ATOM     36  O   UNL     1       3.202  -5.564  10.770  0.00  0.00    -0.504 OA
ATOM     37  H   UNL     1       2.317  -5.642  10.389  0.00  0.00    +0.292 HD
ENDBRANCH  30  36
ENDBRANCH  24  27
ENDBRANCH  23  24
ENDBRANCH   6  23
TORSDOF 9
