REMARK  Name = ZINC01421867
REMARK  6 active torsions:
REMARK  status: ('A' for Active; 'I' for Inactive)
REMARK    1  A    between atoms: C_1  and  C_2
REMARK    2  A    between atoms: C_2  and  C_35
REMARK    3  A    between atoms: C_19  and  C_33
REMARK    4  A    between atoms: C_20  and  N_32
REMARK    5  A    between atoms: N_21  and  C_22
REMARK    6  A    between atoms: C_25  and  C_28
REMARK                            x       y       z     vdW  Elec       q    Type
REMARK                         _______ _______ _______ _____ _____    ______ ____
ROOT
ATOM      1  C   UNL     1      -2.664   0.898  -2.394  0.00  0.00    +0.011 C 
ATOM      2  C   UNL     1      -3.329   2.043  -3.160  0.00  0.00    -0.023 C 
ATOM      3  C   UNL     1      -4.521   2.573  -2.360  0.00  0.00    +0.058 C 
ATOM      4  C   UNL     1      -4.043   3.113  -1.035  0.00  0.00    +0.026 C 
ATOM      5  C   UNL     1      -2.811   3.649  -0.906  0.00  0.00    +0.037 C 
ATOM      6  C   UNL     1      -1.933   3.722  -2.002  0.00  0.00    +0.163 C 
ATOM      7  O   UNL     1      -0.838   4.227  -1.857  0.00  0.00    -0.292 OA
ATOM      8  C   UNL     1      -2.326   3.186  -3.352  0.00  0.00    +0.086 C 
ATOM      9  C   UNL     1      -2.340   4.186   0.421  0.00  0.00    +0.141 C 
ATOM     10  C   UNL     1      -1.343   3.254   1.039  0.00  0.00    -0.002 A 
ATOM     11  C   UNL     1      -1.455   1.944   1.453  0.00  0.00    +0.007 A 
ATOM     12  C   UNL     1      -0.319   1.357   2.000  0.00  0.00    +0.000 A 
ATOM     13  C   UNL     1       0.868   2.053   2.110  0.00  0.00    +0.002 A 
ATOM     14  C   UNL     1       0.989   3.368   1.689  0.00  0.00    +0.023 A 
ATOM     15  C   UNL     1      -0.145   3.971   1.144  0.00  0.00    +0.038 A 
ATOM     16  N   UNL     1      -0.308   5.253   0.649  0.00  0.00    -0.284 N 
ATOM     17  C   UNL     1      -1.562   5.468   0.203  0.00  0.00    +0.238 C 
ATOM     18  O   UNL     1      -1.988   6.496  -0.281  0.00  0.00    -0.274 OA
ATOM     19  C   UNL     1      -3.487   4.435   1.353  0.00  0.00    +0.089 C 
ATOM     20  C   UNL     1      -4.701   3.864   1.133  0.00  0.00    +0.108 C 
ATOM     21  N   UNL     1      -4.892   3.050   0.039  0.00  0.00    -0.260 N 
ATOM     22  C   UNL     1      -3.808   1.540  -4.524  0.00  0.00    +0.011 C 
ATOM     23  H   UNL     1       0.398   5.919   0.626  0.00  0.00    +0.155 HD
ENDROOT
BRANCH  21  24
ATOM     24  C   UNL     1      -5.964   2.149   0.024  0.00  0.00    +0.040 A 
ATOM     25  C   UNL     1      -7.199   2.546  -0.473  0.00  0.00    +0.024 A 
ATOM     26  C   UNL     1      -8.252   1.653  -0.492  0.00  0.00    +0.014 A 
ATOM     27  C   UNL     1      -8.082   0.370  -0.007  0.00  0.00    +0.055 A 
ATOM     28  C   UNL     1      -6.855  -0.026   0.493  0.00  0.00    +0.014 A 
ATOM     29  C   UNL     1      -5.796   0.859   0.510  0.00  0.00    +0.024 A 
BRANCH  27  30
ATOM     30  C   UNL     1      -9.236  -0.599  -0.023  0.00  0.00    +0.417 C 
ATOM     31  F   UNL     1      -9.952  -0.492   1.174  0.00  0.00    -0.166 F 
ATOM     32  F   UNL     1     -10.080  -0.302  -1.099  0.00  0.00    -0.166 F 
ATOM     33  F   UNL     1      -8.748  -1.903  -0.159  0.00  0.00    -0.166 F 
ENDBRANCH  27  30
ENDBRANCH  21  24
BRANCH  20  34
ATOM     34  N   UNL     1      -5.739   4.099   2.003  0.00  0.00    -0.345 N 
ATOM     35  H   UNL     1      -6.579   3.627   1.895  0.00  0.00    +0.144 HD
ATOM     36  H   UNL     1      -5.630   4.736   2.726  0.00  0.00    +0.144 HD
ENDBRANCH  20  34
BRANCH  19  37
ATOM     37  C   UNL     1      -3.302   5.285   2.490  0.00  0.00    +0.100 C 
ATOM     38  N   UNL     1      -3.156   5.960   3.392  0.00  0.00    -0.191 NA
ENDBRANCH  19  37
TORSDOF 4
