REMARK  Name = ZINC36555923
REMARK  16 active torsions:
REMARK  status: ('A' for Active; 'I' for Inactive)
REMARK    1  A    between atoms: C_1  and  C_2
REMARK    2  A    between atoms: C_5  and  C_7
REMARK    3  A    between atoms: C_7  and  N_8
REMARK    4  A    between atoms: N_8  and  C_9
REMARK    5  A    between atoms: C_9  and  C_11
REMARK    6  A    between atoms: C_9  and  C_20
REMARK    7  A    between atoms: C_14  and  N_17
REMARK    8  A    between atoms: N_22  and  C_23
REMARK    9  A    between atoms: C_23  and  C_24
REMARK   10  A    between atoms: C_23  and  C_25
REMARK   11  A    between atoms: C_23  and  C_26
REMARK   12  A    between atoms: C_26  and  C_27
REMARK   13  A    between atoms: C_27  and  C_28
REMARK   14  A    between atoms: C_27  and  C_29
REMARK   15  A    between atoms: C_27  and  C_30
REMARK   16  A    between atoms: C_31  and  C_33
REMARK                            x       y       z     vdW  Elec       q    Type
REMARK                         _______ _______ _______ _____ _____    ______ ____
ROOT
ATOM      1  C   UNL     1       3.169  -3.056  -2.601  0.00  0.00    +0.193 C 
ENDROOT
BRANCH   1   2
ATOM      2  C   UNL     1       4.406  -3.064  -1.740  0.00  0.00    -0.018 A 
ATOM      3  C   UNL     1       4.299  -2.872  -0.375  0.00  0.00    +0.008 A 
ATOM      4  C   UNL     1       5.433  -2.879   0.415  0.00  0.00    +0.033 A 
ATOM      5  C   UNL     1       6.674  -3.078  -0.160  0.00  0.00    +0.126 A 
ATOM      6  C   UNL     1       6.781  -3.271  -1.524  0.00  0.00    +0.033 A 
ATOM      7  C   UNL     1       5.647  -3.268  -2.314  0.00  0.00    +0.008 A 
BRANCH   5   8
ATOM      8  N   UNL     1       7.889  -3.084   0.686  0.00  0.00    +0.056 N 
ATOM      9  O   UNL     1       7.795  -2.915   1.880  0.00  0.00    -0.126 OA
ATOM     10  O   UNL     1       8.975  -3.259   0.184  0.00  0.00    -0.126 OA
ENDBRANCH   5   8
ENDBRANCH   1   2
BRANCH   1  11
ATOM     11  C   UNL     1       2.832  -1.638  -2.983  0.00  0.00    +0.239 C 
ATOM     12  O   UNL     1       1.824  -1.118  -2.554  0.00  0.00    -0.273 OA
ATOM     13  N   UNL     1       3.650  -0.948  -3.802  0.00  0.00    -0.308 N 
ATOM     14  H   UNL     1       4.456  -1.364  -4.146  0.00  0.00    +0.149 HD
BRANCH  13  15
ATOM     15  C   UNL     1       3.322   0.431  -4.174  0.00  0.00    +0.030 C 
ATOM     16  C   UNL     1       2.100   0.434  -5.094  0.00  0.00    +0.031 C 
ATOM     17  C   UNL     1       3.012   1.239  -2.912  0.00  0.00    +0.031 C 
BRANCH  15  18
ATOM     18  C   UNL     1       4.511   1.059  -4.903  0.00  0.00    +0.031 C 
BRANCH  18  19
ATOM     19  C   UNL     1       5.806   0.696  -4.174  0.00  0.00    -0.036 C 
ATOM     20  C   UNL     1       6.152  -0.769  -4.449  0.00  0.00    +0.010 C 
ATOM     21  C   UNL     1       6.942   1.590  -4.675  0.00  0.00    +0.010 C 
ATOM     22  C   UNL     1       5.620   0.902  -2.670  0.00  0.00    +0.010 C 
ENDBRANCH  18  19
ENDBRANCH  15  18
ENDBRANCH  13  15
ENDBRANCH   1  11
BRANCH   1  23
ATOM     23  N   UNL     1       2.052  -3.641  -1.856  0.00  0.00    -0.278 N 
ATOM     24  C   UNL     1       1.593  -4.866  -2.180  0.00  0.00    +0.220 C 
ATOM     25  O   UNL     1       2.091  -5.476  -3.103  0.00  0.00    -0.275 OA
BRANCH  24  26
ATOM     26  C   UNL     1       0.462  -5.479  -1.395  0.00  0.00    +0.075 C 
ATOM     27  C   UNL     1       0.996  -6.018  -0.067  0.00  0.00    +0.013 C 
ATOM     28  C   UNL     1      -0.152  -6.641   0.730  0.00  0.00    +0.001 C 
ATOM     29  C   UNL     1      -0.769  -7.786  -0.075  0.00  0.00    +0.000 C 
ATOM     30  C   UNL     1      -1.304  -7.247  -1.403  0.00  0.00    +0.001 C 
ATOM     31  C   UNL     1      -0.155  -6.625  -2.200  0.00  0.00    +0.013 C 
ENDBRANCH  24  26
BRANCH  23  32
ATOM     32  C   UNL     1       1.432  -2.893  -0.759  0.00  0.00    +0.183 C 
BRANCH  32  37
ATOM     33  C   UNL     1      -2.098  -0.066  -2.994  0.00  0.00    +0.086 C 
ATOM     34  C   UNL     1      -1.449  -1.150  -2.171  0.00  0.00    +0.102 A 
ATOM     35  C   UNL     1      -2.095  -2.116  -1.494  0.00  0.00    +0.045 A 
ATOM     36  C   UNL     1      -1.106  -2.909  -0.868  0.00  0.00    +0.046 A 
ATOM     37  C   UNL     1       0.085  -2.379  -1.200  0.00  0.00    +0.122 A 
ATOM     38  O   UNL     1      -0.129  -1.317  -1.994  0.00  0.00    -0.463 OA
ENDBRANCH  32  37
ENDBRANCH  23  32
ENDBRANCH   1  23
TORSDOF 10
