REMARK  Name = ZINC08836161
REMARK  12 active torsions:
REMARK  status: ('A' for Active; 'I' for Inactive)
REMARK    1  A    between atoms: C_1  and  C_2
REMARK    2  A    between atoms: C_5  and  C_7
REMARK    3  A    between atoms: C_7  and  C_8
REMARK    4  A    between atoms: C_9  and  C_26
REMARK    5  A    between atoms: C_18  and  C_25
REMARK    6  A    between atoms: C_19  and  C_21
REMARK    7  A    between atoms: C_21  and  O_23
REMARK    8  A    between atoms: O_23  and  C_24
REMARK    9  A    between atoms: C_29  and  O_34
REMARK   10  A    between atoms: C_30  and  O_32
REMARK   11  A    between atoms: O_32  and  C_33
REMARK   12  A    between atoms: O_34  and  C_35
REMARK                            x       y       z     vdW  Elec       q    Type
REMARK                         _______ _______ _______ _____ _____    ______ ____
ROOT
ATOM      1  C   UNL     1       3.641  -2.575  -0.345  0.00  0.00    +0.080 C 
ATOM      2  C   UNL     1       4.451  -1.371   0.076  0.00  0.00    +0.152 C 
ATOM      3  N   UNL     1       5.841  -1.831   0.182  0.00  0.00    -0.232 N 
ATOM      4  C   UNL     1       5.869  -3.138  -0.133  0.00  0.00    +0.293 C 
ATOM      5  O   UNL     1       6.867  -3.831  -0.146  0.00  0.00    -0.266 OA
ATOM      6  C   UNL     1       4.508  -3.609  -0.456  0.00  0.00    +0.250 C 
ATOM      7  O   UNL     1       4.178  -4.873  -0.809  0.00  0.00    -0.282 OA
ATOM      8  C   UNL     1       6.928  -1.057   0.541  0.00  0.00    +0.169 A 
ATOM      9  N   UNL     1       8.193  -1.423   0.644  0.00  0.00    -0.229 NA
ATOM     10  C   UNL     1       9.124  -0.575   0.997  0.00  0.00    +0.062 A 
ATOM     11  C   UNL     1       8.708   0.725   1.255  0.00  0.00    +0.120 A 
ATOM     12  S   UNL     1       6.956   0.577   0.943  0.00  0.00    -0.045 S 
ATOM     13  C   UNL     1      10.569  -0.985   1.118  0.00  0.00    +0.067 C 
ENDROOT
BRANCH   2  14
ATOM     14  C   UNL     1       3.970  -0.864   1.411  0.00  0.00    -0.018 A 
ATOM     15  C   UNL     1       3.452   0.414   1.518  0.00  0.00    +0.009 A 
ATOM     16  C   UNL     1       3.009   0.884   2.740  0.00  0.00    +0.050 A 
ATOM     17  C   UNL     1       3.083   0.074   3.862  0.00  0.00    +0.162 A 
ATOM     18  C   UNL     1       3.604  -1.212   3.754  0.00  0.00    +0.162 A 
ATOM     19  C   UNL     1       4.041  -1.679   2.525  0.00  0.00    +0.055 A 
BRANCH  18  20
ATOM     20  O   UNL     1       3.678  -2.011   4.853  0.00  0.00    -0.491 OA
ATOM     21  C   UNL     1       4.319  -3.278   4.691  0.00  0.00    +0.277 C 
ENDBRANCH  18  20
BRANCH  17  22
ATOM     22  O   UNL     1       2.649   0.535   5.065  0.00  0.00    -0.491 OA
ATOM     23  C   UNL     1       2.127   1.865   5.100  0.00  0.00    +0.277 C 
ENDBRANCH  17  22
ENDBRANCH   2  14
BRANCH   1  24
ATOM     24  C   UNL     1       2.194  -2.617  -0.582  0.00  0.00    +0.230 C 
ATOM     25  O   UNL     1       1.641  -3.683  -0.791  0.00  0.00    -0.283 OA
BRANCH  24  30
ATOM     26  C   UNL     1       1.047   2.253  -0.409  0.00  0.00    +0.086 C 
ATOM     27  C   UNL     1       0.901   0.756  -0.491  0.00  0.00    +0.103 A 
ATOM     28  C   UNL     1      -0.270   0.085  -0.593  0.00  0.00    +0.045 A 
ATOM     29  C   UNL     1       0.039  -1.282  -0.642  0.00  0.00    +0.053 A 
ATOM     30  C   UNL     1       1.412  -1.377  -0.567  0.00  0.00    +0.175 A 
ATOM     31  O   UNL     1       1.909  -0.126  -0.481  0.00  0.00    -0.457 OA
ENDBRANCH  24  30
ENDBRANCH   1  24
BRANCH  11  32
ATOM     32  C   UNL     1       9.488   1.892   1.663  0.00  0.00    +0.347 C 
ATOM     33  O   UNL     1      10.690   1.794   1.824  0.00  0.00    -0.244 OA
BRANCH  32  34
ATOM     34  O   UNL     1       8.876   3.077   1.863  0.00  0.00    -0.464 OA
ATOM     35  C   UNL     1       9.700   4.175   2.261  0.00  0.00    +0.280 C 
ENDBRANCH  32  34
ENDBRANCH  11  32
TORSDOF 7
