REMARK  Name = ZINC21077806
REMARK  12 active torsions:
REMARK  status: ('A' for Active; 'I' for Inactive)
REMARK    1  A    between atoms: C_1  and  C_2
REMARK    2  A    between atoms: C_2  and  N_3
REMARK    3  A    between atoms: N_3  and  C_4
REMARK    4  A    between atoms: N_3  and  S_6
REMARK    5  A    between atoms: C_4  and  C_5
REMARK    6  A    between atoms: S_6  and  C_9
REMARK    7  A    between atoms: C_12  and  N_15
REMARK    8  A    between atoms: C_16  and  C_18
REMARK    9  A    between atoms: C_18  and  S_19
REMARK   10  A    between atoms: S_19  and  C_20
REMARK   11  A    between atoms: N_25  and  N_26
REMARK   12  A    between atoms: C_27  and  C_28
REMARK                            x       y       z     vdW  Elec       q    Type
REMARK                         _______ _______ _______ _____ _____    ______ ____
ROOT
ATOM      1  C   UNL     1      -0.799   4.069   0.035  0.00  0.00    +0.173 C 
ENDROOT
BRANCH   1   3
ATOM      2  N   UNL     1      -1.692   6.376   0.045  0.00  0.00    -0.285 N 
ATOM      3  C   UNL     1      -1.942   5.051   0.037  0.00  0.00    +0.227 C 
ATOM      4  O   UNL     1      -3.086   4.650   0.032  0.00  0.00    -0.275 OA
ATOM      5  H   UNL     1      -0.657   6.740   0.126  0.00  0.00    +0.155 HD
BRANCH   2   9
ATOM      6  C   UNL     1      -4.839   9.091  -0.239  0.00  0.00    +0.106 A 
ATOM      7  C   UNL     1      -5.011   7.904   0.449  0.00  0.00    +0.030 A 
ATOM      8  C   UNL     1      -3.970   7.002   0.545  0.00  0.00    +0.025 A 
ATOM      9  C   UNL     1      -2.749   7.288  -0.050  0.00  0.00    +0.034 A 
ATOM     10  C   UNL     1      -2.577   8.483  -0.736  0.00  0.00    +0.025 A 
ATOM     11  C   UNL     1      -3.624   9.378  -0.834  0.00  0.00    +0.030 A 
BRANCH   6  12
ATOM     12  S   UNL     1      -6.170  10.239  -0.359  0.00  0.00    +0.061 S 
ATOM     13  O   UNL     1      -5.925  11.025  -1.517  0.00  0.00    -0.153 OA
ATOM     14  O   UNL     1      -7.367   9.494  -0.184  0.00  0.00    -0.153 OA
BRANCH  12  15
ATOM     15  N   UNL     1      -6.054  11.261   0.939  0.00  0.00    -0.177 NA
BRANCH  15  17
ATOM     16  C   UNL     1      -6.191  13.656   0.466  0.00  0.00    +0.022 C 
ATOM     17  C   UNL     1      -5.268  12.493   0.835  0.00  0.00    +0.106 C 
ENDBRANCH  15  17
BRANCH  15  18
ATOM     18  C   UNL     1      -6.737  10.932   2.193  0.00  0.00    +0.106 C 
ATOM     19  C   UNL     1      -5.764  10.217   3.132  0.00  0.00    +0.022 C 
ENDBRANCH  15  18
ENDBRANCH  12  15
ENDBRANCH   6  12
ENDBRANCH   2   9
ENDBRANCH   1   3
BRANCH   1  20
ATOM     20  S   UNL     1      -1.455   2.378   0.024  0.00  0.00    -0.075 S 
BRANCH  20  21
ATOM     21  C   UNL     1      -0.016   1.362   0.022  0.00  0.00    +0.211 A 
ATOM     22  N   UNL     1       0.003  -0.004   0.015  0.00  0.00    -0.186 NA
ATOM     23  C   UNL     1       1.309  -0.409   0.010  0.00  0.00    +0.232 A 
ATOM     24  N   UNL     1       2.065   0.662   0.014  0.00  0.00    -0.245 N 
ATOM     25  N   UNL     1       1.226   1.784   0.022  0.00  0.00    -0.144 NA
ATOM     26  N   UNL     1       1.755  -1.722   0.002  0.00  0.00    -0.205 N 
ATOM     27  H   UNL     1       1.030  -2.550  -0.002  0.00  0.00    +0.177 HD
ATOM     28  H   UNL     1       3.160   0.562   0.011  0.00  0.00    +0.192 HD
BRANCH  26  29
ATOM     29  N   UNL     1       3.130  -1.995  -0.003  0.00  0.00    -0.188 NA
ATOM     30  C   UNL     1       3.548  -3.224  -0.011  0.00  0.00    +0.138 C 
BRANCH  30  31
ATOM     31  C   UNL     1       4.994  -3.511  -0.015  0.00  0.00    -0.005 A 
ATOM     32  C   UNL     1       5.917  -2.463  -0.017  0.00  0.00    +0.011 A 
ATOM     33  C   UNL     1       7.268  -2.738  -0.015  0.00  0.00    +0.020 A 
ATOM     34  C   UNL     1       7.711  -4.050  -0.025  0.00  0.00    +0.041 A 
ATOM     35  C   UNL     1       6.801  -5.094  -0.028  0.00  0.00    +0.020 A 
ATOM     36  C   UNL     1       5.447  -4.833  -0.024  0.00  0.00    +0.011 A 
ATOM     37 CL   UNL     1       9.414  -4.388  -0.030  0.00  0.00    -0.084 Cl
ENDBRANCH  30  31
ENDBRANCH  26  29
ENDBRANCH  20  21
ENDBRANCH   1  20
TORSDOF 10
