REMARK  Name = ZINC39584765
REMARK  7 active torsions:
REMARK  status: ('A' for Active; 'I' for Inactive)
REMARK    1  A    between atoms: C_4  and  C_7
REMARK    2  A    between atoms: C_11  and  S_21
REMARK    3  A    between atoms: N_13  and  C_14
REMARK    4  A    between atoms: S_21  and  C_22
REMARK    5  A    between atoms: C_22  and  C_23
REMARK    6  A    between atoms: N_25  and  N_26
REMARK    7  A    between atoms: C_27  and  C_28
REMARK                            x       y       z     vdW  Elec       q    Type
REMARK                         _______ _______ _______ _____ _____    ______ ____
ROOT
ATOM      1  C   UNL     1       3.877  -0.817  -0.153  0.00  0.00    +0.188 C 
ATOM      2  N   UNL     1       4.859   0.060   0.524  0.00  0.00    -0.230 NA
ATOM      3  N   UNL     1       4.689  -0.236   1.955  0.00  0.00    -0.226 NA
ATOM      4  C   UNL     1       4.440  -1.701   1.966  0.00  0.00    +0.218 C 
ATOM      5  N   UNL     1       3.611  -1.939   0.765  0.00  0.00    -0.284 N 
ATOM      6  H   UNL     1       4.669   1.032   0.331  0.00  0.00    +0.143 HD
ATOM      7  H   UNL     1       3.902   0.267   2.338  0.00  0.00    +0.143 HD
ENDROOT
BRANCH   5   8
ATOM      8  C   UNL     1       2.746  -3.014   0.544  0.00  0.00    +0.033 A 
ATOM      9  C   UNL     1       1.939  -3.036  -0.586  0.00  0.00    +0.024 A 
ATOM     10  C   UNL     1       1.086  -4.100  -0.803  0.00  0.00    +0.022 A 
ATOM     11  C   UNL     1       1.034  -5.143   0.105  0.00  0.00    +0.041 A 
ATOM     12  C   UNL     1       1.837  -5.123   1.232  0.00  0.00    +0.022 A 
ATOM     13  C   UNL     1       2.696  -4.064   1.451  0.00  0.00    +0.024 A 
ATOM     14 CL   UNL     1      -0.042  -6.478  -0.169  0.00  0.00    -0.084 Cl
ENDBRANCH   5   8
BRANCH   1  18
ATOM     15  C   UNL     1       0.270   1.341  -0.912  0.00  0.00    +0.000 A 
ATOM     16  C   UNL     1       0.727   1.194   0.384  0.00  0.00    +0.000 A 
ATOM     17  C   UNL     1       1.895   0.495   0.630  0.00  0.00    +0.007 A 
ATOM     18  C   UNL     1       2.604  -0.056  -0.420  0.00  0.00    -0.012 A 
ATOM     19  C   UNL     1       2.146   0.090  -1.716  0.00  0.00    +0.007 A 
ATOM     20  C   UNL     1       0.979   0.789  -1.962  0.00  0.00    +0.000 A 
ENDBRANCH   1  18
BRANCH   4  21
ATOM     21  S   UNL     1       3.542  -2.182   3.466  0.00  0.00    -0.112 S 
BRANCH  21  22
ATOM     22  C   UNL     1       2.015  -1.206   3.395  0.00  0.00    +0.169 C 
BRANCH  22  23
ATOM     23  C   UNL     1       1.165  -1.514   4.601  0.00  0.00    +0.242 C 
ATOM     24  O   UNL     1       1.551  -2.313   5.427  0.00  0.00    -0.273 OA
ATOM     25  N   UNL     1      -0.025  -0.902   4.761  0.00  0.00    -0.206 N 
ATOM     26  H   UNL     1      -0.334  -0.263   4.101  0.00  0.00    +0.177 HD
BRANCH  25  27
ATOM     27  N   UNL     1      -0.815  -1.188   5.882  0.00  0.00    -0.188 NA
ATOM     28  C   UNL     1      -1.971  -0.593   6.038  0.00  0.00    +0.136 C 
BRANCH  28  29
ATOM     29  C   UNL     1      -2.762  -0.880   7.160  0.00  0.00    +0.000 C 
ATOM     30  C   UNL     1      -4.009  -0.343   7.471  0.00  0.00    +0.004 A 
ATOM     31  C   UNL     1      -4.833   0.597   6.814  0.00  0.00    +0.010 A 
ATOM     32  C   UNL     1      -6.026   0.942   7.360  0.00  0.00    +0.001 A 
ATOM     33  C   UNL     1      -6.468   0.389   8.566  0.00  0.00    +0.002 A 
ATOM     34  C   UNL     1      -5.730  -0.517   9.250  0.00  0.00    +0.026 A 
ATOM     35  C   UNL     1      -4.469  -0.929   8.742  0.00  0.00    +0.043 A 
ATOM     36  N   UNL     1      -3.578  -1.779   9.207  0.00  0.00    -0.380 N 
ATOM     37  C   UNL     1      -2.442  -1.843   8.282  0.00  0.00    +0.150 C 
ATOM     38  H   UNL     1      -3.662  -2.286  10.029  0.00  0.00    +0.160 HD
ENDBRANCH  28  29
ENDBRANCH  25  27
ENDBRANCH  22  23
ENDBRANCH  21  22
ENDBRANCH   4  21
TORSDOF 7
