REMARK  Name = ZINC39252491
REMARK  10 active torsions:
REMARK  status: ('A' for Active; 'I' for Inactive)
REMARK    1  A    between atoms: C_1  and  C_2
REMARK    2  A    between atoms: C_2  and  C_3
REMARK    3  A    between atoms: C_3  and  C_4
REMARK    4  A    between atoms: C_8  and  N_11
REMARK    5  A    between atoms: C_12  and  C_14
REMARK    6  A    between atoms: N_19  and  C_21
REMARK    7  A    between atoms: C_21  and  C_22
REMARK    8  A    between atoms: C_22  and  C_23
REMARK    9  A    between atoms: C_26  and  O_32
REMARK   10  A    between atoms: O_32  and  C_33
REMARK                            x       y       z     vdW  Elec       q    Type
REMARK                         _______ _______ _______ _____ _____    ______ ____
ROOT
ATOM      1  C   UNL     1      -1.784  -4.622   6.169  0.00  0.00    +0.101 C 
ATOM      2  C   UNL     1      -1.089  -3.478   6.943  0.00  0.00    +0.110 C 
ATOM      3  C   UNL     1      -1.119  -3.933   8.385  0.00  0.00    +0.216 C 
ATOM      4  O   UNL     1      -0.931  -3.215   9.344  0.00  0.00    -0.276 OA
ATOM      5  N   UNL     1      -1.383  -5.250   8.449  0.00  0.00    -0.300 N 
ATOM      6  C   UNL     1      -1.550  -5.826   7.109  0.00  0.00    +0.121 C 
ENDROOT
BRANCH   1   8
ATOM      7  N   UNL     1      -1.165  -3.880   3.893  0.00  0.00    -0.290 N 
ATOM      8  C   UNL     1      -1.127  -4.846   4.832  0.00  0.00    +0.220 C 
ATOM      9  O   UNL     1      -0.565  -5.895   4.600  0.00  0.00    -0.275 OA
ATOM     10  H   UNL     1      -1.615  -3.041   4.077  0.00  0.00    +0.151 HD
BRANCH   7  14
ATOM     11  C   UNL     1       0.763  -2.041   1.233  0.00  0.00    +0.130 C 
ATOM     12  N   UNL     1       1.387  -2.586   2.480  0.00  0.00    -0.241 NA
ATOM     13  N   UNL     1       0.954  -3.961   2.694  0.00  0.00    -0.227 NA
ATOM     14  C   UNL     1      -0.526  -4.098   2.592  0.00  0.00    +0.216 C 
ATOM     15  S   UNL     1      -0.936  -2.739   1.415  0.00  0.00    -0.102 S 
ATOM     16  H   UNL     1       2.394  -2.526   2.436  0.00  0.00    +0.142 HD
ATOM     17  H   UNL     1       1.419  -4.590   2.057  0.00  0.00    +0.143 HD
BRANCH  11  18
ATOM     18  C   UNL     1       0.742  -0.511   1.242  0.00  0.00    +0.031 C 
BRANCH  18  20
ATOM     19  C   UNL     1      -0.019   1.526   0.010  0.00  0.00    +0.004 C 
ATOM     20  C   UNL     1       0.002  -0.004   0.002  0.00  0.00    -0.001 C 
ENDBRANCH  18  20
ENDBRANCH  11  18
ENDBRANCH   7  14
ENDBRANCH   1   8
BRANCH   5  21
ATOM     21  C   UNL     1      -1.492  -6.012   9.695  0.00  0.00    +0.112 C 
BRANCH  21  22
ATOM     22  C   UNL     1      -2.943  -5.991  10.180  0.00  0.00    +0.056 C 
BRANCH  22  23
ATOM     23  C   UNL     1      -3.055  -6.775  11.463  0.00  0.00    -0.021 A 
ATOM     24  C   UNL     1      -2.800  -6.273  12.815  0.00  0.00    +0.006 A 
ATOM     25  C   UNL     1      -2.409  -5.037  13.333  0.00  0.00    +0.056 A 
ATOM     26  C   UNL     1      -2.252  -4.886  14.696  0.00  0.00    +0.121 A 
ATOM     27  C   UNL     1      -2.482  -5.961  15.552  0.00  0.00    +0.047 A 
ATOM     28  C   UNL     1      -2.867  -7.185  15.052  0.00  0.00    +0.030 A 
ATOM     29  C   UNL     1      -3.031  -7.356  13.682  0.00  0.00    +0.047 A 
ATOM     30  N   UNL     1      -3.400  -8.431  12.900  0.00  0.00    -0.360 N 
ATOM     31  C   UNL     1      -3.414  -8.063  11.582  0.00  0.00    +0.087 A 
ATOM     32  H   UNL     1      -3.620  -9.314  13.234  0.00  0.00    +0.165 HD
BRANCH  26  33
ATOM     33  O   UNL     1      -1.871  -3.684  15.206  0.00  0.00    -0.495 OA
ATOM     34  C   UNL     1      -1.727  -3.598  16.625  0.00  0.00    +0.277 C 
ENDBRANCH  26  33
ENDBRANCH  22  23
ENDBRANCH  21  22
ENDBRANCH   5  21
TORSDOF 8
