REMARK  Name = ZINC39836523
REMARK  10 active torsions:
REMARK  status: ('A' for Active; 'I' for Inactive)
REMARK    1  A    between atoms: C_1  and  C_2
REMARK    2  A    between atoms: C_2  and  C_3
REMARK    3  A    between atoms: C_2  and  C_4
REMARK    4  A    between atoms: N_6  and  C_7
REMARK    5  A    between atoms: C_8  and  C_21
REMARK    6  A    between atoms: C_13  and  C_17
REMARK    7  A    between atoms: C_17  and  C_18
REMARK    8  A    between atoms: C_17  and  C_19
REMARK    9  A    between atoms: C_17  and  C_20
REMARK   10  A    between atoms: N_23  and  C_24
REMARK                            x       y       z     vdW  Elec       q    Type
REMARK                         _______ _______ _______ _____ _____    ______ ____
ROOT
ATOM      1  C   UNL     1      -3.556  -0.686  -0.979  0.00  0.00    +0.084 A 
ATOM      2  C   UNL     1      -4.552  -0.468  -1.917  0.00  0.00    +0.069 A 
ATOM      3  C   UNL     1      -5.843  -1.088  -1.673  0.00  0.00    -0.023 A 
ATOM      4  C   UNL     1      -5.901  -1.813  -0.535  0.00  0.00    -0.004 A 
ATOM      5  S   UNL     1      -4.285  -1.671   0.170  0.00  0.00    -0.077 S 
ATOM      6  C   UNL     1      -7.082  -2.567  -0.008  0.00  0.00    +0.046 C 
ATOM      7  C   UNL     1      -8.334  -2.088  -0.759  0.00  0.00    -0.000 C 
ATOM      8  C   UNL     1      -8.038  -2.081  -2.261  0.00  0.00    +0.009 C 
ATOM      9  C   UNL     1      -7.049  -0.961  -2.592  0.00  0.00    +0.037 C 
ENDROOT
BRANCH   1  12
ATOM     10  C   UNL     1      -1.412  -0.526   0.013  0.00  0.00    +0.220 C 
ATOM     11  O   UNL     1      -1.790  -1.233   0.922  0.00  0.00    -0.275 OA
ATOM     12  N   UNL     1      -2.256  -0.206  -0.988  0.00  0.00    -0.279 N 
ATOM     13  H   UNL     1      -1.953   0.360  -1.716  0.00  0.00    +0.155 HD
BRANCH  10  15
ATOM     14  C   UNL     1      -0.019   1.526   0.010  0.00  0.00    +0.017 C 
ATOM     15  C   UNL     1       0.002  -0.004   0.002  0.00  0.00    +0.069 C 
ATOM     16  C   UNL     1       0.742  -0.511   1.242  0.00  0.00    +0.017 C 
ENDBRANCH  10  15
ENDBRANCH   1  12
BRANCH   7  17
ATOM     17  C   UNL     1      -9.499  -3.036  -0.468  0.00  0.00    -0.035 C 
ATOM     18  C   UNL     1      -9.782  -3.050   1.035  0.00  0.00    +0.011 C 
ATOM     19  C   UNL     1     -10.745  -2.557  -1.217  0.00  0.00    +0.011 C 
ATOM     20  C   UNL     1      -9.137  -4.448  -0.933  0.00  0.00    +0.011 C 
ENDBRANCH   7  17
BRANCH   2  21
ATOM     21  C   UNL     1      -4.314   0.356  -3.107  0.00  0.00    +0.247 C 
ATOM     22  O   UNL     1      -3.903  -0.158  -4.131  0.00  0.00    -0.270 OA
ATOM     23  N   UNL     1      -4.549   1.682  -3.066  0.00  0.00    -0.307 N 
ATOM     24  H   UNL     1      -4.876   2.092  -2.250  0.00  0.00    +0.149 HD
BRANCH  23  25
ATOM     25  C   UNL     1      -4.310   2.505  -4.255  0.00  0.00    +0.096 C 
ATOM     26  C   UNL     1      -2.839   2.950  -4.291  0.00  0.00    +0.046 C 
ATOM     27  C   UNL     1      -2.651   4.066  -5.347  0.00  0.00    +0.168 C 
ATOM     28  S   UNL     1      -4.306   4.868  -5.386  0.00  0.00    -0.029 S 
ATOM     29  O   UNL     1      -4.870   4.703  -6.680  0.00  0.00    -0.174 OA
ATOM     30  O   UNL     1      -4.201   6.172  -4.830  0.00  0.00    -0.174 OA
ATOM     31  C   UNL     1      -5.200   3.780  -4.199  0.00  0.00    +0.188 C 
ENDBRANCH  23  25
ENDBRANCH   2  21
TORSDOF 5
