REMARK  Name = ZINC66653550
REMARK  12 active torsions:
REMARK  status: ('A' for Active; 'I' for Inactive)
REMARK    1  A    between atoms: C_1  and  C_2
REMARK    2  A    between atoms: C_2  and  C_3
REMARK    3  A    between atoms: C_2  and  C_4
REMARK    4  A    between atoms: C_4  and  C_6
REMARK    5  A    between atoms: C_4  and  N_21
REMARK    6  A    between atoms: N_8  and  N_9
REMARK    7  A    between atoms: N_9  and  C_10
REMARK    8  A    between atoms: C_10  and  N_12
REMARK    9  A    between atoms: N_12  and  C_13
REMARK   10  A    between atoms: C_17  and  C_19
REMARK   11  A    between atoms: C_22  and  O_24
REMARK   12  A    between atoms: O_24  and  C_25
REMARK                            x       y       z     vdW  Elec       q    Type
REMARK                         _______ _______ _______ _____ _____    ______ ____
ROOT
ATOM      1  C   UNL     1      -1.986  -0.200  -1.257  0.00  0.00    +0.250 C 
ATOM      2  O   UNL     1      -2.723  -1.043  -1.722  0.00  0.00    -0.272 OA
ATOM      3  N   UNL     1      -2.140   1.094  -1.601  0.00  0.00    -0.234 N 
ATOM      4  H   UNL     1      -1.601   1.777  -1.171  0.00  0.00    +0.173 HD
ENDROOT
BRANCH   3   5
ATOM      5  N   UNL     1      -3.078   1.452  -2.577  0.00  0.00    -0.246 N 
ATOM      6  H   UNL     1      -3.616   0.769  -3.007  0.00  0.00    +0.172 HD
BRANCH   5   7
ATOM      7  C   UNL     1      -3.232   2.747  -2.921  0.00  0.00    +0.151 C 
ATOM      8  S   UNL     1      -4.378   3.185  -4.115  0.00  0.00    -0.017 S 
BRANCH   7   9
ATOM      9  N   UNL     1      -2.484   3.696  -2.324  0.00  0.00    -0.296 N 
ATOM     10  H   UNL     1      -1.786   3.442  -1.700  0.00  0.00    +0.154 HD
BRANCH   9  11
ATOM     11  C   UNL     1      -2.714   5.047  -2.605  0.00  0.00    +0.034 A 
ATOM     12  C   UNL     1      -4.016   5.529  -2.684  0.00  0.00    +0.023 A 
ATOM     13  C   UNL     1      -4.248   6.862  -2.960  0.00  0.00    +0.003 A 
ATOM     14  C   UNL     1      -3.189   7.725  -3.161  0.00  0.00    +0.017 A 
ATOM     15  C   UNL     1      -1.879   7.251  -3.084  0.00  0.00    +0.026 A 
ATOM     16  C   UNL     1      -1.644   5.906  -2.800  0.00  0.00    +0.040 A 
BRANCH  15  17
ATOM     17  C   UNL     1      -0.779   8.144  -3.292  0.00  0.00    -0.070 C 
ATOM     18  C   UNL     1       0.123   8.876  -3.463  0.00  0.00    +0.009 C 
ENDBRANCH  15  17
ENDBRANCH   9  11
ENDBRANCH   7   9
ENDBRANCH   5   7
ENDBRANCH   3   5
BRANCH   1  19
ATOM     19  C   UNL     1      -0.897  -0.600  -0.295  0.00  0.00    +0.166 C 
BRANCH  19  20
ATOM     20  N   UNL     1      -1.187  -1.930   0.246  0.00  0.00    -0.270 N 
ATOM     21  C   UNL     1      -0.688  -2.294   1.444  0.00  0.00    +0.401 C 
ATOM     22  O   UNL     1       0.003  -1.519   2.075  0.00  0.00    -0.226 OA
ATOM     23  H   UNL     1      -1.739  -2.549  -0.258  0.00  0.00    +0.153 HD
BRANCH  21  24
ATOM     24  O   UNL     1      -0.955  -3.517   1.941  0.00  0.00    -0.454 OA
ATOM     25  C   UNL     1      -0.393  -3.835   3.216  0.00  0.00    +0.282 C 
ENDBRANCH  21  24
ENDBRANCH  19  20
BRANCH  19  27
ATOM     26  C   UNL     1       1.569  -0.899  -0.025  0.00  0.00    +0.009 C 
ATOM     27  C   UNL     1       0.446  -0.629  -1.028  0.00  0.00    +0.012 C 
ATOM     28  C   UNL     1       0.427  -1.738  -2.083  0.00  0.00    +0.009 C 
ENDBRANCH  19  27
ENDBRANCH   1  19
TORSDOF 9
