REMARK  Name = ZINC07275303
REMARK  9 active torsions:
REMARK  status: ('A' for Active; 'I' for Inactive)
REMARK    1  A    between atoms: C_1  and  O_2
REMARK    2  A    between atoms: O_2  and  C_3
REMARK    3  A    between atoms: C_6  and  N_11
REMARK    4  A    between atoms: C_7  and  O_9
REMARK    5  A    between atoms: O_9  and  C_10
REMARK    6  A    between atoms: N_11  and  C_12
REMARK    7  A    between atoms: C_17  and  C_18
REMARK    8  A    between atoms: C_21  and  O_25
REMARK    9  A    between atoms: C_22  and  O_24
REMARK                            x       y       z     vdW  Elec       q    Type
REMARK                         _______ _______ _______ _____ _____    ______ ____
ROOT
ATOM      1  C   UNL     1      -6.032  -1.665   1.167  0.00  0.00    +0.176 C 
ATOM      2  N   UNL     1      -6.207  -0.370   0.950  0.00  0.00    -0.152 NA
ATOM      3  C   UNL     1      -7.392   0.153   0.723  0.00  0.00    +0.276 C 
ATOM      4  O   UNL     1      -7.540   1.348   0.524  0.00  0.00    -0.267 OA
ATOM      5  C   UNL     1      -8.536  -0.788   0.721  0.00  0.00    +0.079 C 
ATOM      6  C   UNL     1      -9.857  -0.550   0.518  0.00  0.00    +0.028 C 
ATOM      7  S   UNL     1      -7.687  -2.327   1.052  0.00  0.00    -0.050 S 
ENDROOT
BRANCH   6   8
ATOM      8  C   UNL     1     -10.837  -1.623   0.725  0.00  0.00    -0.020 A 
ATOM      9  C   UNL     1     -10.440  -2.834   1.306  0.00  0.00    +0.012 A 
ATOM     10  C   UNL     1     -11.361  -3.839   1.499  0.00  0.00    +0.050 A 
ATOM     11  C   UNL     1     -12.684  -3.656   1.119  0.00  0.00    +0.158 A 
ATOM     12  C   UNL     1     -13.088  -2.454   0.539  0.00  0.00    +0.159 A 
ATOM     13  C   UNL     1     -12.172  -1.438   0.348  0.00  0.00    +0.057 A 
BRANCH  12  14
ATOM     14  O   UNL     1     -14.384  -2.280   0.168  0.00  0.00    -0.503 OA
ATOM     15  H   UNL     1     -14.945  -1.906   0.861  0.00  0.00    +0.292 HD
ENDBRANCH  12  14
BRANCH  11  16
ATOM     16  O   UNL     1     -13.588  -4.652   1.311  0.00  0.00    -0.503 OA
ATOM     17  H   UNL     1     -14.035  -4.617   2.168  0.00  0.00    +0.292 HD
ENDBRANCH  11  16
ENDBRANCH   6   8
BRANCH   1  18
ATOM     18  N   UNL     1      -4.864  -2.335   1.414  0.00  0.00    -0.188 NA
BRANCH  18  22
ATOM     19  C   UNL     1      -1.363  -0.204   2.209  0.00  0.00    +0.124 A 
ATOM     20  C   UNL     1      -2.601   0.374   2.453  0.00  0.00    +0.048 A 
ATOM     21  C   UNL     1      -3.760  -0.331   2.190  0.00  0.00    +0.032 A 
ATOM     22  C   UNL     1      -3.688  -1.619   1.681  0.00  0.00    +0.097 A 
ATOM     23  C   UNL     1      -2.446  -2.201   1.434  0.00  0.00    +0.146 A 
ATOM     24  C   UNL     1      -1.287  -1.490   1.694  0.00  0.00    +0.093 A 
BRANCH  19  26
ATOM     25  C   UNL     1      -0.378   1.811   2.998  0.00  0.00    +0.277 C 
ATOM     26  O   UNL     1      -0.225   0.492   2.469  0.00  0.00    -0.495 OA
ENDBRANCH  19  26
BRANCH  23  27
ATOM     27  O   UNL     1      -2.373  -3.464   0.935  0.00  0.00    -0.493 OA
ATOM     28  C   UNL     1      -1.067  -3.997   0.708  0.00  0.00    +0.277 C 
ENDBRANCH  23  27
ENDBRANCH  18  22
ENDBRANCH   1  18
TORSDOF 7
