REMARK  Name = ZINC22227601
REMARK  7 active torsions:
REMARK  status: ('A' for Active; 'I' for Inactive)
REMARK    1  A    between atoms: C_4  and  O_22
REMARK    2  A    between atoms: C_5  and  C_7
REMARK    3  A    between atoms: C_7  and  S_8
REMARK    4  A    between atoms: S_8  and  C_9
REMARK    5  A    between atoms: C_12  and  C_15
REMARK    6  A    between atoms: N_13  and  N_14
REMARK    7  A    between atoms: O_22  and  C_23
REMARK                            x       y       z     vdW  Elec       q    Type
REMARK                         _______ _______ _______ _____ _____    ______ ____
ROOT
ATOM      1  C   UNL     1       2.041   0.776  -0.095  0.00  0.00    +0.209 A 
ATOM      2  N   UNL     1       1.188   1.760   0.085  0.00  0.00    -0.121 NA
ATOM      3  N   UNL     1      -0.010   1.299   0.144  0.00  0.00    -0.127 NA
ATOM      4  C   UNL     1       0.004  -0.006   0.005  0.00  0.00    +0.183 A 
ATOM      5  N   UNL     1       1.318  -0.381  -0.152  0.00  0.00    -0.224 N 
ENDROOT
BRANCH   4   6
ATOM      6  C   UNL     1      -1.171  -0.904   0.016  0.00  0.00    +0.035 A 
ATOM      7  C   UNL     1      -1.157  -2.068   0.787  0.00  0.00    +0.013 A 
ATOM      8  C   UNL     1      -2.256  -2.901   0.792  0.00  0.00    +0.001 A 
ATOM      9  C   UNL     1      -3.372  -2.586   0.037  0.00  0.00    +0.001 A 
ATOM     10  C   UNL     1      -3.393  -1.434  -0.730  0.00  0.00    +0.016 A 
ATOM     11  C   UNL     1      -2.301  -0.588  -0.740  0.00  0.00    +0.029 A 
ATOM     12 BR   UNL     1      -2.335   0.990  -1.781  0.00  0.00    -0.050 Br
ENDBRANCH   4   6
BRANCH   5  13
ATOM     13  N   UNL     1       1.800  -1.647  -0.329  0.00  0.00    -0.295 N 
ATOM     14  H   UNL     1       1.106  -2.501  -0.357  0.00  0.00    +0.163 HD
ATOM     15  H   UNL     1       2.881  -1.813  -0.444  0.00  0.00    +0.163 HD
ENDBRANCH   5  13
BRANCH   1  16
ATOM     16  S   UNL     1       3.791   0.923  -0.237  0.00  0.00    -0.080 S 
BRANCH  16  17
ATOM     17  C   UNL     1       3.971   2.716  -0.064  0.00  0.00    +0.116 C 
BRANCH  17  22
ATOM     18  C   UNL     1       7.542   3.471   0.902  0.00  0.00    +0.001 A 
ATOM     19  C   UNL     1       8.106   3.767  -0.325  0.00  0.00    +0.004 A 
ATOM     20  C   UNL     1       7.335   3.724  -1.470  0.00  0.00    +0.046 A 
ATOM     21  C   UNL     1       5.993   3.383  -1.388  0.00  0.00    +0.131 A 
ATOM     22  C   UNL     1       5.428   3.086  -0.156  0.00  0.00    +0.005 A 
ATOM     23  C   UNL     1       6.203   3.136   0.987  0.00  0.00    +0.008 A 
BRANCH  21  24
ATOM     24  O   UNL     1       5.232   3.340  -2.514  0.00  0.00    -0.434 OA
BRANCH  24  25
ATOM     25  C   UNL     1       5.879   3.657  -3.747  0.00  0.00    +0.541 C 
ATOM     26  F   UNL     1       6.387   4.959  -3.686  0.00  0.00    -0.166 F 
ATOM     27  F   UNL     1       6.928   2.757  -3.968  0.00  0.00    -0.166 F 
ENDBRANCH  24  25
ENDBRANCH  21  24
ENDBRANCH  17  22
ENDBRANCH  16  17
ENDBRANCH   1  16
TORSDOF 7
