REMARK  Name = ZINC04287977
REMARK  5 active torsions:
REMARK  status: ('A' for Active; 'I' for Inactive)
REMARK    1  A    between atoms: C_6  and  C_10
REMARK    2  A    between atoms: C_10  and  S_11
REMARK    3  A    between atoms: S_11  and  C_12
REMARK    4  A    between atoms: C_15  and  C_18
REMARK    5  A    between atoms: N_16  and  N_17
REMARK                            x       y       z     vdW  Elec       q    Type
REMARK                         _______ _______ _______ _____ _____    ______ ____
ROOT
ATOM      1  C   UNL     1       3.449   8.637   1.429  0.00  0.00    +0.209 A 
ATOM      2  N   UNL     1       3.726   9.163   0.257  0.00  0.00    -0.121 NA
ATOM      3  N   UNL     1       4.343  10.280   0.410  0.00  0.00    -0.127 NA
ATOM      4  C   UNL     1       4.500  10.534   1.688  0.00  0.00    +0.182 A 
ATOM      5  N   UNL     1       3.927   9.493   2.380  0.00  0.00    -0.224 N 
ENDROOT
BRANCH   4   6
ATOM      6  C   UNL     1       5.161  11.720   2.273  0.00  0.00    +0.021 A 
ATOM      7  C   UNL     1       5.530  11.724   3.619  0.00  0.00    +0.013 A 
ATOM      8  C   UNL     1       6.150  12.832   4.159  0.00  0.00    +0.021 A 
ATOM      9  C   UNL     1       6.399  13.942   3.369  0.00  0.00    +0.041 A 
ATOM     10  C   UNL     1       6.032  13.946   2.034  0.00  0.00    +0.021 A 
ATOM     11  C   UNL     1       5.415  12.842   1.483  0.00  0.00    +0.013 A 
ATOM     12 CL   UNL     1       7.175  15.335   4.057  0.00  0.00    -0.084 Cl
ENDBRANCH   4   6
BRANCH   5  13
ATOM     13  N   UNL     1       3.854   9.344   3.736  0.00  0.00    -0.295 N 
ATOM     14  H   UNL     1       4.660   8.850   4.090  0.00  0.00    +0.163 HD
ATOM     15  H   UNL     1       3.748  10.237   4.193  0.00  0.00    +0.163 HD
ENDBRANCH   5  13
BRANCH   1  16
ATOM     16  S   UNL     1       2.612   7.114   1.720  0.00  0.00    -0.078 S 
BRANCH  16  17
ATOM     17  C   UNL     1       2.304   6.594   0.014  0.00  0.00    +0.134 C 
BRANCH  17  23
ATOM     18  C   UNL     1      -1.240   1.758   0.018  0.00  0.00    +0.005 A 
ATOM     19  C   UNL     1      -0.013   1.076   0.008  0.00  0.00    +0.018 A 
ATOM     20  C   UNL     1       1.149   1.763   0.001  0.00  0.00    +0.092 A 
ATOM     21  N   UNL     1       1.148   3.128   0.007  0.00  0.00    -0.306 N 
ATOM     22  C   UNL     1       2.156   4.054   0.002  0.00  0.00    +0.116 A 
ATOM     23  C   UNL     1       1.576   5.274   0.014  0.00  0.00    +0.070 A 
ATOM     24  N   UNL     1       0.250   5.117   0.026  0.00  0.00    -0.232 NA
ATOM     25  C   UNL     1      -0.034   3.822   0.022  0.00  0.00    +0.138 A 
ATOM     26  C   UNL     1      -1.255   3.119   0.031  0.00  0.00    +0.047 A 
ENDBRANCH  17  23
ENDBRANCH  16  17
ENDBRANCH   1  16
TORSDOF 5
