REMARK  Name = ZINC41512019
REMARK  10 active torsions:
REMARK  status: ('A' for Active; 'I' for Inactive)
REMARK    1  A    between atoms: C_1  and  C_2
REMARK    2  A    between atoms: C_4  and  O_32
REMARK    3  A    between atoms: C_5  and  C_23
REMARK    4  A    between atoms: C_11  and  C_12
REMARK    5  A    between atoms: C_15  and  O_20
REMARK    6  A    between atoms: C_16  and  O_18
REMARK    7  A    between atoms: O_18  and  C_19
REMARK    8  A    between atoms: O_20  and  C_21
REMARK    9  A    between atoms: C_23  and  N_24
REMARK   10  A    between atoms: C_28  and  C_31
REMARK                            x       y       z     vdW  Elec       q    Type
REMARK                         _______ _______ _______ _____ _____    ______ ____
ROOT
ATOM      1  C   UNL     1       1.085   1.375   0.035  0.00  0.00    +0.045 C 
ATOM      2  C   UNL     1       0.697  -0.081   0.017  0.00  0.00    -0.033 A 
ATOM      3  C   UNL     1       0.577  -0.742  -1.173  0.00  0.00    +0.050 A 
ATOM      4  C   UNL     1       0.219  -2.087  -1.192  0.00  0.00    +0.122 A 
ATOM      5  C   UNL     1      -0.020  -2.770  -0.010  0.00  0.00    +0.020 A 
ATOM      6  C   UNL     1       0.097  -2.112   1.208  0.00  0.00    +0.145 A 
ATOM      7  C   UNL     1       0.465  -0.757   1.215  0.00  0.00    +0.071 A 
ATOM      8  C   UNL     1       0.514  -0.347   2.630  0.00  0.00    +0.232 C 
ATOM      9  O   UNL     1       0.788   0.753   3.079  0.00  0.00    -0.283 OA
ATOM     10  C   UNL     1       0.158  -1.561   3.378  0.00  0.00    +0.176 C 
ATOM     11  C   UNL     1       0.069  -1.674   4.728  0.00  0.00    +0.058 C 
ATOM     12  O   UNL     1      -0.080  -2.542   2.476  0.00  0.00    -0.451 OA
ENDROOT
BRANCH  11  13
ATOM     13  C   UNL     1       0.171  -0.478   5.573  0.00  0.00    -0.018 A 
ATOM     14  C   UNL     1      -0.450   0.715   5.181  0.00  0.00    +0.012 A 
ATOM     15  C   UNL     1      -0.353   1.835   5.976  0.00  0.00    +0.050 A 
ATOM     16  C   UNL     1       0.360   1.786   7.166  0.00  0.00    +0.162 A 
ATOM     17  C   UNL     1       0.982   0.603   7.564  0.00  0.00    +0.162 A 
ATOM     18  C   UNL     1       0.884  -0.527   6.777  0.00  0.00    +0.057 A 
BRANCH  17  19
ATOM     19  O   UNL     1       1.679   0.561   8.731  0.00  0.00    -0.491 OA
ATOM     20  C   UNL     1       2.291  -0.683   9.077  0.00  0.00    +0.277 C 
ENDBRANCH  17  19
BRANCH  16  21
ATOM     21  O   UNL     1       0.452   2.895   7.946  0.00  0.00    -0.491 OA
ATOM     22  C   UNL     1      -0.208   4.073   7.479  0.00  0.00    +0.277 C 
ENDBRANCH  16  21
ENDBRANCH  11  13
BRANCH   4  23
ATOM     23  O   UNL     1       0.103  -2.736  -2.379  0.00  0.00    -0.506 OA
ATOM     24  H   UNL     1       0.922  -3.151  -2.682  0.00  0.00    +0.292 HD
ENDBRANCH   4  23
BRANCH   5  25
ATOM     25  C   UNL     1      -0.408  -4.226  -0.046  0.00  0.00    -0.036 C 
BRANCH  25  26
ATOM     26  N   UNL     1       0.802  -5.056   0.006  0.00  0.00    +0.383 N 
ATOM     27  C   UNL     1       1.603  -4.829  -1.203  0.00  0.00    -0.078 C 
ATOM     28  C   UNL     1       2.903  -5.630  -1.116  0.00  0.00    -0.018 C 
ATOM     29  C   UNL     1       2.572  -7.121  -0.994  0.00  0.00    -0.001 C 
ATOM     30  C   UNL     1       1.675  -7.335   0.229  0.00  0.00    -0.031 C 
ATOM     31  C   UNL     1       0.420  -6.471   0.092  0.00  0.00    -0.075 C 
ATOM     32  C   UNL     1       1.274  -8.809   0.316  0.00  0.00    +0.005 C 
ATOM     33  H   UNL     1       1.346  -4.806   0.819  0.00  0.00    -0.081 HD
ENDBRANCH  25  26
ENDBRANCH   5  25
TORSDOF 6
