REMARK  Name = ZINC08783145
REMARK  7 active torsions:
REMARK  status: ('A' for Active; 'I' for Inactive)
REMARK    1  A    between atoms: C_1  and  O_2
REMARK    2  A    between atoms: O_2  and  C_3
REMARK    3  A    between atoms: C_6  and  C_11
REMARK    4  A    between atoms: C_8  and  O_9
REMARK    5  A    between atoms: O_9  and  C_10
REMARK    6  A    between atoms: N_27  and  C_30
REMARK    7  A    between atoms: C_30  and  C_31
REMARK                            x       y       z     vdW  Elec       q    Type
REMARK                         _______ _______ _______ _____ _____    ______ ____
ROOT
ATOM      1  C   UNL     1      -1.118   7.126   1.853  0.00  0.00    +0.014 C 
ATOM      2  C   UNL     1       0.196   7.694   2.356  0.00  0.00    +0.011 A 
ATOM      3  C   UNL     1       0.739   8.840   1.876  0.00  0.00    -0.021 A 
ATOM      4  C   UNL     1       1.986   9.046   2.575  0.00  0.00    +0.003 A 
ATOM      5  C   UNL     1       2.966  10.039   2.509  0.00  0.00    +0.010 A 
ATOM      6  C   UNL     1       4.045   9.911   3.349  0.00  0.00    +0.001 A 
ATOM      7  C   UNL     1       4.168   8.852   4.233  0.00  0.00    +0.002 A 
ATOM      8  C   UNL     1       3.213   7.854   4.327  0.00  0.00    +0.026 A 
ATOM      9  C   UNL     1       2.107   7.957   3.486  0.00  0.00    +0.047 A 
ATOM     10  N   UNL     1       1.005   7.166   3.323  0.00  0.00    -0.359 N 
ATOM     11  H   UNL     1       0.824   6.352   3.819  0.00  0.00    +0.166 HD
ATOM     12  C   UNL     1       0.091   9.693   0.804  0.00  0.00    +0.031 C 
ATOM     13  C   UNL     1      -1.369   9.248   0.738  0.00  0.00    +0.027 C 
ATOM     14  C   UNL     1      -2.738   7.569   0.022  0.00  0.00    +0.035 C 
ATOM     15  N   UNL     1      -2.924   8.726  -0.884  0.00  0.00    -0.316 N 
ATOM     16  C   UNL     1      -2.095   9.730  -0.490  0.00  0.00    +0.201 C 
ATOM     17  O   UNL     1      -1.965  10.810  -1.027  0.00  0.00    -0.277 OA
ATOM     18  N   UNL     1      -1.402   7.825   0.542  0.00  0.00    +0.406 N 
ATOM     19  H   UNL     1      -0.698   7.537  -0.148  0.00  0.00    -0.077 HD
ENDROOT
BRANCH   1  23
ATOM     20  C   UNL     1      -0.787   2.893   1.346  0.00  0.00    +0.161 A 
ATOM     21  C   UNL     1      -0.259   3.751   0.395  0.00  0.00    +0.049 A 
ATOM     22  C   UNL     1      -0.368   5.119   0.562  0.00  0.00    +0.006 A 
ATOM     23  C   UNL     1      -1.003   5.634   1.677  0.00  0.00    -0.051 A 
ATOM     24  C   UNL     1      -1.532   4.784   2.629  0.00  0.00    +0.051 A 
ATOM     25  C   UNL     1      -1.432   3.411   2.465  0.00  0.00    +0.162 A 
BRANCH  20  27
ATOM     26  C   UNL     1      -0.013   1.086   0.008  0.00  0.00    +0.277 C 
ATOM     27  O   UNL     1      -0.682   1.547   1.184  0.00  0.00    -0.491 OA
ENDBRANCH  20  27
BRANCH  25  28
ATOM     28  O   UNL     1      -1.957   2.573   3.399  0.00  0.00    -0.491 OA
ATOM     29  C   UNL     1      -2.603   3.176   4.521  0.00  0.00    +0.277 C 
ENDBRANCH  25  28
ENDBRANCH   1  23
BRANCH  15  30
ATOM     30  C   UNL     1      -3.850   8.780  -2.018  0.00  0.00    +0.132 C 
BRANCH  30  31
ATOM     31  C   UNL     1      -5.184   9.305  -1.552  0.00  0.00    -0.016 C 
ATOM     32  C   UNL     1      -5.720  10.346  -2.139  0.00  0.00    +0.005 C 
ENDBRANCH  30  31
ENDBRANCH  15  30
TORSDOF 5
