REMARK  Name = ZINC13064375
REMARK  12 active torsions:
REMARK  status: ('A' for Active; 'I' for Inactive)
REMARK    1  A    between atoms: C_1  and  C_2
REMARK    2  A    between atoms: C_2  and  C_3
REMARK    3  A    between atoms: C_3  and  C_5
REMARK    4  A    between atoms: C_3  and  N_65
REMARK    5  A    between atoms: N_9  and  C_10
REMARK    6  A    between atoms: C_10  and  C_11
REMARK    7  A    between atoms: C_10  and  C_12
REMARK    8  A    between atoms: C_10  and  C_13
REMARK    9  A    between atoms: C_14  and  C_15
REMARK   10  A    between atoms: C_14  and  N_65
REMARK   11  A    between atoms: C_20  and  C_21
REMARK   12  A    between atoms: C_20  and  N_65
REMARK                            x       y       z     vdW  Elec       q    Type
REMARK                         _______ _______ _______ _____ _____    ______ ____
ROOT
ATOM      1  N   UNL     1       0.006  -1.713   1.642  0.00  0.00    +0.392 N 
ATOM      2  H   UNL     1      -0.553  -0.864   1.788  0.00  0.00    -0.080 HD
ENDROOT
BRANCH   1   3
ATOM      3  C   UNL     1      -0.858  -2.896   1.842  0.00  0.00    +0.003 C 
BRANCH   3   4
ATOM      4  C   UNL     1      -0.852  -3.281   3.299  0.00  0.00    +0.139 A 
ATOM      5  N   UNL     1      -1.050  -2.484   4.320  0.00  0.00    -0.115 NA
ATOM      6  N   UNL     1      -0.969  -3.188   5.396  0.00  0.00    -0.023 NA
ATOM      7  N   UNL     1      -0.715  -4.412   5.088  0.00  0.00    -0.043 NA
ATOM      8  N   UNL     1      -0.636  -4.510   3.804  0.00  0.00    -0.226 N 
BRANCH   8   9
ATOM      9  C   UNL     1      -0.362  -5.729   3.040  0.00  0.00    +0.059 C 
ATOM     10  C   UNL     1       0.973  -5.583   2.307  0.00  0.00    +0.036 C 
ATOM     11  C   UNL     1      -0.292  -6.924   3.994  0.00  0.00    +0.036 C 
ATOM     12  C   UNL     1      -1.482  -5.955   2.022  0.00  0.00    +0.036 C 
ENDBRANCH   8   9
ENDBRANCH   3   4
BRANCH   3  14
ATOM     13  C   UNL     1      -2.299  -2.199  -0.077  0.00  0.00    +0.002 C 
ATOM     14  C   UNL     1      -2.283  -2.537   1.416  0.00  0.00    -0.011 C 
ENDBRANCH   3  14
ENDBRANCH   1   3
BRANCH   1  15
ATOM     15  C   UNL     1       1.118  -1.730   2.616  0.00  0.00    -0.034 C 
BRANCH  15  16
ATOM     16  C   UNL     1       1.687  -0.338   2.722  0.00  0.00    -0.027 A 
ATOM     17  C   UNL     1       1.387   0.641   3.609  0.00  0.00    +0.009 A 
ATOM     18  C   UNL     1       2.044   1.854   3.516  0.00  0.00    +0.008 A 
ATOM     19  C   UNL     1       2.969   2.028   2.541  0.00  0.00    +0.045 A 
ATOM     20  S   UNL     1       2.937   0.444   1.716  0.00  0.00    -0.103 S 
ENDBRANCH  15  16
ENDBRANCH   1  15
BRANCH   1  21
ATOM     21  C   UNL     1       0.541  -1.705   0.265  0.00  0.00    -0.036 C 
BRANCH  21  22
ATOM     22  C   UNL     1       1.255  -2.999  -0.032  0.00  0.00    +0.001 A 
ATOM     23  C   UNL     1       0.593  -4.011  -0.648  0.00  0.00    +0.017 A 
ATOM     24  C   UNL     1       1.314  -5.253  -0.922  0.00  0.00    +0.002 A 
ATOM     25  C   UNL     1       0.682  -6.332  -1.553  0.00  0.00    +0.059 A 
ATOM     26  C   UNL     1       1.386  -7.492  -1.796  0.00  0.00    +0.163 A 
ATOM     27  C   UNL     1       2.728  -7.593  -1.417  0.00  0.00    +0.164 A 
ATOM     28  C   UNL     1       3.361  -6.532  -0.794  0.00  0.00    +0.075 A 
ATOM     29  C   UNL     1       2.665  -5.357  -0.540  0.00  0.00    +0.053 A 
ATOM     30  N   UNL     1       3.281  -4.290   0.082  0.00  0.00    -0.322 N 
ATOM     31  H   UNL     1       4.212  -4.361   0.344  0.00  0.00    +0.169 HD
ATOM     32  C   UNL     1       2.610  -3.150   0.325  0.00  0.00    +0.251 A 
ATOM     33  O   UNL     1       3.187  -2.226   0.872  0.00  0.00    -0.268 OA
ATOM     34  O   UNL     1       3.431  -8.733  -1.657  0.00  0.00    -0.485 OA
ATOM     35  C   UNL     1       2.671  -9.911  -1.942  0.00  0.00    +0.270 C 
ATOM     36  C   UNL     1       1.591  -9.550  -2.971  0.00  0.00    +0.270 C 
ATOM     37  O   UNL     1       0.755  -8.534  -2.406  0.00  0.00    -0.485 OA
ENDBRANCH  21  22
ENDBRANCH   1  21
TORSDOF 8
