REMARK  Name = ZINC08315160
REMARK  7 active torsions:
REMARK  status: ('A' for Active; 'I' for Inactive)
REMARK    1  A    between atoms: C_1  and  C_2
REMARK    2  A    between atoms: C_2  and  C_3
REMARK    3  A    between atoms: C_2  and  C_4
REMARK    4  A    between atoms: C_7  and  S_10
REMARK    5  A    between atoms: S_10  and  N_13
REMARK    6  A    between atoms: C_18  and  N_52
REMARK    7  A    between atoms: C_25  and  O_27
REMARK                            x       y       z     vdW  Elec       q    Type
REMARK                         _______ _______ _______ _____ _____    ______ ____
ROOT
ATOM      1  N   UNL     1      -2.788  -1.961   2.452  0.00  0.00    -0.180 NA
ATOM      2  C   UNL     1      -2.687  -2.417   1.057  0.00  0.00    +0.091 C 
ATOM      3  C   UNL     1      -1.339  -1.960   0.492  0.00  0.00    -0.061 C 
ATOM      4  C   UNL     1      -1.181  -0.159   2.109  0.00  0.00    -0.061 C 
ATOM      5  C   UNL     1      -2.524  -0.543   2.741  0.00  0.00    +0.091 C 
ATOM      6  N   UNL     1      -1.221  -0.496   0.669  0.00  0.00    +0.386 N 
ATOM      7  H   UNL     1      -2.038  -0.043   0.243  0.00  0.00    -0.081 HD
ENDROOT
BRANCH   6   8
ATOM      8  C   UNL     1       0.002  -0.004   0.002  0.00  0.00    -0.017 C 
ATOM      9  C   UNL     1       0.182   1.504   0.331  0.00  0.00    +0.153 C 
ATOM     10  S   UNL     1       1.278   1.997  -1.072  0.00  0.00    -0.030 S 
ATOM     11  O   UNL     1       0.979   3.333  -1.452  0.00  0.00    -0.174 OA
ATOM     12  O   UNL     1       2.618   1.636  -0.767  0.00  0.00    -0.174 OA
ATOM     13  C   UNL     1       0.612   0.843  -2.343  0.00  0.00    +0.195 C 
ATOM     14  C   UNL     1      -0.150  -0.203  -1.505  0.00  0.00    +0.123 C 
BRANCH  14  15
ATOM     15  O   UNL     1      -1.537  -0.134  -1.839  0.00  0.00    -0.392 OA
ATOM     16  H   UNL     1      -1.722  -0.251  -2.781  0.00  0.00    +0.210 HD
ENDBRANCH  14  15
ENDBRANCH   6   8
BRANCH   1  17
ATOM     17  S   UNL     1      -3.189  -3.015   3.665  0.00  0.00    +0.061 S 
ATOM     18  O   UNL     1      -3.739  -2.233   4.716  0.00  0.00    -0.153 OA
ATOM     19  O   UNL     1      -3.901  -4.083   3.055  0.00  0.00    -0.153 OA
BRANCH  17  23
ATOM     20  C   UNL     1       0.673  -4.771   5.243  0.00  0.00    -0.045 A 
ATOM     21  C   UNL     1       0.162  -3.614   5.800  0.00  0.00    +0.006 A 
ATOM     22  C   UNL     1      -1.018  -3.077   5.318  0.00  0.00    +0.029 A 
ATOM     23  C   UNL     1      -1.685  -3.698   4.279  0.00  0.00    +0.105 A 
ATOM     24  C   UNL     1      -1.176  -4.858   3.725  0.00  0.00    +0.029 A 
ATOM     25  C   UNL     1       0.006  -5.391   4.204  0.00  0.00    +0.006 A 
BRANCH  20  27
ATOM     26  C   UNL     1       1.701  -6.771   6.288  0.00  0.00    +0.012 C 
ATOM     27  C   UNL     1       1.959  -5.355   5.768  0.00  0.00    +0.013 C 
ATOM     28  C   UNL     1       2.994  -5.406   4.642  0.00  0.00    +0.012 C 
ENDBRANCH  20  27
ENDBRANCH  17  23
ENDBRANCH   1  17
TORSDOF 5
