REMARK  Name = ZINC59408926
REMARK  4 active torsions:
REMARK  status: ('A' for Active; 'I' for Inactive)
REMARK    1  A    between atoms: C_4  and  N_7
REMARK    2  A    between atoms: N_7  and  N_8
REMARK    3  A    between atoms: N_20  and  C_23
REMARK    4  A    between atoms: C_23  and  N_24
REMARK                            x       y       z     vdW  Elec       q    Type
REMARK                         _______ _______ _______ _____ _____    ______ ____
ROOT
ATOM      1  N   UNL     1       3.640  -2.050  -0.045  0.00  0.00    -0.192 N 
ATOM      2  C   UNL     1       3.360  -2.738   1.060  0.00  0.00    +0.244 C 
ATOM      3  O   UNL     1       3.070  -2.176   2.095  0.00  0.00    -0.273 OA
ATOM      4  C   UNL     1       3.417  -4.257   0.975  0.00  0.00    +0.169 C 
ATOM      5  S   UNL     1       3.441  -4.490  -0.857  0.00  0.00    -0.110 S 
ATOM      6  C   UNL     1       3.964  -2.781  -1.266  0.00  0.00    +0.204 C 
ATOM      7  C   UNL     1       5.418  -2.739  -1.619  0.00  0.00    +0.018 A 
ATOM      8  C   UNL     1       6.575  -3.066  -0.947  0.00  0.00    +0.009 A 
ATOM      9  C   UNL     1       7.803  -2.911  -1.563  0.00  0.00    +0.000 A 
ATOM     10  C   UNL     1       7.868  -2.426  -2.857  0.00  0.00    +0.002 A 
ATOM     11  C   UNL     1       6.713  -2.095  -3.535  0.00  0.00    +0.024 A 
ATOM     12  C   UNL     1       5.471  -2.248  -2.922  0.00  0.00    +0.041 A 
ATOM     13  N   UNL     1       4.182  -1.986  -3.393  0.00  0.00    -0.285 N 
ATOM     14  C   UNL     1       3.237  -2.273  -2.474  0.00  0.00    +0.258 C 
ATOM     15  O   UNL     1       2.038  -2.146  -2.601  0.00  0.00    -0.272 OA
ENDROOT
BRANCH   1  16
ATOM     16  N   UNL     1       3.620  -0.649  -0.037  0.00  0.00    -0.260 N 
ATOM     17  H   UNL     1       4.452  -0.152  -0.043  0.00  0.00    +0.170 HD
BRANCH  16  21
ATOM     18  C   UNL     1      -0.017   1.379   0.010  0.00  0.00    +0.000 A 
ATOM     19  C   UNL     1       1.169   2.089   0.002  0.00  0.00    +0.002 A 
ATOM     20  C   UNL     1       2.377   1.420  -0.013  0.00  0.00    +0.024 A 
ATOM     21  C   UNL     1       2.400   0.031  -0.021  0.00  0.00    +0.045 A 
ATOM     22  C   UNL     1       1.206  -0.680  -0.013  0.00  0.00    +0.024 A 
ATOM     23  C   UNL     1       0.002  -0.004   0.002  0.00  0.00    +0.002 A 
ENDBRANCH  16  21
ENDBRANCH   1  16
BRANCH  13  24
ATOM     24  C   UNL     1       3.891  -1.460  -4.729  0.00  0.00    +0.038 C 
BRANCH  24  25
ATOM     25  N   UNL     1       3.710  -2.576  -5.666  0.00  0.00    +0.390 N 
ATOM     26  C   UNL     1       2.525  -3.351  -5.278  0.00  0.00    -0.077 C 
ATOM     27  C   UNL     1       2.378  -4.562  -6.202  0.00  0.00    -0.019 C 
ATOM     28  C   UNL     1       2.223  -4.079  -7.647  0.00  0.00    -0.004 C 
ATOM     29  C   UNL     1       3.429  -3.210  -8.016  0.00  0.00    -0.019 C 
ATOM     30  C   UNL     1       3.537  -2.049  -7.025  0.00  0.00    -0.077 C 
ATOM     31  H   UNL     1       4.523  -3.172  -5.639  0.00  0.00    -0.080 HD
ENDBRANCH  24  25
ENDBRANCH  13  24
TORSDOF 4
