REMARK  Name = ZINC42952174
REMARK  5 active torsions:
REMARK  status: ('A' for Active; 'I' for Inactive)
REMARK    1  A    between atoms: C_1  and  C_2
REMARK    2  A    between atoms: C_2  and  C_4
REMARK    3  A    between atoms: C_2  and  N_23
REMARK    4  A    between atoms: C_4  and  C_6
REMARK    5  A    between atoms: C_4  and  N_13
REMARK                            x       y       z     vdW  Elec       q    Type
REMARK                         _______ _______ _______ _____ _____    ______ ____
ROOT
ATOM      1  C   UNL     1       0.742  -0.511   1.242  0.00  0.00    +0.089 C 
ENDROOT
BRANCH   1   2
ATOM      2  N   UNL     1       0.649  -1.964   1.406  0.00  0.00    -0.324 N 
ATOM      3  C   UNL     1       1.315  -2.867   0.458  0.00  0.00    +0.106 C 
ATOM      4  C   UNL     1       0.328  -3.986   0.105  0.00  0.00    +0.024 C 
ATOM      5  C   UNL     1       0.013  -4.784   1.370  0.00  0.00    +0.038 C 
ATOM      6  C   UNL     1      -0.401  -3.861   2.486  0.00  0.00    -0.026 A 
ATOM      7  C   UNL     1      -0.070  -2.514   2.473  0.00  0.00    +0.033 A 
ATOM      8  C   UNL     1      -0.458  -1.690   3.524  0.00  0.00    +0.023 A 
ATOM      9  C   UNL     1      -1.171  -2.213   4.584  0.00  0.00    +0.002 A 
ATOM     10  C   UNL     1      -1.499  -3.556   4.599  0.00  0.00    +0.000 A 
ATOM     11  C   UNL     1      -1.122  -4.377   3.549  0.00  0.00    +0.005 A 
ENDBRANCH   1   2
BRANCH   1  12
ATOM     12  C   UNL     1       2.167  -0.070   1.460  0.00  0.00    -0.029 A 
ATOM     13  C   UNL     1       3.197  -0.713   0.799  0.00  0.00    +0.006 A 
ATOM     14  C   UNL     1       4.504  -0.309   0.999  0.00  0.00    +0.015 A 
ATOM     15  C   UNL     1       4.780   0.738   1.859  0.00  0.00    +0.018 A 
ATOM     16  C   UNL     1       3.749   1.381   2.520  0.00  0.00    +0.015 A 
ATOM     17  C   UNL     1       2.442   0.979   2.316  0.00  0.00    +0.006 A 
ATOM     18 BR   UNL     1       6.568   1.291   2.133  0.00  0.00    -0.050 Br
ENDBRANCH   1  12
BRANCH   1  20
ATOM     19  C   UNL     1       0.302   1.395  -0.314  0.00  0.00    -0.012 C 
ATOM     20  C   UNL     1       0.301  -0.129  -0.173  0.00  0.00    -0.053 C 
BRANCH  20  21
ATOM     21  N   UNL     1      -1.053  -0.642  -0.419  0.00  0.00    +0.381 N 
ATOM     22  H   UNL     1      -1.344  -0.391  -1.352  0.00  0.00    -0.090 HD
ATOM     23  H   UNL     1      -1.054  -1.647  -0.326  0.00  0.00    -0.090 HD
ATOM     24  H   UNL     1      -1.692  -0.242   0.252  0.00  0.00    -0.090 HD
ENDBRANCH  20  21
ENDBRANCH   1  20
TORSDOF 4
