REMARK  Name = ZINC08849233
REMARK  9 active torsions:
REMARK  status: ('A' for Active; 'I' for Inactive)
REMARK    1  A    between atoms: C_1  and  C_2
REMARK    2  A    between atoms: C_2  and  C_3
REMARK    3  A    between atoms: C_3  and  C_30
REMARK    4  A    between atoms: N_6  and  N_10
REMARK    5  A    between atoms: C_11  and  C_13
REMARK    6  A    between atoms: C_13  and  S_14
REMARK    7  A    between atoms: S_14  and  C_15
REMARK    8  A    between atoms: C_18  and  C_23
REMARK    9  A    between atoms: N_19  and  C_20
REMARK                            x       y       z     vdW  Elec       q    Type
REMARK                         _______ _______ _______ _____ _____    ______ ____
ROOT
ATOM      1  C   UNL     1       1.566   5.611   1.247  0.00  0.00    +0.174 C 
ENDROOT
BRANCH   1   3
ATOM      2  N   UNL     1       1.417   7.939   2.070  0.00  0.00    -0.223 N 
ATOM      3  C   UNL     1       0.780   6.795   1.750  0.00  0.00    +0.240 C 
ATOM      4  O   UNL     1      -0.424   6.718   1.866  0.00  0.00    -0.273 OA
ATOM      5  H   UNL     1       2.381   8.000   1.977  0.00  0.00    +0.174 HD
BRANCH   2   9
ATOM      6  C   UNL     1      -0.385  11.049   2.708  0.00  0.00    +0.111 C 
ATOM      7  C   UNL     1       0.421  10.138   1.804  0.00  0.00    +0.263 C 
ATOM      8  O   UNL     1       0.756  10.353   0.658  0.00  0.00    -0.271 OA
ATOM      9  N   UNL     1       0.687   9.039   2.537  0.00  0.00    -0.137 N 
ATOM     10  C   UNL     1       0.173   9.132   3.769  0.00  0.00    +0.326 C 
ATOM     11  O   UNL     1       0.285   8.266   4.615  0.00  0.00    -0.251 OA
ATOM     12  N   UNL     1      -0.483  10.290   3.966  0.00  0.00    -0.284 N 
ATOM     13  C   UNL     1      -1.775  11.303   2.122  0.00  0.00    +0.041 C 
ATOM     14  H   UNL     1      -0.932  10.570   4.779  0.00  0.00    +0.151 HD
BRANCH   6  16
ATOM     15  C   UNL     1      -0.361  13.173   4.025  0.00  0.00    +0.006 C 
ATOM     16  C   UNL     1       0.352  12.371   2.933  0.00  0.00    +0.032 C 
ENDBRANCH   6  16
ENDBRANCH   2   9
ENDBRANCH   1   3
BRANCH   1  17
ATOM     17  S   UNL     1       0.436   4.238   0.906  0.00  0.00    -0.077 S 
BRANCH  17  18
ATOM     18  C   UNL     1       1.587   3.025   0.350  0.00  0.00    +0.193 A 
ATOM     19  N   UNL     1       2.889   3.174   0.250  0.00  0.00    -0.122 NA
ATOM     20  N   UNL     1       3.423   2.093  -0.194  0.00  0.00    -0.128 NA
ATOM     21  C   UNL     1       2.497   1.187  -0.401  0.00  0.00    +0.168 A 
ATOM     22  N   UNL     1       1.292   1.754  -0.055  0.00  0.00    -0.299 N 
BRANCH  21  23
ATOM     23  C   UNL     1       2.708  -0.185  -0.909  0.00  0.00    +0.054 A 
ATOM     24  C   UNL     1       1.898  -0.687  -1.930  0.00  0.00    +0.014 A 
ATOM     25  C   UNL     1       2.100  -1.968  -2.400  0.00  0.00    +0.001 A 
ATOM     26  C   UNL     1       3.103  -2.756  -1.863  0.00  0.00    +0.003 A 
ATOM     27  C   UNL     1       3.909  -2.268  -0.852  0.00  0.00    +0.039 A 
ATOM     28  C   UNL     1       3.722  -0.984  -0.374  0.00  0.00    +0.134 A 
ATOM     29  F   UNL     1       4.514  -0.505   0.610  0.00  0.00    -0.205 F 
ENDBRANCH  21  23
BRANCH  22  30
ATOM     30  C   UNL     1      -0.031   1.128  -0.115  0.00  0.00    +0.091 C 
ATOM     31  C   UNL     1      -1.162   1.791   0.674  0.00  0.00    +0.027 C 
ATOM     32  C   UNL     1      -1.137   1.884  -0.854  0.00  0.00    +0.027 C 
ENDBRANCH  22  30
ENDBRANCH  17  18
ENDBRANCH   1  17
TORSDOF 7
