REMARK  Name = ZINC38680262
REMARK  6 active torsions:
REMARK  status: ('A' for Active; 'I' for Inactive)
REMARK    1  A    between atoms: C_4  and  C_8
REMARK    2  A    between atoms: C_13  and  O_22
REMARK    3  A    between atoms: C_17  and  N_21
REMARK    4  A    between atoms: C_18  and  C_19
REMARK    5  A    between atoms: O_22  and  C_23
REMARK    6  A    between atoms: C_23  and  C_25
REMARK                            x       y       z     vdW  Elec       q    Type
REMARK                         _______ _______ _______ _____ _____    ______ ____
ROOT
ATOM      1  C   UNL     1       3.727  -0.761  -0.002  0.00  0.00    +0.102 C 
ATOM      2  C   UNL     1       3.803  -1.599  -1.251  0.00  0.00    +0.008 A 
ATOM      3  C   UNL     1       3.977  -0.979  -2.476  0.00  0.00    +0.012 A 
ATOM      4  C   UNL     1       4.050  -1.731  -3.632  0.00  0.00    +0.047 A 
ATOM      5  C   UNL     1       3.948  -3.114  -3.568  0.00  0.00    +0.135 A 
ATOM      6  C   UNL     1       3.774  -3.737  -2.343  0.00  0.00    +0.093 A 
ATOM      7  C   UNL     1       3.701  -2.979  -1.181  0.00  0.00    +0.138 A 
ATOM      8  O   UNL     1       3.530  -3.604   0.010  0.00  0.00    -0.441 OA
ATOM      9  C   UNL     1       3.838  -2.967   1.152  0.00  0.00    +0.199 C 
ATOM     10  C   UNL     1       3.946  -1.621   1.210  0.00  0.00    +0.098 C 
ENDROOT
BRANCH   1  14
ATOM     11  C   UNL     1      -0.127   1.071   0.238  0.00  0.00    +0.004 A 
ATOM     12  C   UNL     1       1.008   1.857   0.181  0.00  0.00    +0.039 A 
ATOM     13  C   UNL     1       2.257   1.265   0.103  0.00  0.00    +0.129 A 
ATOM     14  C   UNL     1       2.368  -0.115   0.083  0.00  0.00    +0.019 A 
ATOM     15  C   UNL     1       1.231  -0.900   0.141  0.00  0.00    +0.048 A 
ATOM     16  C   UNL     1      -0.017  -0.306   0.218  0.00  0.00    +0.020 A 
ATOM     17 CL   UNL     1       1.368  -2.630   0.116  0.00  0.00    -0.083 Cl
ATOM     18  F   UNL     1       3.367   2.033   0.046  0.00  0.00    -0.205 F 
ENDBRANCH   1  14
BRANCH   9  19
ATOM     19  N   UNL     1       4.050  -3.704   2.290  0.00  0.00    -0.328 N 
ATOM     20  H   UNL     1       3.975  -4.671   2.263  0.00  0.00    +0.145 HD
ATOM     21  H   UNL     1       4.273  -3.258   3.122  0.00  0.00    +0.145 HD
ENDBRANCH   9  19
BRANCH  10  22
ATOM     22  C   UNL     1       4.276  -1.003   2.459  0.00  0.00    +0.101 C 
ATOM     23  N   UNL     1       4.538  -0.512   3.449  0.00  0.00    -0.191 NA
ENDBRANCH  10  22
BRANCH   5  24
ATOM     24  O   UNL     1       4.020  -3.856  -4.704  0.00  0.00    -0.422 OA
BRANCH  24  25
ATOM     25  C   UNL     1       2.900  -4.477  -5.127  0.00  0.00    +0.351 C 
ATOM     26  O   UNL     1       1.844  -4.281  -4.557  0.00  0.00    -0.244 OA
BRANCH  25  27
ATOM     27  C   UNL     1       2.956  -5.387  -6.272  0.00  0.00    +0.097 A 
ATOM     28  C   UNL     1       1.931  -6.113  -6.864  0.00  0.00    +0.022 A 
ATOM     29  C   UNL     1       2.293  -6.890  -7.937  0.00  0.00    +0.008 A 
ATOM     30  C   UNL     1       3.589  -6.897  -8.339  0.00  0.00    +0.046 A 
ATOM     31  S   UNL     1       4.356  -5.846  -7.276  0.00  0.00    -0.090 S 
ENDBRANCH  25  27
ENDBRANCH  24  25
ENDBRANCH   5  24
TORSDOF 6
