REMARK  Name = ZINC39662367
REMARK  7 active torsions:
REMARK  status: ('A' for Active; 'I' for Inactive)
REMARK    1  A    between atoms: C_1  and  C_2
REMARK    2  A    between atoms: C_3  and  C_14
REMARK    3  A    between atoms: C_4  and  C_7
REMARK    4  A    between atoms: C_18  and  C_27
REMARK    5  A    between atoms: N_29  and  C_30
REMARK    6  A    between atoms: C_30  and  C_32
REMARK    7  A    between atoms: C_30  and  C_34
REMARK                            x       y       z     vdW  Elec       q    Type
REMARK                         _______ _______ _______ _____ _____    ______ ____
ROOT
ATOM      1  C   UNL     1      -2.446  -0.422   0.250  0.00  0.00    +0.252 C 
ATOM      2  O   UNL     1      -3.142  -0.356  -0.746  0.00  0.00    -0.270 OA
ATOM      3  N   UNL     1      -2.969  -0.127   1.457  0.00  0.00    -0.296 N 
ATOM      4  C   UNL     1      -2.265  -0.062   2.760  0.00  0.00    +0.121 C 
ATOM      5  C   UNL     1      -2.889   1.154   3.480  0.00  0.00    +0.100 C 
ATOM      6  C   UNL     1      -4.275   1.324   2.835  0.00  0.00    -0.004 C 
ATOM      7  C   UNL     1      -4.375   0.213   1.780  0.00  0.00    +0.115 C 
ATOM      8  C   UNL     1      -4.382   2.691   2.164  0.00  0.00    -0.010 C 
ATOM      9  C   UNL     1      -5.787   2.859   1.580  0.00  0.00    -0.082 C 
ATOM     10  N   UNL     1      -6.782   2.738   2.652  0.00  0.00    +0.379 N 
ATOM     11  C   UNL     1      -6.736   1.390   3.229  0.00  0.00    -0.082 C 
ATOM     12  C   UNL     1      -5.370   1.159   3.884  0.00  0.00    -0.010 C 
ATOM     13  H   UNL     1      -6.584   3.418   3.371  0.00  0.00    -0.086 HD
ATOM     14  H   UNL     1      -7.703   2.910   2.275  0.00  0.00    -0.086 HD
ENDROOT
BRANCH   1  17
ATOM     15  C   UNL     1      -0.050   1.468  -0.422  0.00  0.00    +0.090 C 
ATOM     16  C   UNL     1       0.022  -0.013  -0.154  0.00  0.00    +0.147 A 
ATOM     17  C   UNL     1      -1.034  -0.825   0.138  0.00  0.00    +0.106 A 
ATOM     18  C   UNL     1      -0.491  -2.180   0.319  0.00  0.00    +0.127 A 
ATOM     19  N   UNL     1       0.802  -2.099   0.133  0.00  0.00    -0.077 NA
ATOM     20  O   UNL     1       1.131  -0.757  -0.168  0.00  0.00    -0.359 OA
BRANCH  18  21
ATOM     21  C   UNL     1      -1.261  -3.403   0.650  0.00  0.00    +0.023 A 
ATOM     22  C   UNL     1      -2.644  -3.336   0.815  0.00  0.00    +0.011 A 
ATOM     23  C   UNL     1      -3.355  -4.478   1.123  0.00  0.00    +0.001 A 
ATOM     24  C   UNL     1      -2.700  -5.687   1.269  0.00  0.00    +0.001 A 
ATOM     25  C   UNL     1      -1.328  -5.761   1.107  0.00  0.00    +0.020 A 
ATOM     26  C   UNL     1      -0.606  -4.626   0.792  0.00  0.00    +0.050 A 
ATOM     27 CL   UNL     1       1.115  -4.720   0.581  0.00  0.00    -0.083 Cl
ENDBRANCH  18  21
ENDBRANCH   1  17
BRANCH   5  28
ATOM     28  C   UNL     1      -2.049   2.385   3.256  0.00  0.00    +0.219 C 
ATOM     29  O   UNL     1      -1.352   2.471   2.267  0.00  0.00    -0.275 OA
ATOM     30  N   UNL     1      -2.072   3.390   4.154  0.00  0.00    -0.296 N 
ATOM     31  H   UNL     1      -2.629   3.321   4.944  0.00  0.00    +0.150 HD
BRANCH  30  32
ATOM     32  C   UNL     1      -1.255   4.586   3.936  0.00  0.00    +0.207 C 
BRANCH  32  33
ATOM     33  C   UNL     1      -0.961   5.242   5.260  0.00  0.00    -0.013 A 
ATOM     34  C   UNL     1      -1.942   5.308   6.232  0.00  0.00    +0.006 A 
ATOM     35  C   UNL     1      -1.672   5.910   7.447  0.00  0.00    +0.000 A 
ATOM     36  C   UNL     1      -0.420   6.445   7.690  0.00  0.00    +0.000 A 
ATOM     37  C   UNL     1       0.561   6.377   6.719  0.00  0.00    +0.000 A 
ATOM     38  C   UNL     1       0.292   5.772   5.505  0.00  0.00    +0.006 A 
ENDBRANCH  32  33
BRANCH  32  39
ATOM     39  C   UNL     1      -1.986   5.529   3.073  0.00  0.00    +0.090 C 
ATOM     40  N   UNL     1      -2.550   6.256   2.407  0.00  0.00    -0.194 NA
ENDBRANCH  32  39
ENDBRANCH  30  32
ENDBRANCH   5  28
TORSDOF 6
