REMARK  Name = ZINC20441788
REMARK  6 active torsions:
REMARK  status: ('A' for Active; 'I' for Inactive)
REMARK    1  A    between atoms: C_6  and  S_7
REMARK    2  A    between atoms: S_7  and  N_10
REMARK    3  A    between atoms: N_10  and  C_11
REMARK    4  A    between atoms: C_17  and  N_19
REMARK    5  A    between atoms: N_22  and  C_25
REMARK    6  A    between atoms: C_25  and  C_26
REMARK                            x       y       z     vdW  Elec       q    Type
REMARK                         _______ _______ _______ _____ _____    ______ ____
ROOT
ATOM      1  C   UNL     1       3.439   3.545   1.243  0.00  0.00    +0.063 C 
ATOM      2  C   UNL     1       4.858   4.112   1.312  0.00  0.00    +0.019 C 
ATOM      3  C   UNL     1       5.656   3.639   0.096  0.00  0.00    +0.001 C 
ATOM      4  C   UNL     1       5.718   2.111   0.089  0.00  0.00    -0.001 C 
ATOM      5  C   UNL     1       4.298   1.543   0.020  0.00  0.00    -0.014 C 
ATOM      6  C   UNL     1       3.501   2.017   1.237  0.00  0.00    -0.050 C 
ENDROOT
BRANCH   6   7
ATOM      7  N   UNL     1       2.138   1.472   1.171  0.00  0.00    +0.384 N 
ATOM      8  C   UNL     1       1.419   1.992  -0.001  0.00  0.00    -0.063 C 
ATOM      9  C   UNL     1      -0.018   1.465   0.010  0.00  0.00    +0.066 C 
ATOM     10  N   UNL     1       0.002  -0.004   0.002  0.00  0.00    -0.302 NA
ATOM     11  C   UNL     1       0.721  -0.525   1.173  0.00  0.00    +0.066 C 
ATOM     12  C   UNL     1       2.158   0.003   1.162  0.00  0.00    -0.063 C 
ATOM     13  H   UNL     1       1.600   1.799   2.072  0.00  0.00    -0.081 HD
BRANCH  10  14
ATOM     14  C   UNL     1      -1.361  -0.549  -0.064  0.00  0.00    +0.119 C 
BRANCH  14  15
ATOM     15  C   UNL     1      -1.297  -2.033  -0.317  0.00  0.00    -0.030 A 
ATOM     16  C   UNL     1      -1.296  -2.512  -1.614  0.00  0.00    +0.009 A 
ATOM     17  C   UNL     1      -1.233  -3.872  -1.851  0.00  0.00    +0.050 A 
ATOM     18  C   UNL     1      -1.180  -4.760  -0.789  0.00  0.00    +0.166 A 
ATOM     19  C   UNL     1      -1.186  -4.277   0.517  0.00  0.00    +0.167 A 
ATOM     20  C   UNL     1      -1.245  -2.913   0.748  0.00  0.00    +0.054 A 
ATOM     21  O   UNL     1      -1.129  -5.338   1.375  0.00  0.00    -0.453 OA
ATOM     22  C   UNL     1      -0.676  -6.450   0.580  0.00  0.00    +0.466 C 
ATOM     23  O   UNL     1      -1.119  -6.123  -0.750  0.00  0.00    -0.453 OA
ENDBRANCH  14  15
ENDBRANCH  10  14
ENDBRANCH   6   7
BRANCH   1  24
ATOM     24  N   UNL     1       2.675   3.998   2.408  0.00  0.00    -0.188 NA
ATOM     25  H   UNL     1       2.604   3.361   3.302  0.00  0.00    +0.148 HD
BRANCH  24  26
ATOM     26  S   UNL     1       1.718   5.345   2.298  0.00  0.00    +0.059 S 
ATOM     27  O   UNL     1       1.096   5.507   3.566  0.00  0.00    -0.153 OA
ATOM     28  O   UNL     1       2.513   6.362   1.704  0.00  0.00    -0.153 OA
BRANCH  26  34
ATOM     29  C   UNL     1       0.607   5.250  -0.194  0.00  0.00    +0.030 A 
ATOM     30  C   UNL     1      -0.399   4.956  -1.095  0.00  0.00    +0.022 A 
ATOM     31  C   UNL     1      -1.586   4.401  -0.650  0.00  0.00    +0.041 A 
ATOM     32  C   UNL     1      -1.762   4.134   0.696  0.00  0.00    +0.022 A 
ATOM     33  C   UNL     1      -0.753   4.422   1.595  0.00  0.00    +0.030 A 
ATOM     34  C   UNL     1       0.432   4.978   1.150  0.00  0.00    +0.105 A 
ATOM     35 CL   UNL     1      -2.852   4.038  -1.781  0.00  0.00    -0.084 Cl
ENDBRANCH  26  34
ENDBRANCH  24  26
ENDBRANCH   1  24
TORSDOF 6
