REMARK  Name = ZINC04195671
REMARK  1 active torsions:
REMARK  status: ('A' for Active; 'I' for Inactive)
REMARK    1  A    between atoms: C_7  and  C_9
REMARK                            x       y       z     vdW  Elec       q    Type
REMARK                         _______ _______ _______ _____ _____    ______ ____
ROOT
ATOM      1  C   UNL     1      -0.016   1.316   0.009  0.00  0.00    +0.120 A 
ATOM      2  C   UNL     1       1.183   1.948   0.001  0.00  0.00    +0.068 A 
ATOM      3  S   UNL     1       2.296   0.552  -0.017  0.00  0.00    -0.061 S 
ATOM      4  C   UNL     1       1.137  -0.669  -0.012  0.00  0.00    +0.164 A 
ATOM      5  N   UNL     1       0.002  -0.004   0.002  0.00  0.00    -0.233 NA
ATOM      6  N   UNL     1       1.333  -2.045  -0.022  0.00  0.00    -0.264 N 
ATOM      7  C   UNL     1       0.272  -2.876  -0.016  0.00  0.00    +0.223 C 
ATOM      8  O   UNL     1      -0.854  -2.423  -0.003  0.00  0.00    -0.275 OA
ATOM      9  H   UNL     1       2.232  -2.407  -0.032  0.00  0.00    +0.157 HD
ENDROOT
BRANCH   7  10
ATOM     10  C   UNL     1       0.483  -4.368  -0.026  0.00  0.00    +0.086 C 
ATOM     11  C   UNL     1      -0.740  -5.264  -0.025  0.00  0.00    +0.009 C 
ATOM     12  C   UNL     1       0.106  -5.123  -1.272  0.00  0.00    +0.027 C 
ATOM     13  C   UNL     1       0.848  -6.115  -2.026  0.00  0.00    -0.027 C 
ATOM     14  C   UNL     1       0.276  -7.325  -2.262  0.00  0.00    -0.031 C 
ATOM     15  C   UNL     1      -1.127  -7.533  -1.677  0.00  0.00    +0.027 C 
ATOM     16  C   UNL     1      -2.077  -6.451  -2.255  0.00  0.00    +0.004 C 
ATOM     17  C   UNL     1      -2.822  -5.936  -1.009  0.00  0.00    +0.001 C 
ATOM     18  C   UNL     1      -2.165  -4.733  -0.357  0.00  0.00    +0.005 C 
ENDBRANCH   7  10
TORSDOF 1
