REMARK  Name = ZINC39686341
REMARK  9 active torsions:
REMARK  status: ('A' for Active; 'I' for Inactive)
REMARK    1  A    between atoms: C_1  and  C_2
REMARK    2  A    between atoms: C_7  and  C_8
REMARK    3  A    between atoms: C_8  and  C_9
REMARK    4  A    between atoms: C_13  and  C_22
REMARK    5  A    between atoms: N_24  and  C_25
REMARK    6  A    between atoms: C_31  and  C_33
REMARK    7  A    between atoms: C_33  and  C_34
REMARK    8  A    between atoms: C_34  and  C_35
REMARK    9  A    between atoms: C_34  and  C_36
REMARK                            x       y       z     vdW  Elec       q    Type
REMARK                         _______ _______ _______ _____ _____    ______ ____
ROOT
ATOM      1  C   UNL     1      -1.106   0.283   2.988  0.00  0.00    +0.220 C 
ATOM      2  O   UNL     1      -1.962  -0.120   2.229  0.00  0.00    -0.275 OA
ATOM      3  N   UNL     1      -1.454   0.983   4.086  0.00  0.00    -0.300 N 
ATOM      4  C   UNL     1      -0.560   1.559   5.117  0.00  0.00    +0.121 C 
ATOM      5  C   UNL     1      -1.189   2.928   5.460  0.00  0.00    +0.100 C 
ATOM      6  C   UNL     1      -2.672   2.785   5.077  0.00  0.00    -0.004 C 
ATOM      7  C   UNL     1      -2.818   1.357   4.530  0.00  0.00    +0.115 C 
ATOM      8  C   UNL     1      -3.556   2.975   6.305  0.00  0.00    -0.010 C 
ATOM      9  C   UNL     1      -5.027   2.886   5.889  0.00  0.00    -0.082 C 
ATOM     10  N   UNL     1      -5.317   3.920   4.888  0.00  0.00    +0.379 N 
ATOM     11  C   UNL     1      -4.530   3.675   3.673  0.00  0.00    -0.082 C 
ATOM     12  C   UNL     1      -3.038   3.798   3.996  0.00  0.00    -0.010 C 
ATOM     13  H   UNL     1      -6.300   3.898   4.660  0.00  0.00    -0.086 HD
ATOM     14  H   UNL     1      -5.081   4.826   5.263  0.00  0.00    -0.086 HD
ENDROOT
BRANCH   5  15
ATOM     15  C   UNL     1      -0.539   4.022   4.652  0.00  0.00    +0.218 C 
ATOM     16  O   UNL     1      -0.094   3.779   3.551  0.00  0.00    -0.275 OA
ATOM     17  N   UNL     1      -0.453   5.269   5.154  0.00  0.00    -0.312 N 
ATOM     18  H   UNL     1      -0.809   5.464   6.035  0.00  0.00    +0.149 HD
BRANCH  17  19
ATOM     19  C   UNL     1       0.179   6.333   4.369  0.00  0.00    +0.076 C 
ATOM     20  C   UNL     1       1.693   6.296   4.587  0.00  0.00    +0.041 C 
ATOM     21  C   UNL     1       2.354   7.387   3.738  0.00  0.00    +0.109 C 
ATOM     22  N   UNL     1       1.729   8.678   4.057  0.00  0.00    -0.301 N 
ATOM     23  C   UNL     1       0.267   8.797   3.968  0.00  0.00    +0.109 C 
ATOM     24  C   UNL     1      -0.370   7.690   4.814  0.00  0.00    +0.041 C 
ATOM     25  C   UNL     1       2.483   9.733   4.425  0.00  0.00    +0.216 C 
ATOM     26  O   UNL     1       3.688   9.622   4.495  0.00  0.00    -0.276 OA
BRANCH  25  27
ATOM     27  C   UNL     1       1.827  11.051   4.749  0.00  0.00    +0.099 C 
BRANCH  27  28
ATOM     28  C   UNL     1       2.899  12.072   5.134  0.00  0.00    -0.008 C 
ATOM     29  C   UNL     1       3.794  12.352   3.926  0.00  0.00    +0.008 C 
ATOM     30  C   UNL     1       2.227  13.372   5.583  0.00  0.00    +0.008 C 
ENDBRANCH  27  28
ENDBRANCH  25  27
ENDBRANCH  17  19
ENDBRANCH   5  15
BRANCH   1  31
ATOM     31  C   UNL     1       0.347   0.001   2.704  0.00  0.00    +0.131 C 
BRANCH  31  38
ATOM     32  C   UNL     1       0.398   1.363   0.156  0.00  0.00    +0.044 C 
ATOM     33  C   UNL     1       0.489  -0.141   0.209  0.00  0.00    -0.047 A 
ATOM     34  C   UNL     1       0.602  -0.868  -0.962  0.00  0.00    +0.003 A 
ATOM     35  C   UNL     1       0.685  -2.247  -0.913  0.00  0.00    +0.000 A 
ATOM     36  C   UNL     1       0.655  -2.898   0.306  0.00  0.00    +0.000 A 
ATOM     37  C   UNL     1       0.543  -2.171   1.476  0.00  0.00    +0.004 A 
ATOM     38  C   UNL     1       0.464  -0.792   1.428  0.00  0.00    -0.036 A 
ENDBRANCH  31  38
ENDBRANCH   1  31
TORSDOF 6
