REMARK  Name = ZINC35564725
REMARK  7 active torsions:
REMARK  status: ('A' for Active; 'I' for Inactive)
REMARK    1  A    between atoms: C_6  and  C_7
REMARK    2  A    between atoms: C_7  and  N_8
REMARK    3  A    between atoms: N_11  and  C_14
REMARK    4  A    between atoms: C_14  and  C_15
REMARK    5  A    between atoms: C_29  and  C_31
REMARK    6  A    between atoms: C_31  and  C_32
REMARK    7  A    between atoms: C_32  and  C_33
REMARK                            x       y       z     vdW  Elec       q    Type
REMARK                         _______ _______ _______ _____ _____    ______ ____
ROOT
ATOM      1  C   UNL     1      -4.353  -3.614  -5.158  0.00  0.00    +0.034 A 
ATOM      2  C   UNL     1      -5.468  -2.885  -5.454  0.00  0.00    +0.091 A 
ATOM      3  C   UNL     1      -6.732  -3.467  -5.256  0.00  0.00    +0.253 A 
ATOM      4  O   UNL     1      -7.750  -2.844  -5.510  0.00  0.00    -0.268 OA
ATOM      5  N   UNL     1      -6.799  -4.729  -4.778  0.00  0.00    -0.295 N 
ATOM      6  H   UNL     1      -7.660  -5.150  -4.634  0.00  0.00    +0.172 HD
ATOM      7  C   UNL     1      -5.652  -5.407  -4.501  0.00  0.00    +0.198 A 
ATOM      8  N   UNL     1      -4.471  -4.856  -4.695  0.00  0.00    -0.223 NA
ATOM      9  N   UNL     1      -5.728  -6.685  -4.018  0.00  0.00    -0.298 N 
ATOM     10  C   UNL     1      -7.024  -7.370  -3.913  0.00  0.00    +0.127 C 
ATOM     11  C   UNL     1      -6.941  -8.696  -4.680  0.00  0.00    +0.126 C 
ATOM     12  N   UNL     1      -5.727  -9.408  -4.256  0.00  0.00    -0.298 N 
ATOM     13  C   UNL     1      -4.431  -8.723  -4.361  0.00  0.00    +0.126 C 
ATOM     14  C   UNL     1      -4.513  -7.400  -3.599  0.00  0.00    +0.127 C 
ATOM     15  C   UNL     1      -5.801 -10.667  -3.780  0.00  0.00    +0.216 C 
ATOM     16  O   UNL     1      -6.877 -11.222  -3.698  0.00  0.00    -0.276 OA
ENDROOT
BRANCH   1  17
ATOM     17  C   UNL     1      -2.986  -3.014  -5.363  0.00  0.00    -0.022 C 
BRANCH  17  21
ATOM     18  N   UNL     1      -0.969  -1.329  -2.074  0.00  0.00    -0.302 NA
ATOM     19  C   UNL     1      -0.231  -2.275  -2.922  0.00  0.00    +0.066 C 
ATOM     20  C   UNL     1      -0.938  -2.402  -4.274  0.00  0.00    -0.063 C 
ATOM     21  N   UNL     1      -2.313  -2.875  -4.064  0.00  0.00    +0.385 N 
ATOM     22  C   UNL     1      -3.044  -1.907  -3.236  0.00  0.00    -0.063 C 
ATOM     23  C   UNL     1      -2.354  -1.776  -1.876  0.00  0.00    +0.066 C 
ATOM     24  H   UNL     1      -2.294  -3.769  -3.598  0.00  0.00    -0.081 HD
BRANCH  18  25
ATOM     25  C   UNL     1      -0.288  -1.135  -0.786  0.00  0.00    +0.119 C 
BRANCH  25  31
ATOM     26  C   UNL     1       1.107   0.931  -0.997  0.00  0.00    +0.006 A 
ATOM     27  C   UNL     1       2.320   1.561  -1.206  0.00  0.00    +0.020 A 
ATOM     28  C   UNL     1       3.460   0.810  -1.431  0.00  0.00    +0.041 A 
ATOM     29  C   UNL     1       3.385  -0.571  -1.448  0.00  0.00    +0.020 A 
ATOM     30  C   UNL     1       2.172  -1.200  -1.240  0.00  0.00    +0.006 A 
ATOM     31  C   UNL     1       1.034  -0.449  -1.014  0.00  0.00    -0.033 A 
ATOM     32 CL   UNL     1       4.983   1.601  -1.694  0.00  0.00    -0.084 Cl
ENDBRANCH  25  31
ENDBRANCH  18  25
ENDBRANCH  17  21
ENDBRANCH   1  17
BRANCH  15  33
ATOM     33  C   UNL     1      -4.548 -11.385  -3.350  0.00  0.00    +0.096 C 
BRANCH  33  34
ATOM     34  C   UNL     1      -4.908 -12.787  -2.854  0.00  0.00    +0.013 C 
BRANCH  34  35
ATOM     35  C   UNL     1      -3.636 -13.515  -2.417  0.00  0.00    -0.011 C 
ATOM     36  C   UNL     1      -2.747 -13.807  -3.643  0.00  0.00    +0.003 C 
ATOM     37  C   UNL     1      -2.137 -15.200  -3.347  0.00  0.00    +0.000 C 
ATOM     38  C   UNL     1      -3.311 -15.951  -2.672  0.00  0.00    +0.000 C 
ATOM     39  C   UNL     1      -3.995 -14.879  -1.800  0.00  0.00    +0.003 C 
ENDBRANCH  34  35
ENDBRANCH  33  34
ENDBRANCH  15  33
TORSDOF 7
