REMARK  Name = ZINC09316513
REMARK  7 active torsions:
REMARK  status: ('A' for Active; 'I' for Inactive)
REMARK    1  A    between atoms: C_1  and  C_2
REMARK    2  A    between atoms: C_4  and  N_33
REMARK    3  A    between atoms: C_7  and  N_8
REMARK    4  A    between atoms: C_13  and  C_29
REMARK    5  A    between atoms: C_29  and  C_30
REMARK    6  A    between atoms: C_30  and  S_31
REMARK    7  A    between atoms: S_31  and  C_32
REMARK                            x       y       z     vdW  Elec       q    Type
REMARK                         _______ _______ _______ _____ _____    ______ ____
ROOT
ATOM      1  N   UNL     1       1.597  -0.536  -2.597  0.00  0.00    -0.210 N 
ATOM      2  C   UNL     1       2.404   0.137  -1.770  0.00  0.00    +0.228 C 
ATOM      3  O   UNL     1       3.451  -0.278  -1.322  0.00  0.00    -0.275 OA
ATOM      4  C   UNL     1       1.809   1.496  -1.481  0.00  0.00    +0.073 C 
ATOM      5  C   UNL     1       1.369   1.557  -0.003  0.00  0.00    -0.057 C 
ATOM      6  C   UNL     1      -0.620   1.532  -1.228  0.00  0.00    +0.050 C 
ATOM      7  C   UNL     1       0.484   1.487  -2.292  0.00  0.00    +0.088 C 
ATOM      8  C   UNL     1       0.492   0.128  -2.956  0.00  0.00    +0.229 C 
ATOM      9  O   UNL     1      -0.368  -0.294  -3.699  0.00  0.00    -0.275 OA
ATOM     10  C   UNL     1      -1.818   0.726  -1.641  0.00  0.00    -0.028 A 
ATOM     11  C   UNL     1      -2.004  -0.600  -1.964  0.00  0.00    +0.004 A 
ATOM     12  C   UNL     1      -3.262  -1.058  -2.315  0.00  0.00    +0.000 A 
ATOM     13  C   UNL     1      -4.331  -0.181  -2.340  0.00  0.00    +0.002 A 
ATOM     14  C   UNL     1      -4.150   1.148  -2.017  0.00  0.00    +0.023 A 
ATOM     15  C   UNL     1      -2.887   1.618  -1.663  0.00  0.00    +0.036 A 
ATOM     16  N   UNL     1      -2.457   2.896  -1.301  0.00  0.00    -0.286 N 
ATOM     17  C   UNL     1      -1.137   2.930  -1.032  0.00  0.00    +0.211 C 
ATOM     18  O   UNL     1      -0.492   3.901  -0.696  0.00  0.00    -0.277 OA
ATOM     19  H   UNL     1      -3.040   3.669  -1.251  0.00  0.00    +0.155 HD
ATOM     20  N   UNL     1       0.004   1.027  -0.018  0.00  0.00    +0.394 N 
ATOM     21  H   UNL     1      -0.512   1.351   0.809  0.00  0.00    -0.083 HD
ATOM     22  H   UNL     1       0.022   0.000  -0.029  0.00  0.00    -0.083 HD
ENDROOT
BRANCH   1  29
ATOM     23  C   UNL     1       0.664  -2.739  -1.055  0.00  0.00    +0.046 C 
ATOM     24  C   UNL     1       1.448  -2.933  -2.328  0.00  0.00    -0.026 A 
ATOM     25  C   UNL     1       1.728  -4.208  -2.779  0.00  0.00    +0.038 A 
ATOM     26  C   UNL     1       2.452  -4.387  -3.943  0.00  0.00    +0.127 A 
ATOM     27  C   UNL     1       2.892  -3.291  -4.663  0.00  0.00    +0.034 A 
ATOM     28  C   UNL     1       2.610  -2.014  -4.219  0.00  0.00    +0.026 A 
ATOM     29  C   UNL     1       1.884  -1.831  -3.050  0.00  0.00    +0.047 A 
BRANCH  26  30
ATOM     30  N   UNL     1       2.756  -5.755  -4.421  0.00  0.00    +0.056 N 
ATOM     31  O   UNL     1       3.393  -5.914  -5.447  0.00  0.00    -0.126 OA
ATOM     32  O   UNL     1       2.369  -6.721  -3.789  0.00  0.00    -0.126 OA
ENDBRANCH  26  30
ENDBRANCH   1  29
BRANCH   5  33
ATOM     33  C   UNL     1       2.292   0.698   0.865  0.00  0.00    -0.004 C 
BRANCH  33  34
ATOM     34  C   UNL     1       1.866   0.813   2.330  0.00  0.00    +0.067 C 
BRANCH  34  35
ATOM     35  S   UNL     1       2.960  -0.205   3.359  0.00  0.00    -0.164 S 
ATOM     36  C   UNL     1       2.330   0.038   5.043  0.00  0.00    +0.084 C 
ENDBRANCH  34  35
ENDBRANCH  33  34
ENDBRANCH   5  33
TORSDOF 5
