REMARK  Name = ZINC04598585
REMARK  6 active torsions:
REMARK  status: ('A' for Active; 'I' for Inactive)
REMARK    1  A    between atoms: C_1  and  C_2
REMARK    2  A    between atoms: C_5  and  N_9
REMARK    3  A    between atoms: C_6  and  C_8
REMARK    4  A    between atoms: C_10  and  C_12
REMARK    5  A    between atoms: C_18  and  C_29
REMARK    6  A    between atoms: C_23  and  C_28
REMARK                            x       y       z     vdW  Elec       q    Type
REMARK                         _______ _______ _______ _____ _____    ______ ____
ROOT
ATOM      1  C   UNL     1       1.048   3.087   0.603  0.00  0.00    +0.162 C 
ATOM      2  C   UNL     1      -0.084   3.743  -0.204  0.00  0.00    +0.123 C 
ATOM      3  C   UNL     1       0.282   3.680  -1.670  0.00  0.00    +0.016 A 
ATOM      4  C   UNL     1      -0.279   4.597  -2.541  0.00  0.00    +0.012 A 
ATOM      5  C   UNL     1       0.033   4.559  -3.886  0.00  0.00    -0.050 A 
ATOM      6  C   UNL     1       0.909   3.600  -4.364  0.00  0.00    +0.007 A 
ATOM      7  C   UNL     1       1.472   2.686  -3.498  0.00  0.00    +0.046 A 
ATOM      8  C   UNL     1       1.163   2.723  -2.142  0.00  0.00    +0.128 A 
ATOM      9  O   UNL     1       1.747   1.825  -1.318  0.00  0.00    -0.468 OA
ATOM     10  C   UNL     1       1.261   1.686   0.014  0.00  0.00    +0.188 C 
ATOM     11  N   UNL     1      -0.004   0.957   0.033  0.00  0.00    -0.289 N 
ATOM     12  C   UNL     1      -1.189   1.587   0.049  0.00  0.00    +0.134 C 
ATOM     13  S   UNL     1      -2.619   0.654   0.168  0.00  0.00    -0.019 S 
ATOM     14  N   UNL     1      -1.294   2.925  -0.018  0.00  0.00    -0.319 N 
ATOM     15  C   UNL     1       2.293   0.933   0.856  0.00  0.00    +0.079 C 
ATOM     16  C   UNL     1      -0.580   5.559  -4.832  0.00  0.00    +0.044 C 
ATOM     17  H   UNL     1       0.012  -0.013   0.030  0.00  0.00    +0.151 HD
ATOM     18  H   UNL     1      -2.163   3.349   0.051  0.00  0.00    +0.148 HD
ENDROOT
BRANCH   1  20
ATOM     19  N   UNL     1       2.349   5.167   0.926  0.00  0.00    -0.285 N 
ATOM     20  C   UNL     1       2.311   3.898   0.471  0.00  0.00    +0.228 C 
ATOM     21  O   UNL     1       3.295   3.410  -0.044  0.00  0.00    -0.275 OA
ATOM     22  H   UNL     1       1.542   5.585   1.264  0.00  0.00    +0.155 HD
BRANCH  19  27
ATOM     23  C   UNL     1       7.227   8.062   0.856  0.00  0.00    +0.044 C 
ATOM     24  C   UNL     1       5.931   7.293   0.875  0.00  0.00    -0.050 A 
ATOM     25  C   UNL     1       5.949   5.911   0.909  0.00  0.00    +0.005 A 
ATOM     26  C   UNL     1       4.764   5.203   0.931  0.00  0.00    +0.024 A 
ATOM     27  C   UNL     1       3.552   5.881   0.909  0.00  0.00    +0.036 A 
ATOM     28  C   UNL     1       3.537   7.269   0.875  0.00  0.00    -0.029 A 
ATOM     29  C   UNL     1       4.726   7.971   0.858  0.00  0.00    +0.008 A 
ATOM     30  C   UNL     1       2.224   8.009   0.857  0.00  0.00    +0.045 C 
ENDBRANCH  19  27
ENDBRANCH   1  20
TORSDOF 2
