REMARK  Name = ZINC17639667
REMARK  9 active torsions:
REMARK  status: ('A' for Active; 'I' for Inactive)
REMARK    1  A    between atoms: C_1  and  C_2
REMARK    2  A    between atoms: C_3  and  C_30
REMARK    3  A    between atoms: C_11  and  C_13
REMARK    4  A    between atoms: C_13  and  S_14
REMARK    5  A    between atoms: S_14  and  C_15
REMARK    6  A    between atoms: C_15  and  C_17
REMARK    7  A    between atoms: C_15  and  C_18
REMARK    8  A    between atoms: N_20  and  N_21
REMARK    9  A    between atoms: C_22  and  C_24
REMARK                            x       y       z     vdW  Elec       q    Type
REMARK                         _______ _______ _______ _____ _____    ______ ____
ROOT
ATOM      1  C   UNL     1      -2.794   9.391   0.081  0.00  0.00    +0.131 C 
ATOM      2  C   UNL     1      -2.712   9.916  -1.354  0.00  0.00    +0.029 C 
ENDROOT
BRANCH   1   3
ATOM      3  C   UNL     1      -2.708   7.887   0.071  0.00  0.00    +0.242 C 
ATOM      4  O   UNL     1      -3.722   7.221   0.077  0.00  0.00    -0.273 OA
ATOM      5  N   UNL     1      -1.504   7.281   0.057  0.00  0.00    -0.233 N 
ATOM      6  H   UNL     1      -0.694   7.813   0.052  0.00  0.00    +0.173 HD
BRANCH   5   7
ATOM      7  N   UNL     1      -1.425   5.882   0.048  0.00  0.00    -0.229 N 
ATOM      8  C   UNL     1      -0.221   5.276   0.033  0.00  0.00    +0.278 C 
ATOM      9  O   UNL     1       0.795   5.943   0.027  0.00  0.00    -0.267 OA
ATOM     10  H   UNL     1      -2.235   5.350   0.052  0.00  0.00    +0.173 HD
BRANCH   8  11
ATOM     11  C   UNL     1      -0.136   3.797   0.024  0.00  0.00    +0.127 A 
ATOM     12  C   UNL     1       1.111   3.176   0.009  0.00  0.00    +0.033 A 
ATOM     13  C   UNL     1       1.174   1.792   0.001  0.00  0.00    +0.004 A 
ATOM     14  C   UNL     1      -0.013   1.076   0.008  0.00  0.00    +0.020 A 
ATOM     15  C   UNL     1      -1.218   1.759   0.017  0.00  0.00    +0.111 A 
ATOM     16  N   UNL     1      -1.249   3.074   0.031  0.00  0.00    -0.250 NA
ENDBRANCH   8  11
ENDBRANCH   5   7
ENDBRANCH   1   3
BRANCH   1  17
ATOM     17  S   UNL     1      -4.370   9.902   0.822  0.00  0.00    -0.141 S 
BRANCH  17  18
ATOM     18  C   UNL     1      -4.253  11.711   0.898  0.00  0.00    +0.144 C 
BRANCH  18  29
ATOM     19  C   UNL     1      -9.461  15.062   3.465  0.00  0.00    +0.045 C 
ATOM     20  C   UNL     1      -9.096  13.624   3.199  0.00  0.00    -0.026 A 
ATOM     21  C   UNL     1      -9.951  12.638   3.511  0.00  0.00    -0.008 A 
ATOM     22  S   UNL     1      -9.079  11.163   3.017  0.00  0.00    -0.073 S 
ATOM     23  C   UNL     1      -7.593  11.915   2.406  0.00  0.00    +0.116 A 
ATOM     24  C   UNL     1      -7.816  13.290   2.603  0.00  0.00    +0.075 A 
ATOM     25  C   UNL     1      -6.752  14.156   2.188  0.00  0.00    +0.260 A 
ATOM     26  O   UNL     1      -6.851  15.364   2.318  0.00  0.00    -0.267 OA
ATOM     27  N   UNL     1      -5.640  13.614   1.659  0.00  0.00    -0.310 N 
ATOM     28  H   UNL     1      -4.914  14.194   1.381  0.00  0.00    +0.170 HD
ATOM     29  C   UNL     1      -5.515  12.271   1.502  0.00  0.00    +0.121 A 
ATOM     30  N   UNL     1      -6.466  11.455   1.869  0.00  0.00    -0.226 NA
ATOM     31  C   UNL     1     -11.320  12.750   4.132  0.00  0.00    +0.052 C 
ENDBRANCH  18  29
ENDBRANCH  17  18
ENDBRANCH   1  17
TORSDOF 6
