REMARK  Name = ZINC09395665
REMARK  8 active torsions:
REMARK  status: ('A' for Active; 'I' for Inactive)
REMARK    1  A    between atoms: C_1  and  C_2
REMARK    2  A    between atoms: C_2  and  C_3
REMARK    3  A    between atoms: C_3  and  N_4
REMARK    4  A    between atoms: C_17  and  S_18
REMARK    5  A    between atoms: S_18  and  C_19
REMARK    6  A    between atoms: C_19  and  C_20
REMARK    7  A    between atoms: N_22  and  N_23
REMARK    8  A    between atoms: C_24  and  C_26
REMARK                            x       y       z     vdW  Elec       q    Type
REMARK                         _______ _______ _______ _____ _____    ______ ____
ROOT
ATOM      1  N   UNL     1      11.152   0.873  -0.098  0.00  0.00    -0.277 N 
ATOM      2  C   UNL     1      11.725   2.094  -0.114  0.00  0.00    +0.263 A 
ATOM      3  O   UNL     1      12.936   2.209  -0.129  0.00  0.00    -0.267 OA
ATOM      4  C   UNL     1      10.858   3.286  -0.102  0.00  0.00    +0.064 A 
ATOM      5  C   UNL     1      11.396   4.572  -0.108  0.00  0.00    +0.015 A 
ATOM      6  C   UNL     1      10.553   5.663  -0.097  0.00  0.00    +0.001 A 
ATOM      7  C   UNL     1       9.179   5.487  -0.079  0.00  0.00    +0.002 A 
ATOM      8  C   UNL     1       8.634   4.218  -0.073  0.00  0.00    +0.027 A 
ATOM      9  C   UNL     1       9.466   3.109  -0.084  0.00  0.00    +0.064 A 
ATOM     10  N   UNL     1       8.942   1.818  -0.079  0.00  0.00    -0.256 N 
ATOM     11  C   UNL     1       9.772   0.731  -0.087  0.00  0.00    +0.240 A 
ATOM     12  N   UNL     1       9.021  -0.348  -0.086  0.00  0.00    -0.109 NA
ATOM     13  N   UNL     1       7.680   0.056  -0.071  0.00  0.00    -0.120 NA
ATOM     14  C   UNL     1       7.650   1.366  -0.064  0.00  0.00    +0.198 A 
ENDROOT
BRANCH   1  15
ATOM     15  C   UNL     1      11.999  -0.322  -0.112  0.00  0.00    +0.128 C 
BRANCH  15  17
ATOM     16  C   UNL     1      13.167  -1.977  -1.575  0.00  0.00    +0.005 C 
ATOM     17  C   UNL     1      12.282  -0.730  -1.560  0.00  0.00    +0.018 C 
ENDBRANCH  15  17
ENDBRANCH   1  15
BRANCH  14  18
ATOM     18  S   UNL     1       6.202   2.369  -0.044  0.00  0.00    -0.076 S 
BRANCH  18  19
ATOM     19  C   UNL     1       4.839   1.171  -0.038  0.00  0.00    +0.174 C 
BRANCH  19  20
ATOM     20  C   UNL     1       3.524   1.907  -0.021  0.00  0.00    +0.239 C 
ATOM     21  O   UNL     1       3.508   3.120  -0.015  0.00  0.00    -0.273 OA
ATOM     22  N   UNL     1       2.366   1.217  -0.014  0.00  0.00    -0.233 N 
ATOM     23  H   UNL     1       2.379   0.247  -0.019  0.00  0.00    +0.173 HD
BRANCH  22  24
ATOM     24  N   UNL     1       1.143   1.901   0.001  0.00  0.00    -0.230 N 
ATOM     25  C   UNL     1      -0.014   1.211   0.009  0.00  0.00    +0.260 C 
ATOM     26  O   UNL     1       0.002  -0.004   0.002  0.00  0.00    -0.269 OA
ATOM     27  H   UNL     1       1.130   2.871   0.007  0.00  0.00    +0.173 HD
BRANCH  25  28
ATOM     28  C   UNL     1      -1.304   1.933   0.019  0.00  0.00    +0.038 A 
ATOM     29  C   UNL     1      -1.326   3.329   0.032  0.00  0.00    +0.014 A 
ATOM     30  C   UNL     1      -2.533   3.996   0.035  0.00  0.00    +0.021 A 
ATOM     31  C   UNL     1      -3.721   3.285   0.037  0.00  0.00    +0.041 A 
ATOM     32  C   UNL     1      -3.706   1.900   0.030  0.00  0.00    +0.021 A 
ATOM     33  C   UNL     1      -2.505   1.221   0.021  0.00  0.00    +0.014 A 
ATOM     34 CL   UNL     1      -5.236   4.132   0.048  0.00  0.00    -0.084 Cl
ENDBRANCH  25  28
ENDBRANCH  22  24
ENDBRANCH  19  20
ENDBRANCH  18  19
ENDBRANCH  14  18
TORSDOF 7
