REMARK  Name = ZINC63375846
REMARK  4 active torsions:
REMARK  status: ('A' for Active; 'I' for Inactive)
REMARK    1  A    between atoms: C_20  and  C_25
REMARK    2  A    between atoms: N_27  and  C_28
REMARK    3  A    between atoms: C_28  and  C_29
REMARK    4  A    between atoms: C_29  and  C_30
REMARK                            x       y       z     vdW  Elec       q    Type
REMARK                         _______ _______ _______ _____ _____    ______ ____
ROOT
ATOM      1  C   UNL     1      -0.139   1.218  -1.169  0.00  0.00    +0.000 A 
ATOM      2  C   UNL     1       1.006   1.986  -1.268  0.00  0.00    +0.001 A 
ATOM      3  C   UNL     1       2.269   1.441  -1.097  0.00  0.00    +0.013 A 
ATOM      4  C   UNL     1       2.335   0.073  -0.819  0.00  0.00    +0.042 A 
ATOM      5  C   UNL     1       1.162  -0.698  -0.712  0.00  0.00    -0.013 A 
ATOM      6  C   UNL     1      -0.087  -0.143  -0.888  0.00  0.00    +0.006 A 
ATOM      7  C   UNL     1       1.598  -2.089  -0.389  0.00  0.00    +0.134 C 
ATOM      8  C   UNL     1       1.099  -3.090  -1.430  0.00  0.00    +0.131 C 
ATOM      9  C   UNL     1       2.320  -3.643  -2.150  0.00  0.00    -0.034 C 
ATOM     10  C   UNL     1       2.127  -3.408  -3.445  0.00  0.00    -0.001 A 
ATOM     11  C   UNL     1       2.922  -3.762  -4.632  0.00  0.00    +0.010 A 
ATOM     12  C   UNL     1       2.428  -3.348  -5.829  0.00  0.00    +0.001 A 
ATOM     13  C   UNL     1       1.237  -2.628  -5.962  0.00  0.00    +0.002 A 
ATOM     14  C   UNL     1       0.441  -2.264  -4.926  0.00  0.00    +0.026 A 
ATOM     15  C   UNL     1       0.854  -2.645  -3.616  0.00  0.00    +0.043 A 
ATOM     16  N   UNL     1       0.273  -2.445  -2.453  0.00  0.00    -0.375 N 
ATOM     17  C   UNL     1       3.501  -4.256  -1.438  0.00  0.00    +0.065 C 
ATOM     18  C   UNL     1       3.931  -3.265  -0.340  0.00  0.00    +0.167 C 
ATOM     19  N   UNL     1       3.074  -2.074  -0.422  0.00  0.00    -0.276 N 
ATOM     20  C   UNL     1       3.486  -0.803  -0.594  0.00  0.00    +0.248 C 
ATOM     21  O   UNL     1       4.645  -0.437  -0.566  0.00  0.00    -0.270 OA
ATOM     22  H   UNL     1      -0.550  -1.957  -2.293  0.00  0.00    +0.160 HD
ENDROOT
BRANCH  18  23
ATOM     23  C   UNL     1       5.371  -2.872  -0.545  0.00  0.00    +0.234 C 
ATOM     24  O   UNL     1       5.688  -2.210  -1.510  0.00  0.00    -0.274 OA
ATOM     25  N   UNL     1       6.308  -3.256   0.345  0.00  0.00    -0.313 N 
ATOM     26  H   UNL     1       6.055  -3.786   1.118  0.00  0.00    +0.149 HD
BRANCH  25  27
ATOM     27  C   UNL     1       7.708  -2.874   0.146  0.00  0.00    +0.109 C 
BRANCH  27  28
ATOM     28  C   UNL     1       8.557  -3.433   1.290  0.00  0.00    +0.054 C 
BRANCH  28  29
ATOM     29  C   UNL     1       9.997  -3.040   1.085  0.00  0.00    -0.046 A 
ATOM     30  C   UNL     1      10.841  -3.860   0.359  0.00  0.00    +0.005 A 
ATOM     31  C   UNL     1      12.162  -3.500   0.170  0.00  0.00    +0.020 A 
ATOM     32  C   UNL     1      12.640  -2.319   0.709  0.00  0.00    +0.041 A 
ATOM     33  C   UNL     1      11.796  -1.498   1.435  0.00  0.00    +0.020 A 
ATOM     34  C   UNL     1      10.473  -1.857   1.618  0.00  0.00    +0.005 A 
ATOM     35 CL   UNL     1      14.299  -1.866   0.473  0.00  0.00    -0.084 Cl
ENDBRANCH  28  29
ENDBRANCH  27  28
ENDBRANCH  25  27
ENDBRANCH  18  23
TORSDOF 4
