REMARK  Name = ZINC09311097
REMARK  7 active torsions:
REMARK  status: ('A' for Active; 'I' for Inactive)
REMARK    1  A    between atoms: C_1  and  C_2
REMARK    2  A    between atoms: C_4  and  C_29
REMARK    3  A    between atoms: C_6  and  N_8
REMARK    4  A    between atoms: C_12  and  C_13
REMARK    5  A    between atoms: C_16  and  O_20
REMARK    6  A    between atoms: O_20  and  C_21
REMARK    7  A    between atoms: C_21  and  C_22
REMARK                            x       y       z     vdW  Elec       q    Type
REMARK                         _______ _______ _______ _____ _____    ______ ____
ROOT
ATOM      1  N   UNL     1      -0.130   5.218  -0.541  0.00  0.00    -0.190 N 
ATOM      2  C   UNL     1      -1.245   5.890  -0.185  0.00  0.00    +0.263 C 
ATOM      3  O   UNL     1      -2.173   5.318   0.354  0.00  0.00    -0.269 OA
ATOM      4  C   UNL     1      -1.307   7.337  -0.468  0.00  0.00    +0.100 C 
ATOM      5  C   UNL     1      -2.416   8.091  -0.133  0.00  0.00    +0.026 C 
ATOM      6  C   UNL     1      -0.133   7.943  -1.126  0.00  0.00    +0.257 C 
ATOM      7  O   UNL     1      -0.109   9.130  -1.392  0.00  0.00    -0.270 OA
ATOM      8  N   UNL     1       0.913   7.145  -1.424  0.00  0.00    -0.235 N 
ATOM      9  C   UNL     1       0.902   5.837  -1.131  0.00  0.00    +0.320 C 
ATOM     10  O   UNL     1       1.879   5.175  -1.422  0.00  0.00    -0.251 OA
ATOM     11  H   UNL     1       1.693   7.527  -1.856  0.00  0.00    +0.159 HD
ENDROOT
BRANCH   1  17
ATOM     12  C   UNL     1       0.110   0.602  -2.220  0.00  0.00    +0.044 C 
ATOM     13  C   UNL     1       0.070   1.585  -1.078  0.00  0.00    -0.048 A 
ATOM     14  C   UNL     1       0.117   1.129   0.227  0.00  0.00    +0.006 A 
ATOM     15  C   UNL     1       0.076   2.027   1.278  0.00  0.00    -0.048 A 
ATOM     16  C   UNL     1      -0.000   3.383   1.026  0.00  0.00    +0.027 A 
ATOM     17  C   UNL     1      -0.047   3.844  -0.283  0.00  0.00    +0.046 A 
ATOM     18  C   UNL     1      -0.012   2.939  -1.335  0.00  0.00    +0.027 A 
ATOM     19  C   UNL     1       0.121   1.527   2.698  0.00  0.00    +0.044 C 
ENDBRANCH   1  17
BRANCH   5  20
ATOM     20  C   UNL     1      -2.365   9.549  -0.229  0.00  0.00    -0.023 A 
ATOM     21  C   UNL     1      -1.260  10.251   0.279  0.00  0.00    +0.011 A 
ATOM     22  C   UNL     1      -1.213  11.612   0.182  0.00  0.00    +0.047 A 
ATOM     23  C   UNL     1      -2.262  12.310  -0.409  0.00  0.00    +0.135 A 
ATOM     24  C   UNL     1      -3.366  11.626  -0.912  0.00  0.00    +0.060 A 
ATOM     25  C   UNL     1      -3.422  10.253  -0.825  0.00  0.00    +0.027 A 
ATOM     26 BR   UNL     1      -4.786  12.582  -1.714  0.00  0.00    -0.046 Br
BRANCH  23  27
ATOM     27  O   UNL     1      -2.209  13.663  -0.496  0.00  0.00    -0.480 OA
BRANCH  27  28
ATOM     28  C   UNL     1      -1.048  14.302   0.039  0.00  0.00    +0.353 C 
BRANCH  28  29
ATOM     29  C   UNL     1      -1.166  15.793  -0.146  0.00  0.00    +0.393 C 
ATOM     30  O   UNL     1      -2.143  16.260  -0.681  0.00  0.00    -0.243 OA
ATOM     31  O   UNL     1      -0.184  16.602   0.284  0.00  0.00    -0.243 OA
ENDBRANCH  28  29
ENDBRANCH  27  28
ENDBRANCH  23  27
ENDBRANCH   5  20
TORSDOF 5
