REMARK  Name = ZINC38039707
REMARK  5 active torsions:
REMARK  status: ('A' for Active; 'I' for Inactive)
REMARK    1  A    between atoms: C_1  and  C_2
REMARK    2  A    between atoms: C_7  and  N_10
REMARK    3  A    between atoms: N_10  and  S_11
REMARK    4  A    between atoms: S_11  and  C_14
REMARK    5  A    between atoms: C_19  and  N_20
REMARK                            x       y       z     vdW  Elec       q    Type
REMARK                         _______ _______ _______ _____ _____    ______ ____
ROOT
ATOM      1  S   UNL     1       2.550  -3.875   0.076  0.00  0.00    +0.061 S 
ATOM      2  O   UNL     1       3.216  -4.126  -1.154  0.00  0.00    -0.153 OA
ATOM      3  O   UNL     1       3.253  -3.619   1.284  0.00  0.00    -0.153 OA
ENDROOT
BRANCH   1   4
ATOM      4  C   UNL     1       1.515  -5.268   0.382  0.00  0.00    +0.136 A 
ATOM      5  C   UNL     1       1.563  -5.909   1.605  0.00  0.00    +0.046 A 
ATOM      6  C   UNL     1       0.750  -7.002   1.845  0.00  0.00    +0.020 A 
ATOM      7  C   UNL     1      -0.111  -7.453   0.860  0.00  0.00    +0.017 A 
ATOM      8  C   UNL     1      -0.158  -6.811  -0.363  0.00  0.00    +0.036 A 
ATOM      9  C   UNL     1       0.651  -5.715  -0.600  0.00  0.00    +0.152 A 
ATOM     10 BR   UNL     1       0.815  -7.881   3.518  0.00  0.00    -0.050 Br
BRANCH   9  11
ATOM     11  N   UNL     1       0.596  -5.024  -1.908  0.00  0.00    +0.058 N 
ATOM     12  O   UNL     1      -0.060  -5.490  -2.811  0.00  0.00    -0.126 OA
ATOM     13  O   UNL     1       1.206  -3.993  -2.073  0.00  0.00    -0.126 OA
ENDBRANCH   9  11
ENDBRANCH   1   4
BRANCH   1  14
ATOM     14  N   UNL     1       1.558  -2.574  -0.180  0.00  0.00    -0.187 NA
ATOM     15  H   UNL     1       1.543  -2.139  -1.046  0.00  0.00    +0.148 HD
BRANCH  14  21
ATOM     16  C   UNL     1       0.022   1.423  -0.542  0.00  0.00    +0.007 C 
ATOM     17  C   UNL     1       0.076  -0.105  -0.492  0.00  0.00    -0.013 C 
ATOM     18  C   UNL     1      -1.335  -0.671  -0.658  0.00  0.00    +0.003 C 
ATOM     19  C   UNL     1      -1.281  -2.200  -0.609  0.00  0.00    +0.002 C 
ATOM     20  C   UNL     1      -0.708  -2.647   0.737  0.00  0.00    +0.020 C 
ATOM     21  C   UNL     1       0.704  -2.080   0.903  0.00  0.00    +0.077 C 
ATOM     22  C   UNL     1       0.650  -0.552   0.854  0.00  0.00    +0.023 C 
ENDBRANCH  14  21
ENDBRANCH   1  14
TORSDOF 4
