REMARK  Name = ZINC40783115
REMARK  5 active torsions:
REMARK  status: ('A' for Active; 'I' for Inactive)
REMARK    1  A    between atoms: C_1  and  C_2
REMARK    2  A    between atoms: C_3  and  C_26
REMARK    3  A    between atoms: C_9  and  N_25
REMARK    4  A    between atoms: C_10  and  N_14
REMARK    5  A    between atoms: N_14  and  C_15
REMARK                            x       y       z     vdW  Elec       q    Type
REMARK                         _______ _______ _______ _____ _____    ______ ____
ROOT
ATOM      1  C   UNL     1      -1.184   1.481   0.112  0.00  0.00    +0.066 C 
ATOM      2  C   UNL     1      -1.191  -0.026   0.110  0.00  0.00    +0.050 A 
ATOM      3  C   UNL     1      -1.408  -0.731  -1.027  0.00  0.00    +0.011 A 
ATOM      4  S   UNL     1      -1.300  -2.402  -0.409  0.00  0.00    -0.057 S 
ATOM      5  C   UNL     1      -0.994  -2.034   1.205  0.00  0.00    +0.164 A 
ATOM      6  N   UNL     1      -0.981  -0.718   1.215  0.00  0.00    -0.230 NA
ATOM      7  N   UNL     1      -0.800  -2.906   2.266  0.00  0.00    -0.277 N 
ATOM      8  C   UNL     1      -0.557  -2.406   3.542  0.00  0.00    +0.150 A 
ATOM      9  C   UNL     1      -0.354  -3.274   4.616  0.00  0.00    +0.106 A 
ATOM     10  C   UNL     1      -0.114  -2.720   5.875  0.00  0.00    +0.149 A 
ATOM     11  N   UNL     1      -0.089  -1.395   6.002  0.00  0.00    -0.219 NA
ATOM     12  C   UNL     1      -0.286  -0.611   4.961  0.00  0.00    +0.225 A 
ATOM     13  N   UNL     1      -0.510  -1.094   3.755  0.00  0.00    -0.219 NA
ATOM     14  C   UNL     1      -1.669  -0.239  -2.428  0.00  0.00    +0.053 C 
ATOM     15  H   UNL     1      -0.832  -3.864   2.119  0.00  0.00    +0.156 HD
ENDROOT
BRANCH   9  16
ATOM     16  N   UNL     1      -0.390  -4.666   4.436  0.00  0.00    -0.353 N 
ATOM     17  H   UNL     1      -0.558  -5.037   3.556  0.00  0.00    +0.143 HD
ATOM     18  H   UNL     1      -0.247  -5.256   5.192  0.00  0.00    +0.143 HD
ENDBRANCH   9  16
BRANCH  10  19
ATOM     19  N   UNL     1       0.094  -3.539   6.979  0.00  0.00    -0.297 N 
ATOM     20  H   UNL     1       0.167  -4.499   6.864  0.00  0.00    +0.154 HD
BRANCH  19  21
ATOM     21  C   UNL     1       0.199  -2.980   8.251  0.00  0.00    +0.042 A 
ATOM     22  C   UNL     1      -0.406  -1.772   8.533  0.00  0.00    +0.024 A 
ATOM     23  C   UNL     1      -0.306  -1.209   9.800  0.00  0.00    +0.004 A 
ATOM     24  C   UNL     1       0.387  -1.830  10.795  0.00  0.00    +0.028 A 
ATOM     25  C   UNL     1       1.017  -3.061  10.551  0.00  0.00    +0.073 A 
ATOM     26  C   UNL     1       0.918  -3.647   9.265  0.00  0.00    +0.022 A 
ATOM     27  C   UNL     1       1.545  -4.881   9.026  0.00  0.00    +0.013 A 
ATOM     28  C   UNL     1       2.224  -5.470  10.056  0.00  0.00    +0.020 A 
ATOM     29  C   UNL     1       2.280  -4.844  11.299  0.00  0.00    +0.111 A 
ATOM     30  N   UNL     1       1.703  -3.687  11.515  0.00  0.00    -0.255 NA
ENDBRANCH  19  21
ENDBRANCH  10  19
TORSDOF 3
