REMARK  Name = ZINC23359540
REMARK  15 active torsions:
REMARK  status: ('A' for Active; 'I' for Inactive)
REMARK    1  A    between atoms: C_1  and  N_2
REMARK    2  A    between atoms: C_3  and  C_5
REMARK    3  A    between atoms: C_8  and  N_26
REMARK    4  A    between atoms: N_11  and  C_12
REMARK    5  A    between atoms: C_12  and  C_13
REMARK    6  A    between atoms: C_13  and  C_14
REMARK    7  A    between atoms: C_13  and  C_20
REMARK    8  A    between atoms: N_26  and  C_27
REMARK    9  A    between atoms: C_27  and  C_28
REMARK   10  A    between atoms: C_30  and  O_38
REMARK   11  A    between atoms: C_31  and  O_36
REMARK   12  A    between atoms: C_32  and  O_34
REMARK   13  A    between atoms: O_34  and  C_35
REMARK   14  A    between atoms: O_36  and  C_37
REMARK   15  A    between atoms: O_38  and  C_39
REMARK                            x       y       z     vdW  Elec       q    Type
REMARK                         _______ _______ _______ _____ _____    ______ ____
ROOT
ATOM      1  C   UNL     1       0.218  -2.366   1.522  0.00  0.00    +0.142 C 
ATOM      2  C   UNL     1      -1.170  -2.918   1.934  0.00  0.00    +0.014 C 
ATOM      3  C   UNL     1      -0.788  -4.275   2.582  0.00  0.00    -0.055 C 
ATOM      4  C   UNL     1       0.552  -3.962   3.279  0.00  0.00    +0.069 C 
ATOM      5  N   UNL     1       1.130  -2.780   2.609  0.00  0.00    -0.292 NA
ENDROOT
BRANCH   1   8
ATOM      6  C   UNL     1      -0.665   1.187   0.403  0.00  0.00    +0.128 C 
ATOM      7  N   UNL     1      -0.624  -0.274   0.505  0.00  0.00    -0.317 N 
ATOM      8  C   UNL     1       0.175  -0.864   1.416  0.00  0.00    +0.230 C 
ATOM      9  O   UNL     1       0.859  -0.184   2.152  0.00  0.00    -0.274 OA
ATOM     10  H   UNL     1      -1.171  -0.817  -0.084  0.00  0.00    +0.148 HD
ENDBRANCH   1   8
BRANCH   3  11
ATOM     11  N   UNL     1      -1.803  -4.687   3.560  0.00  0.00    +0.384 N 
ATOM     12  H   UNL     1      -1.817  -4.032   4.327  0.00  0.00    -0.085 HD
ATOM     13  H   UNL     1      -2.709  -4.706   3.117  0.00  0.00    -0.085 HD
BRANCH  11  14
ATOM     14  C   UNL     1      -1.478  -6.027   4.067  0.00  0.00    -0.046 C 
BRANCH  14  15
ATOM     15  C   UNL     1      -2.519  -6.450   5.071  0.00  0.00    -0.057 A 
ATOM     16  C   UNL     1      -2.350  -6.149   6.409  0.00  0.00    +0.051 A 
ATOM     17  C   UNL     1      -3.305  -6.537   7.336  0.00  0.00    +0.165 A 
ATOM     18  C   UNL     1      -4.435  -7.230   6.918  0.00  0.00    +0.204 A 
ATOM     19  C   UNL     1      -4.602  -7.531   5.572  0.00  0.00    +0.165 A 
ATOM     20  C   UNL     1      -3.644  -7.135   4.650  0.00  0.00    +0.051 A 
BRANCH  19  21
ATOM     21  O   UNL     1      -5.706  -8.209   5.157  0.00  0.00    -0.491 OA
ATOM     22  C   UNL     1      -5.812  -8.484   3.759  0.00  0.00    +0.277 C 
ENDBRANCH  19  21
BRANCH  18  23
ATOM     23  O   UNL     1      -5.375  -7.613   7.825  0.00  0.00    -0.488 OA
ATOM     24  C   UNL     1      -6.436  -6.693   8.087  0.00  0.00    +0.277 C 
ENDBRANCH  18  23
BRANCH  17  25
ATOM     25  O   UNL     1      -3.137  -6.240   8.653  0.00  0.00    -0.491 OA
ATOM     26  C   UNL     1      -1.952  -5.526   9.010  0.00  0.00    +0.277 C 
ENDBRANCH  17  25
ENDBRANCH  14  15
ENDBRANCH  11  14
ENDBRANCH   3  11
BRANCH   5  27
ATOM     27  C   UNL     1       2.472  -3.071   2.088  0.00  0.00    +0.098 C 
BRANCH  27  28
ATOM     28  C   UNL     1       3.444  -3.251   3.256  0.00  0.00    +0.063 C 
BRANCH  28  29
ATOM     29  C   UNL     1       3.053  -4.470   4.051  0.00  0.00    -0.039 A 
ATOM     30  C   UNL     1       3.148  -5.726   3.483  0.00  0.00    +0.004 A 
ATOM     31  C   UNL     1       2.789  -6.844   4.212  0.00  0.00    +0.000 A 
ATOM     32  C   UNL     1       2.336  -6.706   5.511  0.00  0.00    +0.000 A 
ATOM     33  C   UNL     1       2.242  -5.449   6.080  0.00  0.00    +0.000 A 
ATOM     34  C   UNL     1       2.605  -4.332   5.352  0.00  0.00    +0.004 A 
ENDBRANCH  28  29
BRANCH  28  35
ATOM     35  C   UNL     1       4.843  -3.427   2.723  0.00  0.00    -0.039 A 
ATOM     36  C   UNL     1       5.074  -4.273   1.654  0.00  0.00    +0.004 A 
ATOM     37  C   UNL     1       6.357  -4.434   1.165  0.00  0.00    +0.000 A 
ATOM     38  C   UNL     1       7.409  -3.748   1.744  0.00  0.00    +0.000 A 
ATOM     39  C   UNL     1       7.177  -2.902   2.812  0.00  0.00    +0.000 A 
ATOM     40  C   UNL     1       5.894  -2.737   3.298  0.00  0.00    +0.004 A 
ENDBRANCH  28  35
ENDBRANCH  27  28
ENDBRANCH   5  27
TORSDOF 11
