REMARK  Name = ZINC38936036
REMARK  6 active torsions:
REMARK  status: ('A' for Active; 'I' for Inactive)
REMARK    1  A    between atoms: C_4  and  C_7
REMARK    2  A    between atoms: N_9  and  C_10
REMARK    3  A    between atoms: C_10  and  C_12
REMARK    4  A    between atoms: C_10  and  C_24
REMARK    5  A    between atoms: N_26  and  N_27
REMARK    6  A    between atoms: C_28  and  C_29
REMARK                            x       y       z     vdW  Elec       q    Type
REMARK                         _______ _______ _______ _____ _____    ______ ____
ROOT
ATOM      1  C   UNL     1       5.014  -2.810  -0.152  0.00  0.00    +0.189 C 
ENDROOT
BRANCH   1   2
ATOM      2  C   UNL     1       4.941  -2.574  -1.662  0.00  0.00    +0.156 C 
ATOM      3  C   UNL     1       6.099  -3.302  -2.301  0.00  0.00    -0.009 A 
ATOM      4  C   UNL     1       7.405  -3.054  -1.966  0.00  0.00    +0.006 A 
ATOM      5  C   UNL     1       8.419  -3.761  -2.594  0.00  0.00    +0.000 A 
ATOM      6  C   UNL     1       8.120  -4.712  -3.554  0.00  0.00    +0.001 A 
ATOM      7  C   UNL     1       6.808  -4.970  -3.900  0.00  0.00    +0.013 A 
ATOM      8  C   UNL     1       5.785  -4.264  -3.272  0.00  0.00    +0.045 A 
ATOM      9  C   UNL     1       4.363  -4.488  -3.592  0.00  0.00    +0.283 C 
ATOM     10  O   UNL     1       4.061  -5.315  -4.428  0.00  0.00    -0.267 OA
ATOM     11  N   UNL     1       3.398  -3.792  -2.971  0.00  0.00    -0.105 NA
ATOM     12  N   UNL     1       3.589  -2.935  -2.110  0.00  0.00    -0.305 N 
ATOM     13  H   UNL     1       2.825  -2.484  -1.717  0.00  0.00    +0.181 HD
ENDBRANCH   1   2
BRANCH   1  16
ATOM     14  C   UNL     1       4.341  -0.703   0.870  0.00  0.00    +0.245 C 
ATOM     15  O   UNL     1       5.474  -0.293   0.708  0.00  0.00    -0.270 OA
ATOM     16  N   UNL     1       4.025  -1.966   0.523  0.00  0.00    -0.298 N 
ATOM     17  H   UNL     1       3.142  -2.317   0.719  0.00  0.00    +0.150 HD
BRANCH  14  21
ATOM     18  C   UNL     1       1.377   1.848   2.530  0.00  0.00    +0.000 A 
ATOM     19  C   UNL     1       2.666   2.317   2.347  0.00  0.00    +0.001 A 
ATOM     20  C   UNL     1       3.633   1.494   1.809  0.00  0.00    +0.013 A 
ATOM     21  C   UNL     1       3.309   0.185   1.448  0.00  0.00    +0.037 A 
ATOM     22  C   UNL     1       2.007  -0.282   1.635  0.00  0.00    +0.013 A 
ATOM     23  C   UNL     1       1.049   0.552   2.174  0.00  0.00    +0.001 A 
ENDBRANCH  14  21
ENDBRANCH   1  16
BRANCH   1  24
ATOM     24  C   UNL     1       4.725  -4.258   0.145  0.00  0.00    +0.255 C 
ATOM     25  O   UNL     1       3.621  -4.592   0.518  0.00  0.00    -0.272 OA
ATOM     26  N   UNL     1       5.694  -5.183  -0.005  0.00  0.00    -0.205 N 
ATOM     27  H   UNL     1       6.594  -4.909  -0.243  0.00  0.00    +0.177 HD
BRANCH  26  28
ATOM     28  N   UNL     1       5.402  -6.541   0.184  0.00  0.00    -0.188 NA
ATOM     29  C   UNL     1       6.343  -7.439   0.038  0.00  0.00    +0.136 C 
BRANCH  29  30
ATOM     30  C   UNL     1       6.051  -8.797   0.227  0.00  0.00    +0.000 C 
ATOM     31  C   UNL     1       6.931  -9.871   0.117  0.00  0.00    +0.004 A 
ATOM     32  C   UNL     1       8.306  -9.950  -0.196  0.00  0.00    +0.010 A 
ATOM     33  C   UNL     1       8.919 -11.160  -0.232  0.00  0.00    +0.001 A 
ATOM     34  C   UNL     1       8.224 -12.343   0.035  0.00  0.00    +0.002 A 
ATOM     35  C   UNL     1       6.904 -12.343   0.342  0.00  0.00    +0.026 A 
ATOM     36  C   UNL     1       6.193 -11.115   0.399  0.00  0.00    +0.043 A 
ATOM     37  N   UNL     1       4.932 -10.851   0.669  0.00  0.00    -0.380 N 
ATOM     38  C   UNL     1       4.715  -9.403   0.598  0.00  0.00    +0.150 C 
ATOM     39  H   UNL     1       4.254 -11.510   0.885  0.00  0.00    +0.160 HD
ENDBRANCH  29  30
ENDBRANCH  26  28
ENDBRANCH   1  24
TORSDOF 6
