REMARK  Name = ZINC06088643
REMARK  13 active torsions:
REMARK  status: ('A' for Active; 'I' for Inactive)
REMARK    1  A    between atoms: C_1  and  C_2
REMARK    2  A    between atoms: C_2  and  O_3
REMARK    3  A    between atoms: O_3  and  C_4
REMARK    4  A    between atoms: C_4  and  C_6
REMARK    5  A    between atoms: C_7  and  C_33
REMARK    6  A    between atoms: C_12  and  C_14
REMARK    7  A    between atoms: C_14  and  S_15
REMARK    8  A    between atoms: S_15  and  C_16
REMARK    9  A    between atoms: C_19  and  C_22
REMARK   10  A    between atoms: N_20  and  C_21
REMARK   11  A    between atoms: C_25  and  N_28
REMARK   12  A    between atoms: N_28  and  S_29
REMARK   13  A    between atoms: S_29  and  C_32
REMARK                            x       y       z     vdW  Elec       q    Type
REMARK                         _______ _______ _______ _____ _____    ______ ____
ROOT
ATOM      1  C   UNL     1       3.999  -0.675   6.617  0.00  0.00    +0.192 A 
ATOM      2  N   UNL     1       3.607   0.396   7.269  0.00  0.00    -0.122 NA
ATOM      3  N   UNL     1       2.942   1.170   6.489  0.00  0.00    -0.128 NA
ATOM      4  C   UNL     1       2.868   0.641   5.289  0.00  0.00    +0.165 A 
ATOM      5  N   UNL     1       3.538  -0.559   5.336  0.00  0.00    -0.305 N 
ATOM      6  C   UNL     1       3.722  -1.514   4.239  0.00  0.00    +0.153 C 
ENDROOT
BRANCH   4   7
ATOM      7  C   UNL     1       2.188   1.223   4.113  0.00  0.00    +0.019 A 
ATOM      8  C   UNL     1       2.487   0.758   2.831  0.00  0.00    +0.013 A 
ATOM      9  C   UNL     1       1.852   1.302   1.736  0.00  0.00    +0.025 A 
ATOM     10  C   UNL     1       0.913   2.314   1.907  0.00  0.00    +0.048 A 
ATOM     11  C   UNL     1       0.617   2.783   3.182  0.00  0.00    +0.025 A 
ATOM     12  C   UNL     1       1.245   2.239   4.282  0.00  0.00    +0.013 A 
BRANCH  10  13
ATOM     13  N   UNL     1       0.272   2.864   0.797  0.00  0.00    -0.221 N 
ATOM     14  H   UNL     1       0.747   3.480   0.218  0.00  0.00    +0.173 HD
BRANCH  13  15
ATOM     15  S   UNL     1      -1.301   2.463   0.467  0.00  0.00    +0.040 S 
ATOM     16  O   UNL     1      -1.626   3.203  -0.703  0.00  0.00    -0.155 OA
ATOM     17  O   UNL     1      -1.996   2.692   1.685  0.00  0.00    -0.155 OA
ATOM     18  C   UNL     1      -1.262   0.689   0.093  0.00  0.00    +0.218 C 
ENDBRANCH  13  15
ENDBRANCH  10  13
ENDBRANCH   4   7
BRANCH   1  19
ATOM     19  S   UNL     1       4.938  -2.014   7.274  0.00  0.00    -0.077 S 
BRANCH  19  20
ATOM     20  C   UNL     1       5.145  -1.445   8.979  0.00  0.00    +0.173 C 
BRANCH  20  27
ATOM     21  C   UNL     1       8.367  -5.194  12.761  0.00  0.00    +0.120 A 
ATOM     22  C   UNL     1       8.022  -4.121  13.572  0.00  0.00    +0.062 A 
ATOM     23  N   UNL     1       7.330  -3.150  13.036  0.00  0.00    -0.229 NA
ATOM     24  C   UNL     1       6.955  -3.184  11.767  0.00  0.00    +0.165 A 
ATOM     25  S   UNL     1       7.619  -4.691  11.218  0.00  0.00    -0.045 S 
ATOM     26  N   UNL     1       6.223  -2.250  11.056  0.00  0.00    -0.264 N 
ATOM     27  C   UNL     1       5.942  -2.462   9.754  0.00  0.00    +0.229 C 
ATOM     28  O   UNL     1       6.332  -3.472   9.207  0.00  0.00    -0.275 OA
ATOM     29  C   UNL     1       8.438  -4.074  15.020  0.00  0.00    +0.067 C 
ATOM     30  H   UNL     1       5.911  -1.442  11.493  0.00  0.00    +0.157 HD
BRANCH  21  31
ATOM     31  C   UNL     1       9.129  -6.399  13.081  0.00  0.00    +0.348 C 
ATOM     32  O   UNL     1       9.563  -6.564  14.205  0.00  0.00    -0.244 OA
BRANCH  31  33
ATOM     33  O   UNL     1       9.351  -7.329  12.129  0.00  0.00    -0.461 OA
BRANCH  33  35
ATOM     34  C   UNL     1      10.252  -9.416  11.309  0.00  0.00    +0.048 C 
ATOM     35  C   UNL     1      10.104  -8.482  12.511  0.00  0.00    +0.229 C 
ENDBRANCH  33  35
ENDBRANCH  31  33
ENDBRANCH  21  31
ENDBRANCH  20  27
ENDBRANCH  19  20
ENDBRANCH   1  19
TORSDOF 9
