REMARK  Name = ZINC09860520
REMARK  6 active torsions:
REMARK  status: ('A' for Active; 'I' for Inactive)
REMARK    1  A    between atoms: C_1  and  C_2
REMARK    2  A    between atoms: C_2  and  C_3
REMARK    3  A    between atoms: C_6  and  N_9
REMARK    4  A    between atoms: C_10  and  C_12
REMARK    5  A    between atoms: C_12  and  C_13
REMARK    6  A    between atoms: C_16  and  N_19
REMARK                            x       y       z     vdW  Elec       q    Type
REMARK                         _______ _______ _______ _____ _____    ______ ____
ROOT
ATOM      1  C   UNL     1       6.198  -2.387  -5.691  0.00  0.00    -0.038 A 
ATOM      2  C   UNL     1       6.973  -1.253  -5.859  0.00  0.00    +0.006 A 
ATOM      3  C   UNL     1       8.332  -1.302  -5.626  0.00  0.00    +0.028 A 
ATOM      4  C   UNL     1       8.925  -2.499  -5.220  0.00  0.00    +0.067 A 
ATOM      5  C   UNL     1       8.137  -3.640  -5.054  0.00  0.00    +0.028 A 
ATOM      6  C   UNL     1       6.779  -3.576  -5.284  0.00  0.00    +0.006 A 
ENDROOT
BRANCH   4   7
ATOM      7  N   UNL     1      10.274  -2.554  -4.988  0.00  0.00    -0.226 NA
ATOM      8  C   UNL     1      10.731  -3.161  -3.916  0.00  0.00    +0.155 C 
ATOM      9  N   UNL     1      10.004  -3.794  -2.932  0.00  0.00    -0.318 N 
ATOM     10  C   UNL     1      10.711  -4.350  -1.790  0.00  0.00    +0.108 C 
ATOM     11  C   UNL     1       9.997  -5.606  -1.257  0.00  0.00    +0.189 C 
ATOM     12  S   UNL     1      10.911  -6.982  -2.061  0.00  0.00    -0.028 S 
ATOM     13  O   UNL     1      10.055  -7.620  -2.999  0.00  0.00    -0.174 OA
ATOM     14  O   UNL     1      11.553  -7.759  -1.058  0.00  0.00    -0.174 OA
ATOM     15  C   UNL     1      12.183  -6.015  -2.975  0.00  0.00    +0.182 C 
ATOM     16  C   UNL     1      12.177  -4.704  -2.180  0.00  0.00    +0.097 C 
ATOM     17  S   UNL     1      12.437  -3.355  -3.414  0.00  0.00    -0.084 S 
ATOM     18  H   UNL     1       9.039  -3.868  -3.000  0.00  0.00    +0.148 HD
ENDBRANCH   4   7
BRANCH   1  19
ATOM     19  C   UNL     1       4.715  -2.327  -5.947  0.00  0.00    +0.131 C 
BRANCH  19  21
ATOM     20  N   UNL     1       2.657  -1.834  -4.665  0.00  0.00    -0.285 N 
ATOM     21  C   UNL     1       4.000  -1.949  -4.676  0.00  0.00    +0.222 C 
ATOM     22  O   UNL     1       4.634  -1.749  -3.661  0.00  0.00    -0.275 OA
ATOM     23  H   UNL     1       2.145  -2.067  -5.455  0.00  0.00    +0.155 HD
BRANCH  20  27
ATOM     24  C   UNL     1       0.708  -0.471  -1.245  0.00  0.00    -0.048 A 
ATOM     25  C   UNL     1       1.965   0.011  -1.561  0.00  0.00    +0.005 A 
ATOM     26  C   UNL     1       2.614  -0.438  -2.695  0.00  0.00    +0.023 A 
ATOM     27  C   UNL     1       2.003  -1.377  -3.516  0.00  0.00    +0.033 A 
ATOM     28  C   UNL     1       0.741  -1.860  -3.195  0.00  0.00    +0.023 A 
ATOM     29  C   UNL     1       0.100  -1.410  -2.058  0.00  0.00    +0.005 A 
BRANCH  24  31
ATOM     30  C   UNL     1       0.372  -0.872   1.179  0.00  0.00    +0.009 C 
ATOM     31  C   UNL     1       0.003   0.021  -0.007  0.00  0.00    +0.032 C 
ENDBRANCH  24  31
ENDBRANCH  20  27
ENDBRANCH  19  21
ENDBRANCH   1  19
TORSDOF 5
