REMARK  Name = ZINC05277302
REMARK  6 active torsions:
REMARK  status: ('A' for Active; 'I' for Inactive)
REMARK    1  A    between atoms: C_1  and  C_2
REMARK    2  A    between atoms: C_5  and  N_8
REMARK    3  A    between atoms: N_9  and  C_10
REMARK    4  A    between atoms: C_13  and  N_16
REMARK    5  A    between atoms: N_16  and  C_17
REMARK    6  A    between atoms: C_17  and  C_18
REMARK                            x       y       z     vdW  Elec       q    Type
REMARK                         _______ _______ _______ _____ _____    ______ ____
ROOT
ATOM      1  C   UNL     1       4.089   5.920  -4.359  0.00  0.00    +0.086 A 
ATOM      2  C   UNL     1       4.943   5.690  -3.275  0.00  0.00    +0.031 A 
ATOM      3  C   UNL     1       4.536   4.877  -2.241  0.00  0.00    +0.025 A 
ATOM      4  C   UNL     1       3.278   4.283  -2.274  0.00  0.00    +0.027 A 
ATOM      5  C   UNL     1       2.428   4.505  -3.354  0.00  0.00    +0.025 A 
ATOM      6  C   UNL     1       2.825   5.322  -4.388  0.00  0.00    +0.031 A 
ENDROOT
BRANCH   1   8
ATOM      7  N   UNL     1       3.700   6.937  -6.384  0.00  0.00    -0.149 NA
ATOM      8  N   UNL     1       4.489   6.726  -5.385  0.00  0.00    -0.149 NA
BRANCH   7  13
ATOM      9  C   UNL     1       5.352  10.271 -10.627  0.00  0.00    +0.044 C 
ATOM     10  C   UNL     1       4.911   9.381  -9.494  0.00  0.00    -0.050 A 
ATOM     11  C   UNL     1       3.659   8.791  -9.529  0.00  0.00    +0.005 A 
ATOM     12  C   UNL     1       3.249   7.975  -8.496  0.00  0.00    +0.030 A 
ATOM     13  C   UNL     1       4.100   7.744  -7.412  0.00  0.00    +0.086 A 
ATOM     14  C   UNL     1       5.361   8.348  -7.381  0.00  0.00    +0.030 A 
ATOM     15  C   UNL     1       5.759   9.157  -8.424  0.00  0.00    +0.005 A 
ENDBRANCH   7  13
ENDBRANCH   1   8
BRANCH   4  16
ATOM     16  N   UNL     1       2.870   3.461  -1.227  0.00  0.00    -0.342 N 
ATOM     17  H   UNL     1       3.463   3.302  -0.476  0.00  0.00    +0.146 HD
BRANCH  16  18
ATOM     18  C   UNL     1       1.546   2.835  -1.260  0.00  0.00    +0.125 C 
BRANCH  18  19
ATOM     19  C   UNL     1       1.350   1.989  -0.000  0.00  0.00    +0.156 C 
ATOM     20  C   UNL     1      -0.016   1.318   0.009  0.00  0.00    +0.233 C 
ATOM     21  O   UNL     1      -1.049   1.952   0.018  0.00  0.00    -0.274 OA
ATOM     22  N   UNL     1       0.002  -0.004   0.002  0.00  0.00    -0.273 N 
ATOM     23  C   UNL     1       1.137  -0.728  -0.013  0.00  0.00    +0.114 C 
ATOM     24  S   UNL     1       1.301  -2.432  -0.024  0.00  0.00    -0.028 S 
ATOM     25  S   UNL     1       2.431   0.503  -0.018  0.00  0.00    -0.088 S 
ATOM     26  H   UNL     1      -0.845  -0.476   0.007  0.00  0.00    +0.156 HD
ENDBRANCH  18  19
ENDBRANCH  16  18
ENDBRANCH   4  16
TORSDOF 5
