REMARK  Name = ZINC38936679
REMARK  4 active torsions:
REMARK  status: ('A' for Active; 'I' for Inactive)
REMARK    1  A    between atoms: C_10  and  C_11
REMARK    2  A    between atoms: C_11  and  N_12
REMARK    3  A    between atoms: N_15  and  C_16
REMARK    4  A    between atoms: C_16  and  C_17
REMARK                            x       y       z     vdW  Elec       q    Type
REMARK                         _______ _______ _______ _____ _____    ______ ____
ROOT
ATOM      1  N   UNL     1       5.269   0.611   1.313  0.00  0.00    -0.295 N 
ATOM      2  C   UNL     1       6.386   1.328   1.548  0.00  0.00    +0.300 C 
ATOM      3  O   UNL     1       7.137   1.601   0.632  0.00  0.00    -0.253 OA
ATOM      4  N   UNL     1       6.670   1.743   2.799  0.00  0.00    -0.297 N 
ATOM      5  H   UNL     1       4.670   0.393   2.045  0.00  0.00    +0.151 HD
ATOM      6  H   UNL     1       6.071   1.525   3.530  0.00  0.00    +0.150 HD
ENDROOT
BRANCH   1   7
ATOM      7  C   UNL     1       4.960   0.161  -0.046  0.00  0.00    +0.141 C 
BRANCH   7  17
ATOM      8  C   UNL     1      -0.016   1.357   0.009  0.00  0.00    +0.001 A 
ATOM      9  C   UNL     1       1.169   2.091   0.002  0.00  0.00    +0.001 A 
ATOM     10  C   UNL     1       2.378   1.468  -0.013  0.00  0.00    +0.009 A 
ATOM     11  C   UNL     1       2.438   0.064  -0.021  0.00  0.00    -0.013 A 
ATOM     12  C   UNL     1       1.233  -0.683  -0.013  0.00  0.00    -0.018 A 
ATOM     13  C   UNL     1       0.002  -0.004   0.002  0.00  0.00    +0.008 A 
ATOM     14  C   UNL     1       1.292  -2.087  -0.021  0.00  0.00    +0.008 A 
ATOM     15  C   UNL     1       2.502  -2.709  -0.036  0.00  0.00    +0.001 A 
ATOM     16  C   UNL     1       3.687  -1.976  -0.043  0.00  0.00    +0.006 A 
ATOM     17  C   UNL     1       3.668  -0.615  -0.037  0.00  0.00    -0.023 A 
ENDBRANCH   7  17
ENDBRANCH   1   7
BRANCH   4  18
ATOM     18  C   UNL     1       7.884   2.522   3.054  0.00  0.00    +0.139 C 
BRANCH  18  19
ATOM     19  C   UNL     1       7.968   2.863   4.543  0.00  0.00    +0.164 C 
ATOM     20  C   UNL     1       9.211   3.739   4.836  0.00  0.00    +0.196 C 
ATOM     21  O   UNL     1       8.797   4.450   6.027  0.00  0.00    -0.346 OA
ATOM     22  C   UNL     1       7.393   4.693   5.840  0.00  0.00    +0.171 C 
ATOM     23  O   UNL     1       6.868   3.709   4.935  0.00  0.00    -0.342 OA
ATOM     24  C   UNL     1       7.194   6.092   5.255  0.00  0.00    +0.065 C 
ATOM     25  C   UNL     1       7.760   7.134   6.223  0.00  0.00    +0.005 C 
ATOM     26  C   UNL     1       7.035   7.028   7.566  0.00  0.00    +0.000 C 
ATOM     27  C   UNL     1       7.242   5.629   8.150  0.00  0.00    +0.005 C 
ATOM     28  C   UNL     1       6.675   4.585   7.186  0.00  0.00    +0.065 C 
ENDBRANCH  18  19
ENDBRANCH   4  18
TORSDOF 4
