REMARK  Name = ZINC45324171
REMARK  9 active torsions:
REMARK  status: ('A' for Active; 'I' for Inactive)
REMARK    1  A    between atoms: C_1  and  O_2
REMARK    2  A    between atoms: O_2  and  C_3
REMARK    3  A    between atoms: C_9  and  C_14
REMARK    4  A    between atoms: C_14  and  C_15
REMARK    5  A    between atoms: C_15  and  N_16
REMARK    6  A    between atoms: C_19  and  N_25
REMARK    7  A    between atoms: C_21  and  O_24
REMARK    8  A    between atoms: N_25  and  C_26
REMARK    9  A    between atoms: C_26  and  C_27
REMARK                            x       y       z     vdW  Elec       q    Type
REMARK                         _______ _______ _______ _____ _____    ______ ____
ROOT
ATOM      1  N   UNL     1      -4.557   3.752  -1.400  0.00  0.00    -0.300 NA
ATOM      2  C   UNL     1      -3.283   4.228  -0.847  0.00  0.00    +0.083 C 
ATOM      3  C   UNL     1      -3.316   5.753  -0.726  0.00  0.00    +0.002 C 
ATOM      4  C   UNL     1      -3.554   6.366  -2.109  0.00  0.00    -0.040 C 
ATOM      5  C   UNL     1      -4.862   5.816  -2.683  0.00  0.00    +0.115 C 
ATOM      6  C   UNL     1      -4.785   4.290  -2.748  0.00  0.00    +0.114 C 
ENDROOT
BRANCH   4   7
ATOM      7  N   UNL     1      -3.643   7.827  -1.990  0.00  0.00    +0.386 N 
ATOM      8  H   UNL     1      -3.881   8.223  -2.887  0.00  0.00    -0.085 HD
ATOM      9  H   UNL     1      -4.355   8.067  -1.317  0.00  0.00    -0.085 HD
BRANCH   7  10
ATOM     10  C   UNL     1      -2.349   8.362  -1.546  0.00  0.00    -0.039 C 
BRANCH  10  11
ATOM     11  C   UNL     1      -2.441   9.862  -1.424  0.00  0.00    -0.025 A 
ATOM     12  C   UNL     1      -2.791  10.610  -0.350  0.00  0.00    +0.032 A 
ATOM     13  C   UNL     1      -2.810  11.998  -0.453  0.00  0.00    +0.038 A 
ATOM     14  C   UNL     1      -2.468  12.532  -1.662  0.00  0.00    +0.011 A 
ATOM     15  S   UNL     1      -2.109  11.112  -2.657  0.00  0.00    -0.098 S 
ATOM     16  C   UNL     1      -2.418  13.981  -2.018  0.00  0.00    +0.046 C 
ATOM     17  C   UNL     1      -3.213  14.767  -0.964  0.00  0.00    +0.024 C 
ATOM     18  C   UNL     1      -2.794  14.304   0.435  0.00  0.00    +0.102 C 
ATOM     19  N   UNL     1      -3.156  12.889   0.612  0.00  0.00    -0.343 N 
ATOM     20  H   UNL     1      -3.608  12.575   1.411  0.00  0.00    +0.146 HD
ENDBRANCH  10  11
ENDBRANCH   7  10
ENDBRANCH   4   7
BRANCH   5  21
ATOM     21  O   UNL     1      -5.952   6.204  -1.844  0.00  0.00    -0.392 OA
ATOM     22  H   UNL     1      -6.814   5.890  -2.148  0.00  0.00    +0.210 HD
ENDBRANCH   5  21
BRANCH   1  23
ATOM     23  C   UNL     1      -4.615   2.284  -1.402  0.00  0.00    +0.089 C 
BRANCH  23  24
ATOM     24  C   UNL     1      -4.624   1.773   0.040  0.00  0.00    +0.055 C 
BRANCH  24  31
ATOM     25  C   UNL     1      -1.197  -0.636   0.010  0.00  0.00    +0.215 A 
ATOM     26  C   UNL     1      -1.234  -2.036   0.009  0.00  0.00    +0.069 A 
ATOM     27  C   UNL     1      -2.431  -2.686   0.017  0.00  0.00    +0.035 A 
ATOM     28  C   UNL     1      -3.612  -1.914   0.027  0.00  0.00    +0.090 A 
ATOM     29  C   UNL     1      -3.505  -0.502   0.028  0.00  0.00    +0.099 A 
ATOM     30  N   UNL     1      -2.301   0.080   0.025  0.00  0.00    -0.211 NA
ATOM     31  C   UNL     1      -4.683   0.267   0.038  0.00  0.00    +0.018 A 
ATOM     32  C   UNL     1      -5.884  -0.389   0.047  0.00  0.00    +0.147 A 
ATOM     33  C   UNL     1      -5.915  -1.784   0.045  0.00  0.00    +0.150 A 
ATOM     34  N   UNL     1      -4.814  -2.495   0.036  0.00  0.00    -0.251 NA
ATOM     35  F   UNL     1      -7.038   0.314   0.057  0.00  0.00    -0.204 F 
BRANCH  25  37
ATOM     36  C   UNL     1      -0.017   1.425   0.010  0.00  0.00    +0.279 C 
ATOM     37  O   UNL     1       0.002  -0.004   0.002  0.00  0.00    -0.480 OA
ENDBRANCH  25  37
ENDBRANCH  24  31
ENDBRANCH  23  24
ENDBRANCH   1  23
TORSDOF 8
