REMARK  Name = ZINC39661050
REMARK  4 active torsions:
REMARK  status: ('A' for Active; 'I' for Inactive)
REMARK    1  A    between atoms: C_4  and  C_30
REMARK    2  A    between atoms: C_5  and  C_7
REMARK    3  A    between atoms: C_11  and  C_20
REMARK    4  A    between atoms: N_22  and  C_23
REMARK                            x       y       z     vdW  Elec       q    Type
REMARK                         _______ _______ _______ _____ _____    ______ ____
ROOT
ATOM      1  C   UNL     1       1.176  -1.925  -0.115  0.00  0.00    +0.247 C 
ATOM      2  O   UNL     1       2.265  -2.466  -0.129  0.00  0.00    -0.270 OA
ATOM      3  N   UNL     1       0.060  -2.662   0.056  0.00  0.00    -0.296 N 
ATOM      4  C   UNL     1      -1.348  -2.201   0.007  0.00  0.00    +0.121 C 
ATOM      5  C   UNL     1      -2.104  -3.335  -0.720  0.00  0.00    +0.100 C 
ATOM      6  C   UNL     1      -1.240  -4.588  -0.500  0.00  0.00    -0.004 C 
ATOM      7  C   UNL     1      -0.036  -4.116   0.328  0.00  0.00    +0.115 C 
ATOM      8  C   UNL     1      -0.764  -5.144  -1.839  0.00  0.00    -0.010 C 
ATOM      9  C   UNL     1       0.045  -6.421  -1.598  0.00  0.00    -0.082 C 
ATOM     10  N   UNL     1      -0.790  -7.409  -0.904  0.00  0.00    +0.379 N 
ATOM     11  C   UNL     1      -1.167  -6.903   0.421  0.00  0.00    -0.082 C 
ATOM     12  C   UNL     1      -2.027  -5.646   0.266  0.00  0.00    -0.010 C 
ATOM     13  H   UNL     1      -1.624  -7.582  -1.446  0.00  0.00    -0.086 HD
ATOM     14  H   UNL     1      -0.275  -8.270  -0.801  0.00  0.00    -0.086 HD
ENDROOT
BRANCH   1  19
ATOM     15  C   UNL     1       0.114   1.647   0.347  0.00  0.00    +0.001 A 
ATOM     16  C   UNL     1       0.888   2.284  -0.606  0.00  0.00    +0.001 A 
ATOM     17  C   UNL     1       1.756   1.556  -1.400  0.00  0.00    +0.013 A 
ATOM     18  C   UNL     1       1.855   0.188  -1.246  0.00  0.00    +0.067 A 
ATOM     19  C   UNL     1       1.076  -0.460  -0.286  0.00  0.00    +0.049 A 
ATOM     20  C   UNL     1       0.203   0.280   0.512  0.00  0.00    +0.013 A 
BRANCH  18  21
ATOM     21  C   UNL     1       2.800  -0.604  -2.112  0.00  0.00    +0.418 C 
ATOM     22  F   UNL     1       3.464   0.261  -2.989  0.00  0.00    -0.166 F 
ATOM     23  F   UNL     1       3.737  -1.257  -1.303  0.00  0.00    -0.166 F 
ATOM     24  F   UNL     1       2.078  -1.550  -2.846  0.00  0.00    -0.166 F 
ENDBRANCH  18  21
ENDBRANCH   1  19
BRANCH   5  25
ATOM     25  C   UNL     1      -3.471  -3.526  -0.116  0.00  0.00    +0.219 C 
ATOM     26  O   UNL     1      -3.647  -3.318   1.066  0.00  0.00    -0.275 OA
ATOM     27  N   UNL     1      -4.500  -3.928  -0.889  0.00  0.00    -0.304 N 
ATOM     28  H   UNL     1      -4.360  -4.095  -1.835  0.00  0.00    +0.149 HD
BRANCH  27  29
ATOM     29  C   UNL     1      -5.829  -4.113  -0.302  0.00  0.00    +0.151 C 
ATOM     30  C   UNL     1      -6.886  -3.902  -1.387  0.00  0.00    +0.042 C 
ATOM     31  C   UNL     1      -8.171  -4.640  -0.943  0.00  0.00    +0.079 C 
ATOM     32  S   UNL     1      -7.483  -6.019   0.051  0.00  0.00    -0.086 S 
ATOM     33  C   UNL     1      -5.910  -5.495   0.303  0.00  0.00    +0.209 C 
ATOM     34  O   UNL     1      -5.020  -6.102   0.860  0.00  0.00    -0.283 OA
ENDBRANCH  27  29
ENDBRANCH   5  25
TORSDOF 4
