REMARK  Name = ZINC28973839
REMARK  10 active torsions:
REMARK  status: ('A' for Active; 'I' for Inactive)
REMARK    1  A    between atoms: C_1  and  C_2
REMARK    2  A    between atoms: C_3  and  C_8
REMARK    3  A    between atoms: C_8  and  O_9
REMARK    4  A    between atoms: O_9  and  C_10
REMARK    5  A    between atoms: C_13  and  S_16
REMARK    6  A    between atoms: S_16  and  N_19
REMARK    7  A    between atoms: C_23  and  C_30
REMARK    8  A    between atoms: C_23  and  O_31
REMARK    9  A    between atoms: C_24  and  C_26
REMARK   10  A    between atoms: N_28  and  O_29
REMARK                            x       y       z     vdW  Elec       q    Type
REMARK                         _______ _______ _______ _____ _____    ______ ____
ROOT
ATOM      1  S   UNL     1      -0.942   3.635  -2.756  0.00  0.00    +0.062 S 
ATOM      2  O   UNL     1      -1.097   5.019  -2.474  0.00  0.00    -0.153 OA
ATOM      3  O   UNL     1       0.243   3.103  -3.333  0.00  0.00    -0.153 OA
ENDROOT
BRANCH   1   4
ATOM      4  N   UNL     1      -1.175   2.831  -1.327  0.00  0.00    -0.162 NA
ATOM      5  C   UNL     1      -2.111   3.350  -0.321  0.00  0.00    +0.110 C 
ATOM      6  C   UNL     1      -3.106   2.243   0.044  0.00  0.00    +0.020 C 
ATOM      7  C   UNL     1      -2.337   0.996   0.485  0.00  0.00    +0.038 C 
ATOM      8  C   UNL     1      -1.462   0.499  -0.669  0.00  0.00    +0.089 C 
ATOM      9  C   UNL     1      -0.449   1.586  -1.042  0.00  0.00    +0.198 C 
ATOM     10  C   UNL     1      -0.718  -0.766  -0.238  0.00  0.00    +0.043 C 
BRANCH   9  11
ATOM     11  C   UNL     1       0.323   1.160  -2.264  0.00  0.00    +0.257 C 
ATOM     12  O   UNL     1      -0.268   0.807  -3.262  0.00  0.00    -0.272 OA
ATOM     13  N   UNL     1       1.671   1.170  -2.247  0.00  0.00    -0.196 N 
ATOM     14  H   UNL     1       2.207   1.489  -1.341  0.00  0.00    +0.182 HD
BRANCH  13  15
ATOM     15  O   UNL     1       2.396   0.769  -3.395  0.00  0.00    -0.295 OA
ATOM     16  H   UNL     1       3.496   0.777  -3.381  0.00  0.00    +0.241 HD
ENDBRANCH  13  15
ENDBRANCH   9  11
BRANCH   8  17
ATOM     17  O   UNL     1      -2.286   0.207  -1.800  0.00  0.00    -0.387 OA
ATOM     18  H   UNL     1      -1.831  -0.164  -2.730  0.00  0.00    +0.210 HD
ENDBRANCH   8  17
ENDBRANCH   1   4
BRANCH   1  22
ATOM     19  C   UNL     1      -4.349   2.485  -5.509  0.00  0.00    +0.121 A 
ATOM     20  C   UNL     1      -4.473   3.585  -4.673  0.00  0.00    +0.047 A 
ATOM     21  C   UNL     1      -3.432   3.933  -3.834  0.00  0.00    +0.032 A 
ATOM     22  C   UNL     1      -2.268   3.187  -3.827  0.00  0.00    +0.106 A 
ATOM     23  C   UNL     1      -2.140   2.094  -4.664  0.00  0.00    +0.032 A 
ATOM     24  C   UNL     1      -3.180   1.738  -5.500  0.00  0.00    +0.047 A 
BRANCH  19  25
ATOM     25  O   UNL     1      -5.371   2.141  -6.336  0.00  0.00    -0.487 OA
BRANCH  25  26
ATOM     26  C   UNL     1      -5.175   0.997  -7.169  0.00  0.00    +0.266 C 
BRANCH  26  29
ATOM     27  C   UNL     1      -5.276  -1.210  -9.032  0.00  0.00    +0.066 C 
ATOM     28  C   UNL     1      -6.457  -0.284  -8.902  0.00  0.00    +0.045 A 
ATOM     29  C   UNL     1      -6.404   0.770  -8.010  0.00  0.00    +0.011 A 
ATOM     30  C   UNL     1      -7.499   1.612  -7.894  0.00  0.00    +0.010 A 
ATOM     31  C   UNL     1      -8.607   1.368  -8.691  0.00  0.00    +0.020 A 
ATOM     32  C   UNL     1      -8.588   0.295  -9.561  0.00  0.00    +0.111 A 
ATOM     33  N   UNL     1      -7.530  -0.489  -9.641  0.00  0.00    -0.260 NA
ENDBRANCH  26  29
ENDBRANCH  25  26
ENDBRANCH  19  25
ENDBRANCH   1  22
TORSDOF 8
