REMARK  Name = ZINC08684298
REMARK  6 active torsions:
REMARK  status: ('A' for Active; 'I' for Inactive)
REMARK    1  A    between atoms: C_1  and  C_2
REMARK    2  A    between atoms: C_2  and  C_28
REMARK    3  A    between atoms: C_6  and  C_16
REMARK    4  A    between atoms: C_11  and  O_15
REMARK    5  A    between atoms: C_20  and  O_22
REMARK    6  A    between atoms: O_22  and  C_23
REMARK                            x       y       z     vdW  Elec       q    Type
REMARK                         _______ _______ _______ _____ _____    ______ ____
ROOT
ATOM      1  C   UNL     1      -0.011   1.514   0.196  0.00  0.00    +0.034 C 
ATOM      2  C   UNL     1       0.002  -0.004   0.002  0.00  0.00    +0.040 C 
ATOM      3  C   UNL     1       0.637  -0.335  -1.350  0.00  0.00    +0.096 C 
ATOM      4  C   UNL     1       0.874  -1.846  -1.429  0.00  0.00    +0.180 C 
ATOM      5  C   UNL     1      -0.457  -2.586  -1.272  0.00  0.00    +0.081 C 
ATOM      6  C   UNL     1      -1.418  -2.086  -2.354  0.00  0.00    +0.058 C 
ATOM      7  C   UNL     1      -0.722  -2.088  -3.692  0.00  0.00    +0.002 A 
ATOM      8  C   UNL     1      -1.493  -2.047  -4.843  0.00  0.00    +0.011 A 
ATOM      9  C   UNL     1      -0.893  -2.042  -6.085  0.00  0.00    +0.046 A 
ATOM     10  C   UNL     1       0.491  -2.079  -6.186  0.00  0.00    +0.120 A 
ATOM     11  C   UNL     1       1.264  -2.121  -5.039  0.00  0.00    +0.091 A 
ATOM     12  C   UNL     1       0.658  -2.129  -3.788  0.00  0.00    +0.131 A 
ATOM     13  O   UNL     1       1.451  -2.186  -2.686  0.00  0.00    -0.468 OA
ATOM     14  N   UNL     1       1.781  -2.226  -0.340  0.00  0.00    -0.288 N 
ATOM     15  C   UNL     1       1.579  -1.688   0.902  0.00  0.00    +0.142 C 
ATOM     16  N   UNL     1       0.758  -0.622   1.087  0.00  0.00    -0.362 N 
ATOM     17  S   UNL     1       2.354  -2.352   2.211  0.00  0.00    -0.016 SA
ATOM     18  C   UNL     1      -1.435  -0.528   0.026  0.00  0.00    +0.034 C 
ATOM     19  H   UNL     1       2.510  -2.846  -0.497  0.00  0.00    +0.152 HD
ATOM     20  H   UNL     1       0.670  -0.254   1.980  0.00  0.00    +0.162 HD
ENDROOT
BRANCH   6  21
ATOM     21  C   UNL     1      -2.620  -2.993  -2.414  0.00  0.00    -0.036 A 
ATOM     22  C   UNL     1      -2.459  -4.337  -2.697  0.00  0.00    +0.004 A 
ATOM     23  C   UNL     1      -3.560  -5.171  -2.753  0.00  0.00    +0.004 A 
ATOM     24  C   UNL     1      -4.824  -4.663  -2.526  0.00  0.00    +0.045 A 
ATOM     25  C   UNL     1      -4.989  -3.316  -2.242  0.00  0.00    +0.120 A 
ATOM     26  C   UNL     1      -3.882  -2.482  -2.180  0.00  0.00    +0.050 A 
BRANCH  25  27
ATOM     27  O   UNL     1      -6.232  -2.814  -2.018  0.00  0.00    -0.495 OA
ATOM     28  C   UNL     1      -7.325  -3.732  -2.091  0.00  0.00    +0.277 C 
ENDBRANCH  25  27
ENDBRANCH   6  21
BRANCH  10  29
ATOM     29  O   UNL     1       1.085  -2.072  -7.409  0.00  0.00    -0.507 OA
ATOM     30  H   UNL     1       1.281  -1.188  -7.746  0.00  0.00    +0.292 HD
ENDBRANCH  10  29
TORSDOF 3
