REMARK  Name = ZINC16905839
REMARK  5 active torsions:
REMARK  status: ('A' for Active; 'I' for Inactive)
REMARK    1  A    between atoms: C_1  and  C_2
REMARK    2  A    between atoms: C_7  and  C_8
REMARK    3  A    between atoms: N_10  and  N_11
REMARK    4  A    between atoms: C_15  and  C_16
REMARK    5  A    between atoms: C_21  and  C_22
REMARK                            x       y       z     vdW  Elec       q    Type
REMARK                         _______ _______ _______ _____ _____    ______ ____
ROOT
ATOM      1  N   UNL     1       5.743  -0.389   0.335  0.00  0.00    -0.169 N 
ATOM      2  C   UNL     1       4.987   0.668   0.089  0.00  0.00    +0.275 C 
ATOM      3  O   UNL     1       5.432   1.799   0.139  0.00  0.00    -0.267 OA
ATOM      4  C   UNL     1       3.569   0.403  -0.246  0.00  0.00    +0.079 C 
ATOM      5  C   UNL     1       2.571   1.275  -0.538  0.00  0.00    +0.029 C 
ATOM      6  S   UNL     1       3.536  -1.383  -0.168  0.00  0.00    -0.059 S 
ATOM      7  C   UNL     1       5.247  -1.641   0.272  0.00  0.00    +0.138 C 
ATOM      8  S   UNL     1       6.061  -3.122   0.548  0.00  0.00    -0.026 S 
ENDROOT
BRANCH   5   9
ATOM      9  C   UNL     1       2.790   2.718  -0.385  0.00  0.00    -0.010 A 
ATOM     10  C   UNL     1       3.473   3.212   0.730  0.00  0.00    +0.009 A 
ATOM     11  C   UNL     1       3.675   4.570   0.868  0.00  0.00    +0.001 A 
ATOM     12  C   UNL     1       3.206   5.452  -0.092  0.00  0.00    +0.001 A 
ATOM     13  C   UNL     1       2.534   4.985  -1.204  0.00  0.00    +0.016 A 
ATOM     14  C   UNL     1       2.312   3.618  -1.363  0.00  0.00    +0.070 A 
BRANCH  14  15
ATOM     15  C   UNL     1       1.590   3.115  -2.545  0.00  0.00    +0.387 C 
ATOM     16  O   UNL     1       1.488   1.918  -2.732  0.00  0.00    -0.241 OA
ATOM     17  O   UNL     1       1.046   3.982  -3.422  0.00  0.00    -0.241 OA
ENDBRANCH  14  15
ENDBRANCH   5   9
BRANCH   1  20
ATOM     18  C   UNL     1       8.050  -0.466  -0.248  0.00  0.00    +0.261 C 
ATOM     19  O   UNL     1       7.742  -0.864  -1.355  0.00  0.00    -0.269 OA
ATOM     20  N   UNL     1       7.092  -0.204   0.663  0.00  0.00    -0.222 N 
ATOM     21  H   UNL     1       7.338   0.114   1.547  0.00  0.00    +0.174 HD
BRANCH  18  28
ATOM     22  C   UNL     1      10.102  -1.309  -2.105  0.00  0.00    +0.044 C 
ATOM     23  C   UNL     1      10.472  -0.673  -0.790  0.00  0.00    -0.038 A 
ATOM     24  C   UNL     1      11.799  -0.484  -0.463  0.00  0.00    +0.004 A 
ATOM     25  C   UNL     1      12.141   0.094   0.747  0.00  0.00    +0.000 A 
ATOM     26  C   UNL     1      11.156   0.491   1.634  0.00  0.00    +0.001 A 
ATOM     27  C   UNL     1       9.825   0.312   1.317  0.00  0.00    +0.013 A 
ATOM     28  C   UNL     1       9.474  -0.271   0.098  0.00  0.00    +0.041 A 
ENDBRANCH  18  28
ENDBRANCH   1  20
TORSDOF 4
