REMARK  Name = ZINC08915345
REMARK  5 active torsions:
REMARK  status: ('A' for Active; 'I' for Inactive)
REMARK    1  A    between atoms: C_4  and  C_7
REMARK    2  A    between atoms: C_7  and  C_9
REMARK    3  A    between atoms: C_11  and  C_23
REMARK    4  A    between atoms: C_17  and  C_18
REMARK    5  A    between atoms: C_17  and  O_22
REMARK                            x       y       z     vdW  Elec       q    Type
REMARK                         _______ _______ _______ _____ _____    ______ ____
ROOT
ATOM      1  C   UNL     1       3.550  -2.425  -0.009  0.00  0.00    +0.144 C 
ATOM      2  C   UNL     1       4.875  -3.008  -0.513  0.00  0.00    +0.120 C 
ATOM      3  N   UNL     1       4.981  -4.403  -0.083  0.00  0.00    -0.292 N 
ATOM      4  C   UNL     1       4.391  -4.832   1.043  0.00  0.00    +0.302 C 
ATOM      5  O   UNL     1       4.520  -5.999   1.361  0.00  0.00    -0.253 OA
ATOM      6  N   UNL     1       3.665  -4.026   1.831  0.00  0.00    -0.264 N 
ATOM      7  C   UNL     1       3.478  -2.610   1.510  0.00  0.00    +0.243 C 
ATOM      8  H   UNL     1       5.489  -5.029  -0.622  0.00  0.00    +0.151 HD
ATOM      9  H   UNL     1       3.252  -4.389   2.630  0.00  0.00    +0.153 HD
ENDROOT
BRANCH   2  10
ATOM     10  C   UNL     1       4.915  -2.939  -2.018  0.00  0.00    -0.025 A 
ATOM     11  C   UNL     1       4.247  -3.887  -2.771  0.00  0.00    +0.007 A 
ATOM     12  C   UNL     1       4.283  -3.825  -4.151  0.00  0.00    +0.022 A 
ATOM     13  C   UNL     1       4.989  -2.815  -4.780  0.00  0.00    +0.059 A 
ATOM     14  C   UNL     1       5.657  -1.866  -4.026  0.00  0.00    +0.060 A 
ATOM     15  C   UNL     1       5.616  -1.926  -2.645  0.00  0.00    +0.027 A 
ATOM     16 CL   UNL     1       6.543  -0.598  -4.814  0.00  0.00    -0.082 Cl
ATOM     17 CL   UNL     1       5.035  -2.737  -6.514  0.00  0.00    -0.082 Cl
ENDBRANCH   2  10
BRANCH   7  18
ATOM     18  C   UNL     1       2.113  -2.142   2.018  0.00  0.00    +0.436 C 
ATOM     19  F   UNL     1       1.101  -2.805   1.315  0.00  0.00    -0.166 F 
ATOM     20  F   UNL     1       1.999  -2.430   3.383  0.00  0.00    -0.166 F 
ATOM     21  F   UNL     1       1.990  -0.762   1.822  0.00  0.00    -0.166 F 
ENDBRANCH   7  18
BRANCH   1  22
ATOM     22  C   UNL     1       3.482  -0.958  -0.344  0.00  0.00    +0.173 C 
ATOM     23  O   UNL     1       4.338  -0.202   0.064  0.00  0.00    -0.292 OA
BRANCH  22  27
ATOM     24  C   UNL     1       0.296   0.530  -2.717  0.00  0.00    +0.000 A 
ATOM     25  C   UNL     1       1.192   1.411  -2.137  0.00  0.00    +0.001 A 
ATOM     26  C   UNL     1       2.230   0.935  -1.364  0.00  0.00    +0.011 A 
ATOM     27  C   UNL     1       2.376  -0.442  -1.167  0.00  0.00    +0.018 A 
ATOM     28  C   UNL     1       1.467  -1.325  -1.757  0.00  0.00    +0.011 A 
ATOM     29  C   UNL     1       0.434  -0.834  -2.527  0.00  0.00    +0.001 A 
ENDBRANCH  22  27
ENDBRANCH   1  22
BRANCH   7  30
ATOM     30  O   UNL     1       4.510  -1.843   2.134  0.00  0.00    -0.364 OA
ATOM     31  H   UNL     1       4.524  -1.913   3.098  0.00  0.00    +0.212 HD
ENDBRANCH   7  30
TORSDOF 5
