REMARK  Name = ZINC27093486
REMARK  3 active torsions:
REMARK  status: ('A' for Active; 'I' for Inactive)
REMARK    1  A    between atoms: C_5  and  C_12
REMARK    2  A    between atoms: C_12  and  S_13
REMARK    3  A    between atoms: S_13  and  C_14
REMARK                            x       y       z     vdW  Elec       q    Type
REMARK                         _______ _______ _______ _____ _____    ______ ____
ROOT
ATOM      1  C   UNL     1      -2.363   3.637   4.899  0.00  0.00    +0.025 A 
ATOM      2  C   UNL     1      -1.429   3.806   3.925  0.00  0.00    +0.048 A 
ATOM      3  C   UNL     1      -1.277   2.816   2.934  0.00  0.00    +0.139 A 
ATOM      4  N   UNL     1      -0.465   2.714   1.891  0.00  0.00    -0.231 NA
ATOM      5  C   UNL     1      -0.718   1.572   1.248  0.00  0.00    +0.085 A 
ATOM      6  C   UNL     1      -1.709   0.921   1.898  0.00  0.00    +0.113 A 
ATOM      7  N   UNL     1      -2.070   1.698   2.965  0.00  0.00    -0.292 N 
ATOM      8  C   UNL     1      -3.004   1.539   3.949  0.00  0.00    +0.113 A 
ATOM      9  C   UNL     1      -3.161   2.480   4.905  0.00  0.00    +0.058 A 
ATOM     10 CL   UNL     1      -4.354   2.259   6.146  0.00  0.00    -0.082 Cl
ATOM     11 BR   UNL     1      -2.455  -0.750   1.422  0.00  0.00    -0.028 Br
ENDROOT
BRANCH   5  12
ATOM     12  C   UNL     1      -0.013   1.086   0.008  0.00  0.00    +0.135 C 
BRANCH  12  13
ATOM     13  S   UNL     1      -0.888   1.685  -1.458  0.00  0.00    -0.087 S 
BRANCH  13  14
ATOM     14  C   UNL     1       0.122   0.990  -2.724  0.00  0.00    +0.123 C 
ATOM     15  N   UNL     1       1.165   0.274  -2.405  0.00  0.00    -0.382 N 
ATOM     16  N   UNL     1      -0.189   1.202  -4.047  0.00  0.00    -0.340 N 
ATOM     17  H   UNL     1       1.796  -0.160  -3.195  0.00  0.00    +0.158 HD
ATOM     18  H   UNL     1       0.442   0.768  -4.836  0.00  0.00    +0.144 HD
ATOM     19  H   UNL     1      -1.069   1.806  -4.315  0.00  0.00    +0.144 HD
ATOM     20  H   UNL     1       1.414   0.104  -1.347  0.00  0.00    +0.158 HD
ENDBRANCH  13  14
ENDBRANCH  12  13
ENDBRANCH   5  12
TORSDOF 3
