REMARK  Name = ZINC41603995
REMARK  4 active torsions:
REMARK  status: ('A' for Active; 'I' for Inactive)
REMARK    1  A    between atoms: C_9  and  C_12
REMARK    2  A    between atoms: C_12  and  N_13
REMARK    3  A    between atoms: C_18  and  C_21
REMARK    4  A    between atoms: C_21  and  C_22
REMARK                            x       y       z     vdW  Elec       q    Type
REMARK                         _______ _______ _______ _____ _____    ______ ____
ROOT
ATOM      1  N   UNL     1       6.008  -1.982  -0.760  0.00  0.00    -0.309 N 
ATOM      2  C   UNL     1       7.314  -2.404  -0.582  0.00  0.00    +0.238 A 
ATOM      3  N   UNL     1       8.296  -1.790  -1.230  0.00  0.00    -0.173 NA
ATOM      4  C   UNL     1       9.548  -2.201  -1.055  0.00  0.00    +0.297 A 
ATOM      5  O   UNL     1      10.571  -1.593  -1.703  0.00  0.00    -0.264 OA
ATOM      6  C   UNL     1       9.788  -3.270  -0.191  0.00  0.00    +0.134 A 
ATOM      7  N   UNL     1       8.770  -3.841   0.425  0.00  0.00    -0.145 NA
ATOM      8  N   UNL     1       7.570  -3.415   0.238  0.00  0.00    -0.113 NA
ATOM      9  H   UNL     1       5.815  -1.243  -1.358  0.00  0.00    +0.149 HD
ENDROOT
BRANCH   1  10
ATOM     10  C   UNL     1       4.918  -2.649  -0.044  0.00  0.00    +0.152 C 
BRANCH  10  19
ATOM     11  C   UNL     1      -0.017   1.378   0.010  0.00  0.00    +0.004 A 
ATOM     12  C   UNL     1       1.170   2.088   0.002  0.00  0.00    +0.004 A 
ATOM     13  C   UNL     1       2.378   1.418  -0.012  0.00  0.00    +0.049 A 
ATOM     14  C   UNL     1       2.404   0.031  -0.019  0.00  0.00    +0.163 A 
ATOM     15  C   UNL     1       1.212  -0.683  -0.014  0.00  0.00    +0.162 A 
ATOM     16  C   UNL     1       0.002  -0.004   0.002  0.00  0.00    +0.049 A 
ATOM     17  O   UNL     1       1.214  -2.043  -0.029  0.00  0.00    -0.485 OA
ATOM     18  C   UNL     1       2.441  -2.689   0.331  0.00  0.00    +0.275 C 
ATOM     19  C   UNL     1       3.587  -1.993  -0.416  0.00  0.00    +0.228 C 
ATOM     20  O   UNL     1       3.602  -0.615  -0.029  0.00  0.00    -0.480 OA
ENDBRANCH  10  19
ENDBRANCH   1  10
BRANCH   6  21
ATOM     21  C   UNL     1      11.192  -3.767   0.036  0.00  0.00    +0.098 C 
BRANCH  21  22
ATOM     22  C   UNL     1      11.808  -3.025   1.194  0.00  0.00    -0.041 A 
ATOM     23  C   UNL     1      12.501  -1.850   0.971  0.00  0.00    +0.007 A 
ATOM     24  C   UNL     1      13.065  -1.168   2.032  0.00  0.00    +0.038 A 
ATOM     25  C   UNL     1      12.936  -1.662   3.319  0.00  0.00    +0.123 A 
ATOM     26  C   UNL     1      12.241  -2.839   3.541  0.00  0.00    +0.038 A 
ATOM     27  C   UNL     1      11.674  -3.517   2.479  0.00  0.00    +0.007 A 
ATOM     28  F   UNL     1      13.487  -0.997   4.358  0.00  0.00    -0.205 F 
ENDBRANCH  21  22
ENDBRANCH   6  21
TORSDOF 4
