REMARK  Name = ZINC64212902
REMARK  6 active torsions:
REMARK  status: ('A' for Active; 'I' for Inactive)
REMARK    1  A    between atoms: C_7  and  C_10
REMARK    2  A    between atoms: C_10  and  C_12
REMARK    3  A    between atoms: C_10  and  C_28
REMARK    4  A    between atoms: C_12  and  N_13
REMARK    5  A    between atoms: C_14  and  C_16
REMARK    6  A    between atoms: C_16  and  N_17
REMARK                            x       y       z     vdW  Elec       q    Type
REMARK                         _______ _______ _______ _____ _____    ______ ____
ROOT
ATOM      1  C   UNL     1       0.948  -4.083   1.192  0.00  0.00    +0.113 C 
ENDROOT
BRANCH   1   2
ATOM      2  N   UNL     1      -0.124  -5.076   1.300  0.00  0.00    -0.313 N 
ATOM      3  C   UNL     1      -0.163  -5.913   2.356  0.00  0.00    +0.231 C 
ATOM      4  O   UNL     1       0.688  -5.843   3.217  0.00  0.00    -0.274 OA
ATOM      5  H   UNL     1      -0.805  -5.132   0.612  0.00  0.00    +0.149 HD
BRANCH   3   6
ATOM      6  C   UNL     1      -1.265  -6.935   2.467  0.00  0.00    +0.213 C 
BRANCH   6   7
ATOM      7  N   UNL     1      -1.086  -7.715   3.694  0.00  0.00    -0.215 N 
ATOM      8  C   UNL     1      -0.362  -8.853   3.771  0.00  0.00    +0.247 C 
ATOM      9  O   UNL     1       0.240  -9.404   2.874  0.00  0.00    -0.273 OA
ATOM     10  C   UNL     1      -0.463  -9.291   5.210  0.00  0.00    +0.113 C 
ATOM     11  C   UNL     1      -1.102 -10.682   5.318  0.00  0.00    +0.035 C 
ATOM     12  C   UNL     1       0.107 -11.639   5.478  0.00  0.00    +0.003 C 
ATOM     13  C   UNL     1       1.079 -10.821   6.365  0.00  0.00    +0.003 C 
ATOM     14  C   UNL     1       0.918  -9.368   5.864  0.00  0.00    +0.035 C 
ATOM     15  N   UNL     1      -1.301  -8.273   5.846  0.00  0.00    -0.285 N 
ATOM     16  C   UNL     1      -1.614  -7.386   4.879  0.00  0.00    +0.310 C 
ATOM     17  O   UNL     1      -2.302  -6.401   5.063  0.00  0.00    -0.252 OA
ATOM     18  H   UNL     1      -1.573  -8.241   6.776  0.00  0.00    +0.151 HD
ENDBRANCH   6   7
ENDBRANCH   3   6
ENDBRANCH   1   2
BRANCH   1  19
ATOM     19  C   UNL     1       0.690  -3.184  -0.018  0.00  0.00    +0.048 C 
BRANCH  19  26
ATOM     20  C   UNL     1      -3.280  -2.929  -2.306  0.00  0.00    +0.001 A 
ATOM     21  C   UNL     1      -4.200  -2.037  -1.738  0.00  0.00    +0.002 A 
ATOM     22  C   UNL     1      -3.933  -1.327  -0.622  0.00  0.00    +0.026 A 
ATOM     23  C   UNL     1      -2.677  -1.461   0.032  0.00  0.00    +0.043 A 
ATOM     24  N   UNL     1      -2.187  -0.891   1.107  0.00  0.00    -0.380 N 
ATOM     25  C   UNL     1      -0.830  -1.402   1.329  0.00  0.00    +0.145 C 
ATOM     26  C   UNL     1      -0.567  -2.383   0.209  0.00  0.00    -0.036 C 
ATOM     27  C   UNL     1      -1.687  -2.396  -0.549  0.00  0.00    -0.001 A 
ATOM     28  C   UNL     1      -2.058  -3.131  -1.764  0.00  0.00    +0.010 A 
ATOM     29  H   UNL     1      -2.645  -0.241   1.662  0.00  0.00    +0.160 HD
ENDBRANCH  19  26
BRANCH  19  30
ATOM     30  C   UNL     1       1.873  -2.233  -0.209  0.00  0.00    +0.063 C 
ATOM     31  C   UNL     1       3.152  -2.996  -0.644  0.00  0.00    +0.042 C 
ATOM     32  C   UNL     1       3.920  -2.208  -1.657  0.00  0.00    -0.019 C 
ATOM     33  C   UNL     1       3.327  -1.232  -2.316  0.00  0.00    +0.036 C 
ATOM     34  S   UNL     1       1.653  -1.171  -1.698  0.00  0.00    -0.129 S 
ENDBRANCH  19  30
ENDBRANCH   1  19
TORSDOF 6
