REMARK  Name = ZINC15676073
REMARK  7 active torsions:
REMARK  status: ('A' for Active; 'I' for Inactive)
REMARK    1  A    between atoms: C_1  and  C_2
REMARK    2  A    between atoms: C_5  and  C_8
REMARK    3  A    between atoms: C_8  and  N_9
REMARK    4  A    between atoms: C_14  and  C_31
REMARK    5  A    between atoms: C_18  and  C_19
REMARK    6  A    between atoms: C_18  and  C_20
REMARK    7  A    between atoms: N_22  and  C_23
REMARK                            x       y       z     vdW  Elec       q    Type
REMARK                         _______ _______ _______ _____ _____    ______ ____
ROOT
ATOM      1  N   UNL     1       3.379   2.392  -0.140  0.00  0.00    -0.276 N 
ATOM      2  C   UNL     1       2.913   1.181  -0.530  0.00  0.00    +0.266 C 
ATOM      3  O   UNL     1       3.597   0.408  -1.174  0.00  0.00    -0.268 OA
ATOM      4  C   UNL     1       1.534   0.852  -0.132  0.00  0.00    +0.124 A 
ATOM      5  C   UNL     1       0.831  -0.314  -0.195  0.00  0.00    +0.065 A 
ATOM      6  C   UNL     1      -0.439  -0.004   0.342  0.00  0.00    +0.128 A 
ATOM      7  N   UNL     1      -0.433   1.276   0.669  0.00  0.00    -0.167 NA
ATOM      8  N   UNL     1       0.694   1.808   0.396  0.00  0.00    -0.256 N 
ATOM      9  C   UNL     1       1.135   3.200   0.559  0.00  0.00    +0.179 C 
ATOM     10  C   UNL     1       2.643   3.224   0.806  0.00  0.00    +0.130 C 
ATOM     11  C   UNL     1       2.920   2.721   2.225  0.00  0.00    +0.044 C 
ENDROOT
BRANCH   6  12
ATOM     12  C   UNL     1      -1.571  -0.943   0.506  0.00  0.00    +0.155 A 
ATOM     13  C   UNL     1      -2.790  -0.638   1.024  0.00  0.00    +0.051 A 
ATOM     14  C   UNL     1      -3.552  -1.824   0.991  0.00  0.00    +0.042 A 
ATOM     15  C   UNL     1      -2.768  -2.783   0.461  0.00  0.00    +0.196 A 
ATOM     16  O   UNL     1      -1.573  -2.245   0.165  0.00  0.00    -0.461 OA
ENDBRANCH   6  12
BRANCH  10  17
ATOM     17  C   UNL     1       3.133   4.644   0.691  0.00  0.00    +0.239 C 
ATOM     18  O   UNL     1       4.168   4.974   1.230  0.00  0.00    -0.273 OA
ATOM     19  N   UNL     1       2.421   5.548  -0.011  0.00  0.00    -0.311 N 
ATOM     20  H   UNL     1       1.564   5.300  -0.392  0.00  0.00    +0.149 HD
BRANCH  19  21
ATOM     21  C   UNL     1       2.941   6.904  -0.198  0.00  0.00    +0.073 C 
ATOM     22  C   UNL     1       2.515   7.781   0.981  0.00  0.00    +0.022 C 
ATOM     23  C   UNL     1       3.364   9.055   1.002  0.00  0.00    +0.002 C 
ATOM     24  C   UNL     1       4.829   8.696   0.749  0.00  0.00    +0.000 C 
ATOM     25  C   UNL     1       5.268   9.267  -0.601  0.00  0.00    +0.000 C 
ATOM     26  C   UNL     1       4.696   8.405  -1.728  0.00  0.00    +0.000 C 
ATOM     27  C   UNL     1       3.207   8.713  -1.901  0.00  0.00    +0.002 C 
ATOM     28  C   UNL     1       2.382   7.490  -1.497  0.00  0.00    +0.022 C 
ENDBRANCH  19  21
ENDBRANCH  10  17
BRANCH   1  29
ATOM     29  C   UNL     1       4.651   2.878  -0.681  0.00  0.00    +0.144 C 
BRANCH  29  34
ATOM     30  C   UNL     1       3.760   5.219  -5.889  0.00  0.00    +0.044 C 
ATOM     31  C   UNL     1       3.993   4.609  -4.531  0.00  0.00    -0.050 A 
ATOM     32  C   UNL     1       4.042   5.416  -3.409  0.00  0.00    +0.003 A 
ATOM     33  C   UNL     1       4.255   4.856  -2.164  0.00  0.00    +0.005 A 
ATOM     34  C   UNL     1       4.418   3.489  -2.039  0.00  0.00    -0.030 A 
ATOM     35  C   UNL     1       4.375   2.682  -3.161  0.00  0.00    +0.005 A 
ATOM     36  C   UNL     1       4.156   3.242  -4.407  0.00  0.00    +0.003 A 
ENDBRANCH  29  34
ENDBRANCH   1  29
TORSDOF 5
