REMARK  Name = ZINC31653506
REMARK  10 active torsions:
REMARK  status: ('A' for Active; 'I' for Inactive)
REMARK    1  A    between atoms: C_1  and  C_2
REMARK    2  A    between atoms: C_6  and  N_12
REMARK    3  A    between atoms: N_12  and  C_13
REMARK    4  A    between atoms: C_16  and  S_22
REMARK    5  A    between atoms: C_18  and  N_19
REMARK    6  A    between atoms: S_22  and  N_25
REMARK    7  A    between atoms: N_25  and  C_26
REMARK    8  A    between atoms: C_26  and  C_27
REMARK    9  A    between atoms: C_26  and  C_28
REMARK   10  A    between atoms: C_26  and  C_29
REMARK                            x       y       z     vdW  Elec       q    Type
REMARK                         _______ _______ _______ _____ _____    ______ ____
ROOT
ATOM      1  C   UNL     1      -0.853   3.804  -3.378  0.00  0.00    +0.062 A 
ATOM      2  C   UNL     1      -0.082   4.157  -2.277  0.00  0.00    +0.027 A 
ATOM      3  C   UNL     1      -0.035   3.327  -1.174  0.00  0.00    +0.030 A 
ATOM      4  C   UNL     1      -0.746   2.140  -1.169  0.00  0.00    +0.108 A 
ATOM      5  C   UNL     1      -1.514   1.786  -2.263  0.00  0.00    +0.063 A 
ATOM      6  C   UNL     1      -1.570   2.615  -3.367  0.00  0.00    +0.149 A 
ENDROOT
BRANCH   6   7
ATOM      7  N   UNL     1      -2.393   2.235  -4.537  0.00  0.00    +0.058 N 
ATOM      8  O   UNL     1      -3.122   1.261  -4.479  0.00  0.00    -0.126 OA
ATOM      9  O   UNL     1      -2.342   2.897  -5.558  0.00  0.00    -0.126 OA
ENDBRANCH   6   7
BRANCH   4  10
ATOM     10  S   UNL     1      -0.678   1.081   0.237  0.00  0.00    +0.059 S 
ATOM     11  O   UNL     1      -1.717   0.125   0.076  0.00  0.00    -0.153 OA
ATOM     12  O   UNL     1      -0.588   1.924   1.377  0.00  0.00    -0.153 OA
BRANCH  10  13
ATOM     13  N   UNL     1       0.750   0.246   0.152  0.00  0.00    -0.185 NA
ATOM     14  H   UNL     1       1.453   0.296   0.997  0.00  0.00    +0.149 HD
BRANCH  13  15
ATOM     15  C   UNL     1       0.974  -0.715  -0.931  0.00  0.00    +0.032 C 
ATOM     16  C   UNL     1       0.670  -0.049  -2.274  0.00  0.00    +0.029 C 
ATOM     17  C   UNL     1       2.432  -1.178  -0.909  0.00  0.00    +0.029 C 
ATOM     18  C   UNL     1       0.053  -1.922  -0.740  0.00  0.00    +0.029 C 
ENDBRANCH  13  15
ENDBRANCH  10  13
ENDBRANCH   4  10
BRANCH   1  19
ATOM     19  N   UNL     1      -0.907   4.644  -4.493  0.00  0.00    -0.313 N 
ATOM     20  H   UNL     1      -0.093   4.628  -5.233  0.00  0.00    +0.152 HD
BRANCH  19  26
ATOM     21  C   UNL     1      -5.575   9.563  -7.479  0.00  0.00    +0.063 C 
ATOM     22  C   UNL     1      -4.780   8.566  -6.677  0.00  0.00    +0.014 A 
ATOM     23  C   UNL     1      -3.639   7.985  -7.082  0.00  0.00    +0.030 A 
ATOM     24  C   UNL     1      -3.207   7.091  -6.005  0.00  0.00    +0.002 A 
ATOM     25  C   UNL     1      -2.118   6.233  -5.837  0.00  0.00    +0.033 A 
ATOM     26  C   UNL     1      -1.996   5.506  -4.668  0.00  0.00    +0.032 A 
ATOM     27  C   UNL     1      -2.956   5.625  -3.664  0.00  0.00    +0.025 A 
ATOM     28  C   UNL     1      -4.029   6.473  -3.818  0.00  0.00    +0.028 A 
ATOM     29  C   UNL     1      -4.170   7.212  -4.988  0.00  0.00    +0.047 A 
ATOM     30  N   UNL     1      -5.114   8.117  -5.428  0.00  0.00    -0.358 N 
ATOM     31  H   UNL     1      -6.024   8.488  -4.936  0.00  0.00    +0.166 HD
ENDBRANCH  19  26
ENDBRANCH   1  19
TORSDOF 6
