REMARK  Name = ZINC62172414
REMARK  5 active torsions:
REMARK  status: ('A' for Active; 'I' for Inactive)
REMARK    1  A    between atoms: C_10  and  C_11
REMARK    2  A    between atoms: C_11  and  C_12
REMARK    3  A    between atoms: C_12  and  N_13
REMARK    4  A    between atoms: C_14  and  C_16
REMARK    5  A    between atoms: N_18  and  C_19
REMARK                            x       y       z     vdW  Elec       q    Type
REMARK                         _______ _______ _______ _____ _____    ______ ____
ROOT
ATOM      1  N   UNL     1       6.601   1.281   1.380  0.00  0.00    -0.307 N 
ATOM      2  C   UNL     1       7.137   1.712   2.539  0.00  0.00    +0.299 C 
ATOM      3  O   UNL     1       6.575   1.481   3.590  0.00  0.00    -0.265 OA
ATOM      4  H   UNL     1       7.050   1.466   0.540  0.00  0.00    +0.149 HD
ENDROOT
BRANCH   2   5
ATOM      5  C   UNL     1       8.422   2.472   2.531  0.00  0.00    +0.303 C 
ATOM      6  O   UNL     1       8.984   2.703   1.480  0.00  0.00    -0.265 OA
ATOM      7  N   UNL     1       8.958   2.903   3.690  0.00  0.00    -0.278 N 
ATOM      8  H   UNL     1       8.477   2.777   4.523  0.00  0.00    +0.155 HD
BRANCH   7   9
ATOM      9  C   UNL     1      10.208   3.530   3.692  0.00  0.00    +0.034 A 
ATOM     10  C   UNL     1      11.084   3.331   4.753  0.00  0.00    +0.025 A 
ATOM     11  C   UNL     1      12.317   3.950   4.755  0.00  0.00    +0.025 A 
ATOM     12  C   UNL     1      12.684   4.771   3.696  0.00  0.00    +0.037 A 
ATOM     13  C   UNL     1      11.809   4.970   2.636  0.00  0.00    -0.024 A 
ATOM     14  C   UNL     1      10.577   4.347   2.631  0.00  0.00    +0.028 A 
ATOM     15  C   UNL     1      12.210   5.861   1.489  0.00  0.00    +0.046 C 
ATOM     16  C   UNL     1      13.079   7.005   2.011  0.00  0.00    +0.101 C 
ATOM     17  C   UNL     1      14.164   6.460   2.901  0.00  0.00    +0.218 C 
ATOM     18  O   UNL     1      15.258   6.984   2.901  0.00  0.00    -0.275 OA
ATOM     19  N   UNL     1      13.934   5.399   3.695  0.00  0.00    -0.285 N 
ATOM     20  H   UNL     1      14.640   5.067   4.271  0.00  0.00    +0.155 HD
ENDBRANCH   7   9
ENDBRANCH   2   5
BRANCH   1  21
ATOM     21  C   UNL     1       5.340   0.535   1.389  0.00  0.00    +0.109 C 
BRANCH  21  22
ATOM     22  C   UNL     1       4.956   0.168  -0.046  0.00  0.00    +0.054 C 
BRANCH  22  32
ATOM     23  C   UNL     1      -0.014   1.393  -0.011  0.00  0.00    +0.001 A 
ATOM     24  C   UNL     1       1.175   2.120  -0.018  0.00  0.00    +0.001 A 
ATOM     25  C   UNL     1       2.381   1.490  -0.027  0.00  0.00    +0.009 A 
ATOM     26  C   UNL     1       2.432   0.085  -0.029  0.00  0.00    -0.015 A 
ATOM     27  C   UNL     1       1.223  -0.654  -0.021  0.00  0.00    -0.018 A 
ATOM     28  C   UNL     1      -0.004   0.032  -0.012  0.00  0.00    +0.008 A 
ATOM     29  C   UNL     1       1.274  -2.058  -0.022  0.00  0.00    +0.008 A 
ATOM     30  C   UNL     1       2.481  -2.688  -0.031  0.00  0.00    +0.001 A 
ATOM     31  C   UNL     1       3.670  -1.961  -0.038  0.00  0.00    +0.004 A 
ATOM     32  C   UNL     1       3.659  -0.600  -0.037  0.00  0.00    -0.038 A 
ENDBRANCH  22  32
ENDBRANCH  21  22
ENDBRANCH   1  21
TORSDOF 5
