REMARK  Name = ZINC39887284
REMARK  12 active torsions:
REMARK  status: ('A' for Active; 'I' for Inactive)
REMARK    1  A    between atoms: C_1  and  C_2
REMARK    2  A    between atoms: C_2  and  C_3
REMARK    3  A    between atoms: C_2  and  C_4
REMARK    4  A    between atoms: C_7  and  N_10
REMARK    5  A    between atoms: C_11  and  C_21
REMARK    6  A    between atoms: C_16  and  C_19
REMARK    7  A    between atoms: C_23  and  O_31
REMARK    8  A    between atoms: C_24  and  O_29
REMARK    9  A    between atoms: C_25  and  O_27
REMARK   10  A    between atoms: O_27  and  C_28
REMARK   11  A    between atoms: O_29  and  C_30
REMARK   12  A    between atoms: O_31  and  C_32
REMARK                            x       y       z     vdW  Elec       q    Type
REMARK                         _______ _______ _______ _____ _____    ______ ____
ROOT
ATOM      1  N   UNL     1      -5.320  -1.967   0.042  0.00  0.00    -0.270 N 
ATOM      2  C   UNL     1      -5.842  -2.729  -1.097  0.00  0.00    +0.198 C 
ATOM      3  N   UNL     1      -7.175  -2.237  -1.452  0.00  0.00    -0.288 N 
ATOM      4  C   UNL     1      -7.990  -1.724  -0.510  0.00  0.00    +0.258 C 
ATOM      5  O   UNL     1      -9.113  -1.356  -0.806  0.00  0.00    -0.269 OA
ATOM      6  C   UNL     1      -7.519  -1.611   0.873  0.00  0.00    +0.142 C 
ATOM      7  C   UNL     1      -6.139  -1.741   1.120  0.00  0.00    +0.103 C 
ATOM      8  S   UNL     1      -5.485  -1.615   2.751  0.00  0.00    -0.033 SA
ATOM      9  H   UNL     1      -7.473  -2.281  -2.374  0.00  0.00    +0.151 HD
ENDROOT
BRANCH   1  13
ATOM     10  C   UNL     1      -1.412  -0.526   0.012  0.00  0.00    -0.045 A 
ATOM     11  C   UNL     1      -1.775  -1.516   0.906  0.00  0.00    +0.006 A 
ATOM     12  C   UNL     1      -3.070  -1.996   0.919  0.00  0.00    +0.024 A 
ATOM     13  C   UNL     1      -4.008  -1.483   0.032  0.00  0.00    +0.036 A 
ATOM     14  C   UNL     1      -3.640  -0.488  -0.865  0.00  0.00    +0.024 A 
ATOM     15  C   UNL     1      -2.344  -0.009  -0.869  0.00  0.00    +0.006 A 
BRANCH  10  17
ATOM     16  C   UNL     1       0.338   0.586   1.372  0.00  0.00    +0.012 C 
ATOM     17  C   UNL     1       0.002  -0.004   0.001  0.00  0.00    +0.013 C 
ATOM     18  C   UNL     1       0.966  -1.150  -0.311  0.00  0.00    +0.012 C 
ENDBRANCH  10  17
ENDBRANCH   1  13
BRANCH   2  19
ATOM     19  C   UNL     1      -5.931  -4.187  -0.725  0.00  0.00    -0.002 A 
ATOM     20  C   UNL     1      -5.045  -4.719   0.194  0.00  0.00    +0.056 A 
ATOM     21  C   UNL     1      -5.122  -6.060   0.538  0.00  0.00    +0.166 A 
ATOM     22  C   UNL     1      -6.092  -6.870  -0.042  0.00  0.00    +0.204 A 
ATOM     23  C   UNL     1      -6.981  -6.331  -0.965  0.00  0.00    +0.166 A 
ATOM     24  C   UNL     1      -6.900  -4.988  -1.300  0.00  0.00    +0.056 A 
BRANCH  23  25
ATOM     25  O   UNL     1      -7.931  -7.119  -1.535  0.00  0.00    -0.491 OA
ATOM     26  C   UNL     1      -8.810  -6.498  -2.475  0.00  0.00    +0.277 C 
ENDBRANCH  23  25
BRANCH  22  27
ATOM     27  O   UNL     1      -6.171  -8.186   0.293  0.00  0.00    -0.488 OA
ATOM     28  C   UNL     1      -7.013  -8.526   1.396  0.00  0.00    +0.277 C 
ENDBRANCH  22  27
BRANCH  21  29
ATOM     29  O   UNL     1      -4.250  -6.583   1.441  0.00  0.00    -0.491 OA
ATOM     30  C   UNL     1      -3.280  -5.692   1.996  0.00  0.00    +0.277 C 
ENDBRANCH  21  29
ENDBRANCH   2  19
BRANCH   6  31
ATOM     31  C   UNL     1      -8.438  -1.377   1.946  0.00  0.00    +0.107 C 
ATOM     32  N   UNL     1      -9.167  -1.192   2.797  0.00  0.00    -0.191 NA
ENDBRANCH   6  31
TORSDOF 7
