REMARK  Name = ZINC08736006
REMARK  7 active torsions:
REMARK  status: ('A' for Active; 'I' for Inactive)
REMARK    1  A    between atoms: C_1  and  C_2
REMARK    2  A    between atoms: C_9  and  C_20
REMARK    3  A    between atoms: C_10  and  N_13
REMARK    4  A    between atoms: C_14  and  C_16
REMARK    5  A    between atoms: C_16  and  C_17
REMARK    6  A    between atoms: C_16  and  C_18
REMARK    7  A    between atoms: C_16  and  C_19
REMARK                            x       y       z     vdW  Elec       q    Type
REMARK                         _______ _______ _______ _____ _____    ______ ____
ROOT
ATOM      1  C   UNL     1      -6.070   3.036  -0.131  0.00  0.00    +0.047 C 
ATOM      2  C   UNL     1      -4.761   3.777  -0.215  0.00  0.00    -0.008 A 
ATOM      3  C   UNL     1      -4.747   5.133  -0.345  0.00  0.00    +0.008 A 
ATOM      4  C   UNL     1      -3.520   5.809  -0.423  0.00  0.00    +0.019 A 
ATOM      5  C   UNL     1      -2.360   5.118  -0.368  0.00  0.00    +0.096 A 
ATOM      6  N   UNL     1      -2.362   3.762  -0.238  0.00  0.00    -0.266 N 
ATOM      7  C   UNL     1      -3.542   3.074  -0.160  0.00  0.00    +0.143 A 
ATOM      8  N   UNL     1      -3.556   1.750  -0.032  0.00  0.00    -0.232 NA
ATOM      9  C   UNL     1      -2.433   1.050   0.024  0.00  0.00    +0.067 A 
ATOM     10  C   UNL     1      -1.209   1.696  -0.051  0.00  0.00    +0.120 A 
ATOM     11  C   UNL     1      -1.189   3.095  -0.179  0.00  0.00    +0.280 A 
ATOM     12  O   UNL     1      -0.129   3.697  -0.243  0.00  0.00    -0.265 OA
ATOM     13  C   UNL     1      -2.486  -0.449   0.168  0.00  0.00    +0.068 C 
ENDROOT
BRANCH  10  14
ATOM     14  N   UNL     1      -0.011   0.966   0.007  0.00  0.00    -0.279 N 
ATOM     15  C   UNL     1       0.873   1.040  -1.007  0.00  0.00    +0.223 C 
ATOM     16  O   UNL     1       0.596   1.667  -2.008  0.00  0.00    -0.275 OA
ATOM     17  H   UNL     1       0.178   0.405   0.776  0.00  0.00    +0.155 HD
BRANCH  15  18
ATOM     18  C   UNL     1       2.205   0.344  -0.898  0.00  0.00    +0.039 C 
ATOM     19  C   UNL     1       3.013   0.585  -2.175  0.00  0.00    +0.020 C 
ATOM     20  C   UNL     1       2.974   0.899   0.303  0.00  0.00    +0.020 C 
ATOM     21  C   UNL     1       1.982  -1.158  -0.711  0.00  0.00    +0.020 C 
ENDBRANCH  15  18
ENDBRANCH  10  14
TORSDOF 2
