REMARK  Name = ZINC25247279
REMARK  8 active torsions:
REMARK  status: ('A' for Active; 'I' for Inactive)
REMARK    1  A    between atoms: C_1  and  C_2
REMARK    2  A    between atoms: C_2  and  N_3
REMARK    3  A    between atoms: N_3  and  C_4
REMARK    4  A    between atoms: C_4  and  C_5
REMARK    5  A    between atoms: C_7  and  C_29
REMARK    6  A    between atoms: C_14  and  N_16
REMARK    7  A    between atoms: N_18  and  C_22
REMARK    8  A    between atoms: C_25  and  C_28
REMARK                            x       y       z     vdW  Elec       q    Type
REMARK                         _______ _______ _______ _____ _____    ______ ____
ROOT
ATOM      1  N   UNL     1       0.519   3.793  -0.049  0.00  0.00    -0.315 N 
ATOM      2  C   UNL     1       0.622   2.591  -0.722  0.00  0.00    +0.141 A 
ATOM      3  C   UNL     1       1.785   2.309  -1.457  0.00  0.00    +0.100 A 
ATOM      4  C   UNL     1       1.851   1.025  -2.154  0.00  0.00    +0.016 A 
ATOM      5  C   UNL     1       2.943   0.623  -2.916  0.00  0.00    +0.011 A 
ATOM      6  C   UNL     1       2.926  -0.609  -3.545  0.00  0.00    +0.138 A 
ATOM      7  N   UNL     1       1.862  -1.411  -3.420  0.00  0.00    -0.216 NA
ATOM      8  C   UNL     1       0.796  -1.087  -2.712  0.00  0.00    +0.129 A 
ATOM      9  C   UNL     1       0.739   0.149  -2.043  0.00  0.00    +0.063 A 
ATOM     10  C   UNL     1      -0.369   0.552  -1.274  0.00  0.00    +0.129 A 
ATOM     11  N   UNL     1      -0.380   1.724  -0.663  0.00  0.00    -0.216 NA
ATOM     12  N   UNL     1      -0.268  -1.966  -2.627  0.00  0.00    -0.343 N 
ATOM     13  N   UNL     1       4.113  -0.803  -4.247  0.00  0.00    -0.224 N 
ATOM     14  C   UNL     1       4.953   0.238  -4.134  0.00  0.00    +0.230 C 
ATOM     15  O   UNL     1       6.051   0.338  -4.640  0.00  0.00    -0.275 OA
ATOM     16  C   UNL     1       4.268   1.264  -3.256  0.00  0.00    +0.136 C 
ATOM     17  H   UNL     1      -1.157  -1.698  -2.037  0.00  0.00    +0.144 HD
ATOM     18  H   UNL     1      -0.225  -2.933  -3.150  0.00  0.00    +0.144 HD
ENDROOT
BRANCH  13  19
ATOM     19  C   UNL     1       4.398  -1.957  -4.989  0.00  0.00    +0.043 A 
ATOM     20  C   UNL     1       3.474  -2.992  -5.048  0.00  0.00    +0.024 A 
ATOM     21  C   UNL     1       3.757  -4.127  -5.784  0.00  0.00    +0.005 A 
ATOM     22  C   UNL     1       4.963  -4.237  -6.452  0.00  0.00    -0.050 A 
ATOM     23  C   UNL     1       5.887  -3.209  -6.391  0.00  0.00    +0.005 A 
ATOM     24  C   UNL     1       5.608  -2.071  -5.661  0.00  0.00    +0.024 A 
ATOM     25  C   UNL     1       5.271  -5.478  -7.248  0.00  0.00    +0.044 C 
ENDBRANCH  13  19
BRANCH  10  26
ATOM     26  N   UNL     1      -1.456  -0.287  -1.157  0.00  0.00    -0.343 N 
ATOM     27  H   UNL     1      -2.326   0.021  -0.558  0.00  0.00    +0.144 HD
ATOM     28  H   UNL     1      -1.455  -1.263  -1.663  0.00  0.00    +0.144 HD
ENDBRANCH  10  26
BRANCH   1  30
ATOM     29  C   UNL     1      -0.989   5.619   0.573  0.00  0.00    +0.024 C 
ATOM     30  C   UNL     1      -0.887   4.139   0.200  0.00  0.00    +0.103 C 
ENDBRANCH   1  30
BRANCH   1  31
ATOM     31  C   UNL     1       1.283   3.761   1.205  0.00  0.00    +0.103 C 
ATOM     32  C   UNL     1       0.741   2.649   2.104  0.00  0.00    +0.024 C 
ENDBRANCH   1  31
BRANCH   3  33
ATOM     33  C   UNL     1       2.867   3.244  -1.521  0.00  0.00    +0.103 C 
ATOM     34  N   UNL     1       3.725   3.987  -1.571  0.00  0.00    -0.191 NA
ENDBRANCH   3  33
TORSDOF 5
