REMARK  Name = ZINC36207806
REMARK  12 active torsions:
REMARK  status: ('A' for Active; 'I' for Inactive)
REMARK    1  A    between atoms: C_1  and  C_2
REMARK    2  A    between atoms: C_7  and  O_8
REMARK    3  A    between atoms: O_8  and  C_9
REMARK    4  A    between atoms: C_9  and  C_10
REMARK    5  A    between atoms: C_10  and  C_12
REMARK    6  A    between atoms: C_10  and  O_39
REMARK    7  A    between atoms: C_12  and  N_13
REMARK    8  A    between atoms: N_13  and  C_14
REMARK    9  A    between atoms: N_13  and  C_20
REMARK   10  A    between atoms: C_14  and  C_15
REMARK   11  A    between atoms: C_20  and  C_21
REMARK   12  A    between atoms: C_27  and  C_32
REMARK                            x       y       z     vdW  Elec       q    Type
REMARK                         _______ _______ _______ _____ _____    ______ ____
ROOT
ATOM      1  N   UNL     1       0.142   0.243   7.171  0.00  0.00    +0.391 N 
ATOM      2  H   UNL     1      -0.692   0.803   7.272  0.00  0.00    -0.080 HD
ENDROOT
BRANCH   1   3
ATOM      3  C   UNL     1      -0.030  -0.695   6.054  0.00  0.00    -0.043 C 
BRANCH   3   4
ATOM      4  C   UNL     1      -1.336  -1.472   6.237  0.00  0.00    +0.135 C 
BRANCH   4   5
ATOM      5  O   UNL     1      -1.215  -2.349   7.358  0.00  0.00    -0.390 OA
ATOM      6  H   UNL     1      -0.505  -3.000   7.274  0.00  0.00    +0.210 HD
ENDBRANCH   4   5
BRANCH   4   7
ATOM      7  C   UNL     1      -1.623  -2.291   4.977  0.00  0.00    +0.258 C 
BRANCH   7   8
ATOM      8  O   UNL     1      -2.898  -2.924   5.101  0.00  0.00    -0.489 OA
BRANCH   8  15
ATOM      9  C   UNL     1      -5.415  -4.186   5.325  0.00  0.00    +0.047 C 
ATOM     10  C   UNL     1      -4.534  -4.340   4.112  0.00  0.00    -0.009 A 
ATOM     11  C   UNL     1      -4.951  -5.119   3.050  0.00  0.00    +0.007 A 
ATOM     12  C   UNL     1      -4.143  -5.261   1.937  0.00  0.00    +0.000 A 
ATOM     13  C   UNL     1      -2.916  -4.624   1.884  0.00  0.00    +0.004 A 
ATOM     14  C   UNL     1      -2.495  -3.844   2.943  0.00  0.00    +0.046 A 
ATOM     15  C   UNL     1      -3.307  -3.696   4.059  0.00  0.00    +0.124 A 
ENDBRANCH   8  15
ENDBRANCH   7   8
ENDBRANCH   4   7
ENDBRANCH   3   4
ENDBRANCH   1   3
BRANCH   1  16
ATOM     16  C   UNL     1       1.290   1.119   6.902  0.00  0.00    -0.002 C 
BRANCH  16  17
ATOM     17  C   UNL     1       0.986   1.995   5.714  0.00  0.00    +0.089 A 
ATOM     18  C   UNL     1       0.493   3.246   5.764  0.00  0.00    +0.042 A 
ATOM     19  C   UNL     1       0.364   3.689   4.427  0.00  0.00    +0.041 A 
ATOM     20  C   UNL     1       0.786   2.682   3.641  0.00  0.00    +0.195 A 
ATOM     21  O   UNL     1       1.167   1.661   4.426  0.00  0.00    -0.470 OA
ENDBRANCH  16  17
ENDBRANCH   1  16
BRANCH   1  22
ATOM     22  C   UNL     1       0.380  -0.509   8.410  0.00  0.00    -0.003 C 
BRANCH  22  23
ATOM     23  C   UNL     1       0.413   0.444   9.578  0.00  0.00    +0.094 A 
ATOM     24  N   UNL     1       0.627  -0.041  10.828  0.00  0.00    -0.312 N 
ATOM     25  H   UNL     1       0.755  -0.994  10.953  0.00  0.00    +0.170 HD
ATOM     26  C   UNL     1       0.665   0.776  11.897  0.00  0.00    +0.260 A 
ATOM     27  O   UNL     1       0.859   0.326  13.013  0.00  0.00    -0.267 OA
ATOM     28  C   UNL     1       0.474   2.182  11.703  0.00  0.00    +0.080 A 
ATOM     29  C   UNL     1       0.472   3.257  12.688  0.00  0.00    +0.006 A 
ATOM     30  C   UNL     1       0.269   4.528  12.265  0.00  0.00    +0.056 A 
ATOM     31  S   UNL     1       0.068   4.349  10.503  0.00  0.00    -0.076 S 
ATOM     32  C   UNL     1       0.259   2.589  10.377  0.00  0.00    +0.116 A 
ATOM     33  N   UNL     1       0.241   1.721   9.368  0.00  0.00    -0.229 NA
BRANCH  29  34
ATOM     34  C   UNL     1       0.687   2.965  14.126  0.00  0.00    +0.019 A 
ATOM     35  C   UNL     1      -0.335   3.191  15.046  0.00  0.00    +0.011 A 
ATOM     36  C   UNL     1      -0.130   2.917  16.383  0.00  0.00    +0.001 A 
ATOM     37  C   UNL     1       1.087   2.418  16.811  0.00  0.00    +0.003 A 
ATOM     38  C   UNL     1       2.107   2.192  15.905  0.00  0.00    +0.039 A 
ATOM     39  C   UNL     1       1.911   2.457  14.562  0.00  0.00    +0.131 A 
ATOM     40  F   UNL     1       2.905   2.230  13.675  0.00  0.00    -0.205 F 
ENDBRANCH  29  34
ENDBRANCH  22  23
ENDBRANCH   1  22
TORSDOF 11
