REMARK  Name = ZINC19850646
REMARK  4 active torsions:
REMARK  status: ('A' for Active; 'I' for Inactive)
REMARK    1  A    between atoms: C_4  and  C_7
REMARK    2  A    between atoms: N_11  and  N_12
REMARK    3  A    between atoms: C_13  and  C_14
REMARK    4  A    between atoms: C_18  and  N_20
REMARK                            x       y       z     vdW  Elec       q    Type
REMARK                         _______ _______ _______ _____ _____    ______ ____
ROOT
ATOM      1  C   UNL     1      -3.209   4.975   1.042  0.00  0.00    +0.184 A 
ATOM      2  N   UNL     1      -4.235   4.282   0.603  0.00  0.00    -0.152 NA
ATOM      3  N   UNL     1      -4.131   4.098  -0.665  0.00  0.00    -0.253 N 
ATOM      4  C   UNL     1      -3.035   4.667  -1.117  0.00  0.00    +0.197 A 
ATOM      5  N   UNL     1      -2.405   5.241  -0.045  0.00  0.00    -0.188 N 
ATOM      6  S   UNL     1      -2.478   4.684  -2.788  0.00  0.00    -0.010 S 
ATOM      7  H   UNL     1      -4.904   3.530  -1.203  0.00  0.00    +0.191 HD
ENDROOT
BRANCH   1  11
ATOM      8  C   UNL     1      -2.502   6.167   5.057  0.00  0.00    +0.000 A 
ATOM      9  C   UNL     1      -3.757   5.720   4.682  0.00  0.00    +0.001 A 
ATOM     10  C   UNL     1      -3.993   5.331   3.380  0.00  0.00    +0.011 A 
ATOM     11  C   UNL     1      -2.963   5.390   2.439  0.00  0.00    +0.021 A 
ATOM     12  C   UNL     1      -1.699   5.839   2.825  0.00  0.00    +0.011 A 
ATOM     13  C   UNL     1      -1.477   6.229   4.130  0.00  0.00    +0.001 A 
ENDBRANCH   1  11
BRANCH   5  14
ATOM     14  N   UNL     1      -1.199   5.954  -0.053  0.00  0.00    -0.171 NA
ATOM     15  C   UNL     1      -0.086   5.342  -0.318  0.00  0.00    +0.141 C 
BRANCH  15  16
ATOM     16  C   UNL     1      -0.039   3.868  -0.331  0.00  0.00    -0.003 A 
ATOM     17  C   UNL     1      -1.141   3.127   0.102  0.00  0.00    +0.009 A 
ATOM     18  C   UNL     1      -1.093   1.749   0.081  0.00  0.00    +0.003 A 
ATOM     19  C   UNL     1       0.049   1.100  -0.356  0.00  0.00    +0.033 A 
ATOM     20  C   UNL     1       1.144   1.828  -0.786  0.00  0.00    +0.127 A 
ATOM     21  C   UNL     1       1.108   3.207  -0.777  0.00  0.00    +0.042 A 
BRANCH  20  22
ATOM     22  N   UNL     1       2.358   1.125  -1.259  0.00  0.00    +0.056 N 
ATOM     23  O   UNL     1       2.392  -0.093  -1.268  0.00  0.00    -0.126 OA
ATOM     24  O   UNL     1       3.323   1.764  -1.638  0.00  0.00    -0.126 OA
ENDBRANCH  20  22
ENDBRANCH  15  16
ENDBRANCH   5  14
TORSDOF 4
