REMARK  Name = ZINC12854445
REMARK  10 active torsions:
REMARK  status: ('A' for Active; 'I' for Inactive)
REMARK    1  A    between atoms: C_1  and  C_2
REMARK    2  A    between atoms: C_2  and  C_3
REMARK    3  A    between atoms: C_2  and  C_4
REMARK    4  A    between atoms: C_4  and  N_5
REMARK    5  A    between atoms: N_5  and  C_6
REMARK    6  A    between atoms: C_7  and  N_22
REMARK    7  A    between atoms: N_8  and  C_15
REMARK    8  A    between atoms: C_15  and  C_16
REMARK    9  A    between atoms: C_23  and  C_25
REMARK   10  A    between atoms: C_25  and  N_26
REMARK                            x       y       z     vdW  Elec       q    Type
REMARK                         _______ _______ _______ _____ _____    ______ ____
ROOT
ATOM      1  N   UNL     1      -0.064  -0.077   2.277  0.00  0.00    -0.263 N 
ATOM      2  C   UNL     1       0.002   1.206   2.690  0.00  0.00    +0.238 C 
ATOM      3  O   UNL     1      -0.648   1.569   3.647  0.00  0.00    -0.274 OA
ENDROOT
BRANCH   1   4
ATOM      4  C   UNL     1      -0.960  -0.973   2.898  0.00  0.00    +0.140 A 
ATOM      5  C   UNL     1      -0.806  -1.311   4.227  0.00  0.00    +0.128 A 
ATOM      6  N   UNL     1      -1.695  -2.187   4.805  0.00  0.00    -0.276 N 
ATOM      7  C   UNL     1      -2.703  -2.709   4.083  0.00  0.00    +0.331 A 
ATOM      8  O   UNL     1      -3.478  -3.482   4.612  0.00  0.00    -0.246 OA
ATOM      9  N   UNL     1      -2.869  -2.391   2.787  0.00  0.00    -0.273 N 
ATOM     10  H   UNL     1      -3.604  -2.781   2.288  0.00  0.00    +0.173 HD
ATOM     11  C   UNL     1      -2.029  -1.533   2.174  0.00  0.00    +0.277 A 
ATOM     12  O   UNL     1      -2.192  -1.248   1.000  0.00  0.00    -0.266 OA
BRANCH   5  13
ATOM     13  N   UNL     1       0.225  -0.778   4.965  0.00  0.00    -0.343 N 
ATOM     14  H   UNL     1       0.811  -0.114   4.570  0.00  0.00    +0.144 HD
ATOM     15  H   UNL     1       0.365  -1.067   5.880  0.00  0.00    +0.144 HD
ENDBRANCH   5  13
BRANCH   6  16
ATOM     16  C   UNL     1      -1.543  -2.554   6.215  0.00  0.00    +0.163 C 
BRANCH  16  17
ATOM     17  C   UNL     1      -2.322  -1.591   7.072  0.00  0.00    -0.028 A 
ATOM     18  C   UNL     1      -1.718  -0.439   7.541  0.00  0.00    +0.005 A 
ATOM     19  C   UNL     1      -2.433   0.446   8.327  0.00  0.00    +0.000 A 
ATOM     20  C   UNL     1      -3.752   0.178   8.643  0.00  0.00    +0.000 A 
ATOM     21  C   UNL     1      -4.356  -0.973   8.174  0.00  0.00    +0.000 A 
ATOM     22  C   UNL     1      -3.642  -1.855   7.384  0.00  0.00    +0.005 A 
ENDBRANCH  16  17
ENDBRANCH   6  16
ENDBRANCH   1   4
BRANCH   1  23
ATOM     23  C   UNL     1       0.793  -0.540   1.183  0.00  0.00    +0.117 C 
BRANCH  23  25
ATOM     24  C   UNL     1       1.845  -2.322   2.583  0.00  0.00    +0.009 C 
ATOM     25  C   UNL     1       2.112  -1.063   1.755  0.00  0.00    +0.001 C 
ATOM     26  C   UNL     1       3.067  -1.401   0.608  0.00  0.00    +0.009 C 
ENDBRANCH  23  25
ENDBRANCH   1  23
BRANCH   2  27
ATOM     27  C   UNL     1       0.885   2.187   1.963  0.00  0.00    +0.212 C 
BRANCH  27  28
ATOM     28  N   UNL     1       0.874   3.470   2.669  0.00  0.00    -0.233 N 
ATOM     29  C   UNL     1      -0.025   4.458   2.408  0.00  0.00    +0.226 C 
ATOM     30  O   UNL     1      -1.039   4.367   1.751  0.00  0.00    -0.275 OA
ATOM     31  C   UNL     1       0.494   5.680   3.098  0.00  0.00    +0.087 C 
ATOM     32  C   UNL     1      -0.484   6.683   3.669  0.00  0.00    +0.013 C 
ATOM     33  C   UNL     1       0.368   7.782   4.336  0.00  0.00    +0.001 C 
ATOM     34  C   UNL     1       1.292   7.212   5.407  0.00  0.00    +0.001 C 
ATOM     35  C   UNL     1       2.155   6.055   4.871  0.00  0.00    +0.013 C 
ATOM     36  C   UNL     1       1.221   5.020   4.308  0.00  0.00    +0.087 C 
ATOM     37  C   UNL     1       1.757   3.788   3.654  0.00  0.00    +0.226 C 
ATOM     38  O   UNL     1       2.774   3.195   3.941  0.00  0.00    -0.275 OA
ENDBRANCH  27  28
ENDBRANCH   2  27
TORSDOF 8
