REMARK  Name = ZINC63383940
REMARK  9 active torsions:
REMARK  status: ('A' for Active; 'I' for Inactive)
REMARK    1  A    between atoms: C_1  and  C_2
REMARK    2  A    between atoms: C_2  and  C_3
REMARK    3  A    between atoms: C_3  and  C_5
REMARK    4  A    between atoms: C_3  and  C_6
REMARK    5  A    between atoms: C_6  and  C_8
REMARK    6  A    between atoms: C_6  and  N_17
REMARK    7  A    between atoms: N_10  and  C_11
REMARK    8  A    between atoms: C_11  and  C_12
REMARK    9  A    between atoms: C_18  and  C_20
REMARK                            x       y       z     vdW  Elec       q    Type
REMARK                         _______ _______ _______ _____ _____    ______ ____
ROOT
ATOM      1  C   UNL     1       2.898   3.585  -0.202  0.00  0.00    +0.167 C 
ATOM      2  C   UNL     1       4.268   3.820  -0.868  0.00  0.00    +0.065 C 
ATOM      3  C   UNL     1       5.138   4.518   0.147  0.00  0.00    -0.034 C 
ATOM      4  C   UNL     1       5.863   5.629   0.044  0.00  0.00    -0.001 A 
ATOM      5  C   UNL     1       6.147   6.508  -1.102  0.00  0.00    +0.010 A 
ATOM      6  C   UNL     1       6.928   7.590  -0.847  0.00  0.00    +0.001 A 
ATOM      7  C   UNL     1       7.449   7.883   0.417  0.00  0.00    +0.002 A 
ATOM      8  C   UNL     1       7.244   7.127   1.525  0.00  0.00    +0.026 A 
ATOM      9  C   UNL     1       6.442   5.957   1.382  0.00  0.00    +0.043 A 
ATOM     10  N   UNL     1       6.104   5.057   2.256  0.00  0.00    -0.375 N 
ATOM     11  C   UNL     1       5.321   4.025   1.576  0.00  0.00    +0.131 C 
ATOM     12  C   UNL     1       3.928   3.866   2.183  0.00  0.00    +0.134 C 
ATOM     13  N   UNL     1       2.933   4.184   1.139  0.00  0.00    -0.276 N 
ATOM     14  C   UNL     1       2.088   5.115   1.620  0.00  0.00    +0.248 C 
ATOM     15  O   UNL     1       1.083   5.502   1.056  0.00  0.00    -0.270 OA
ATOM     16  C   UNL     1       2.557   5.593   2.922  0.00  0.00    +0.042 A 
ATOM     17  C   UNL     1       3.704   4.827   3.304  0.00  0.00    -0.013 A 
ATOM     18  C   UNL     1       4.379   5.036   4.486  0.00  0.00    +0.006 A 
ATOM     19  C   UNL     1       3.888   6.030   5.327  0.00  0.00    +0.000 A 
ATOM     20  C   UNL     1       2.773   6.776   4.998  0.00  0.00    +0.001 A 
ATOM     21  C   UNL     1       2.059   6.595   3.760  0.00  0.00    +0.013 A 
ATOM     22  H   UNL     1       6.332   5.067   3.199  0.00  0.00    +0.160 HD
ENDROOT
BRANCH   1  24
ATOM     23  N   UNL     1       2.571   1.348  -1.205  0.00  0.00    -0.302 N 
ATOM     24  C   UNL     1       2.633   2.106  -0.092  0.00  0.00    +0.235 C 
ATOM     25  O   UNL     1       2.474   1.597   0.997  0.00  0.00    -0.274 OA
ATOM     26  H   UNL     1       2.773   1.739  -2.070  0.00  0.00    +0.150 HD
BRANCH  23  27
ATOM     27  C   UNL     1       2.200  -0.066  -1.109  0.00  0.00    +0.162 C 
BRANCH  27  28
ATOM     28  C   UNL     1       2.916  -0.847  -2.180  0.00  0.00    +0.234 C 
ATOM     29  O   UNL     1       3.671  -0.281  -2.942  0.00  0.00    -0.274 OA
ATOM     30  N   UNL     1       2.718  -2.176  -2.292  0.00  0.00    -0.307 N 
ATOM     31  H   UNL     1       2.061  -2.617  -1.731  0.00  0.00    +0.149 HD
BRANCH  30  32
ATOM     32  C   UNL     1       3.495  -2.953  -3.260  0.00  0.00    +0.178 C 
BRANCH  32  33
ATOM     33  C   UNL     1       3.085  -4.402  -3.186  0.00  0.00    +0.122 A 
ATOM     34  C   UNL     1       2.109  -4.981  -3.908  0.00  0.00    +0.046 A 
ATOM     35  C   UNL     1       2.066  -6.340  -3.522  0.00  0.00    +0.041 A 
ATOM     36  C   UNL     1       3.018  -6.510  -2.587  0.00  0.00    +0.195 A 
ATOM     37  O   UNL     1       3.636  -5.334  -2.392  0.00  0.00    -0.466 OA
ENDBRANCH  32  33
ENDBRANCH  30  32
ENDBRANCH  27  28
BRANCH  27  38
ATOM     38  C   UNL     1       0.689  -0.210  -1.296  0.00  0.00    +0.015 C 
ATOM     39  C   UNL     1      -0.036   0.441  -0.117  0.00  0.00    +0.010 C 
BRANCH  38  41
ATOM     40  C   UNL     1       0.824  -0.302  -3.789  0.00  0.00    +0.004 C 
ATOM     41  C   UNL     1       0.268   0.478  -2.596  0.00  0.00    +0.002 C 
ENDBRANCH  38  41
ENDBRANCH  27  38
ENDBRANCH  23  27
ENDBRANCH   1  24
TORSDOF 7
