REMARK  Name = ZINC38039678
REMARK  4 active torsions:
REMARK  status: ('A' for Active; 'I' for Inactive)
REMARK    1  A    between atoms: C_3  and  N_19
REMARK    2  A    between atoms: C_4  and  S_8
REMARK    3  A    between atoms: S_8  and  N_11
REMARK    4  A    between atoms: N_11  and  C_12
REMARK                            x       y       z     vdW  Elec       q    Type
REMARK                         _______ _______ _______ _____ _____    ______ ____
ROOT
ATOM      1  S   UNL     1       4.002  -0.861  -0.084  0.00  0.00    +0.061 S 
ATOM      2  O   UNL     1       4.826  -0.432   0.991  0.00  0.00    -0.153 OA
ATOM      3  O   UNL     1       3.485  -2.182  -0.167  0.00  0.00    -0.153 OA
ENDROOT
BRANCH   1   7
ATOM      4  C   UNL     1       0.438   1.929  -0.176  0.00  0.00    +0.017 A 
ATOM      5  C   UNL     1       0.573   0.949  -1.141  0.00  0.00    +0.036 A 
ATOM      6  C   UNL     1       1.661   0.097  -1.113  0.00  0.00    +0.152 A 
ATOM      7  C   UNL     1       2.615   0.225  -0.119  0.00  0.00    +0.136 A 
ATOM      8  C   UNL     1       2.480   1.205   0.845  0.00  0.00    +0.046 A 
ATOM      9  C   UNL     1       1.391   2.058   0.818  0.00  0.00    +0.020 A 
ATOM     10 BR   UNL     1       1.207   3.400   2.138  0.00  0.00    -0.050 Br
BRANCH   6  11
ATOM     11  N   UNL     1       1.806  -0.953  -2.146  0.00  0.00    +0.058 N 
ATOM     12  O   UNL     1       0.912  -1.151  -2.936  0.00  0.00    -0.126 OA
ATOM     13  O   UNL     1       2.817  -1.613  -2.199  0.00  0.00    -0.126 OA
ENDBRANCH   6  11
ENDBRANCH   1   7
BRANCH   1  14
ATOM     14  N   UNL     1       4.863  -0.601  -1.474  0.00  0.00    -0.187 NA
ATOM     15  H   UNL     1       4.942  -1.308  -2.135  0.00  0.00    +0.148 HD
BRANCH  14  16
ATOM     16  C   UNL     1       5.505   0.695  -1.707  0.00  0.00    +0.077 C 
ATOM     17  C   UNL     1       4.563   1.573  -2.556  0.00  0.00    +0.020 C 
ATOM     18  C   UNL     1       4.956   3.014  -2.369  0.00  0.00    +0.002 C 
ATOM     19  C   UNL     1       5.929   3.505  -3.458  0.00  0.00    +0.000 C 
ATOM     20  C   UNL     1       7.016   2.468  -3.800  0.00  0.00    +0.000 C 
ATOM     21  C   UNL     1       7.568   1.788  -2.576  0.00  0.00    +0.002 C 
ATOM     22  C   UNL     1       6.790   0.475  -2.353  0.00  0.00    +0.020 C 
ENDBRANCH  14  16
ENDBRANCH   1  14
TORSDOF 4
