REMARK  Name = ZINC06490027
REMARK  8 active torsions:
REMARK  status: ('A' for Active; 'I' for Inactive)
REMARK    1  A    between atoms: C_1  and  C_2
REMARK    2  A    between atoms: C_2  and  N_3
REMARK    3  A    between atoms: C_4  and  C_35
REMARK    4  A    between atoms: C_5  and  C_8
REMARK    5  A    between atoms: C_19  and  O_34
REMARK    6  A    between atoms: C_23  and  C_33
REMARK    7  A    between atoms: C_28  and  C_32
REMARK    8  A    between atoms: C_29  and  O_31
REMARK                            x       y       z     vdW  Elec       q    Type
REMARK                         _______ _______ _______ _____ _____    ______ ____
ROOT
ATOM      1  C   UNL     1       4.319   1.924  -2.423  0.00  0.00    +0.013 C 
ATOM      2  C   UNL     1       3.500   2.009  -1.381  0.00  0.00    -0.040 C 
ATOM      3  C   UNL     1       3.913   2.087   0.073  0.00  0.00    +0.037 C 
ATOM      4  C   UNL     1       2.687   1.609   0.890  0.00  0.00    +0.005 C 
ATOM      5  C   UNL     1       2.838   0.111   1.123  0.00  0.00    +0.001 C 
ATOM      6  C   UNL     1       3.398  -0.588  -0.115  0.00  0.00    +0.031 C 
ATOM      7  C   UNL     1       3.440  -2.070   0.119  0.00  0.00    -0.027 C 
ATOM      8  C   UNL     1       2.681  -2.686   0.976  0.00  0.00    -0.065 C 
ATOM      9  C   UNL     1       2.828  -4.193   1.100  0.00  0.00    +0.062 C 
ATOM     10  C   UNL     1       1.441  -4.828   0.967  0.00  0.00    +0.119 C 
ATOM     11  C   UNL     1       0.501  -4.221   2.007  0.00  0.00    +0.032 C 
ATOM     12  C   UNL     1       0.329  -2.723   1.757  0.00  0.00    +0.014 C 
ATOM     13  C   UNL     1       1.671  -1.997   1.845  0.00  0.00    -0.008 C 
ATOM     14  C   UNL     1       1.505  -0.525   1.506  0.00  0.00    +0.003 C 
ATOM     15  C   UNL     1       0.533  -0.332   0.339  0.00  0.00    +0.005 C 
ATOM     16  C   UNL     1       0.252   1.159   0.195  0.00  0.00    +0.010 C 
ATOM     17  C   UNL     1       1.492   2.001   0.022  0.00  0.00    +0.001 C 
ATOM     18  C   UNL     1       1.986   2.051  -1.430  0.00  0.00    +0.147 C 
ATOM     19  C   UNL     1       1.095   3.447   0.414  0.00  0.00    +0.014 C 
ATOM     20  C   UNL     1       2.160  -2.077   3.298  0.00  0.00    +0.016 C 
ENDROOT
BRANCH   1  23
ATOM     21  N   UNL     1       3.493   1.784  -5.951  0.00  0.00    -0.268 N 
ATOM     22  C   UNL     1       4.252   1.400  -4.906  0.00  0.00    +0.043 A 
ATOM     23  C   UNL     1       3.784   2.046  -3.796  0.00  0.00    +0.015 A 
ATOM     24  C   UNL     1       2.695   2.846  -4.199  0.00  0.00    +0.142 A 
ATOM     25  N   UNL     1       2.531   2.689  -5.486  0.00  0.00    -0.179 NA
ATOM     26  C   UNL     1       5.407   0.433  -4.952  0.00  0.00    +0.066 C 
BRANCH  21  28
ATOM     27  C   UNL     1       2.797   0.083  -7.564  0.00  0.00    +0.029 C 
ATOM     28  C   UNL     1       3.648   1.333  -7.337  0.00  0.00    +0.140 C 
ENDBRANCH  21  28
ENDBRANCH   1  23
BRANCH  18  29
ATOM     29  O   UNL     1       1.464   0.969  -2.202  0.00  0.00    -0.387 OA
ATOM     30  H   UNL     1       1.845   0.897  -3.087  0.00  0.00    +0.210 HD
ENDBRANCH  18  29
BRANCH  10  31
ATOM     31  O   UNL     1       0.928  -4.589  -0.344  0.00  0.00    -0.391 OA
ATOM     32  H   UNL     1       1.476  -4.952  -1.053  0.00  0.00    +0.210 HD
ENDBRANCH  10  31
TORSDOF 4
