REMARK  Name = ZINC12662475
REMARK  13 active torsions:
REMARK  status: ('A' for Active; 'I' for Inactive)
REMARK    1  A    between atoms: C_1  and  C_2
REMARK    2  A    between atoms: C_2  and  C_35
REMARK    3  A    between atoms: C_8  and  C_31
REMARK    4  A    between atoms: C_10  and  C_11
REMARK    5  A    between atoms: C_11  and  C_14
REMARK    6  A    between atoms: N_12  and  O_13
REMARK    7  A    between atoms: C_14  and  C_15
REMARK    8  A    between atoms: C_22  and  O_23
REMARK    9  A    between atoms: O_23  and  C_24
REMARK   10  A    between atoms: C_30  and  N_73
REMARK   11  A    between atoms: C_31  and  C_32
REMARK   12  A    between atoms: C_31  and  C_33
REMARK   13  A    between atoms: C_31  and  C_34
REMARK                            x       y       z     vdW  Elec       q    Type
REMARK                         _______ _______ _______ _____ _____    ______ ____
ROOT
ATOM      1  C   UNL     1       0.008   1.473   0.080  0.00  0.00    +0.086 C 
ATOM      2  N   UNL     1      -1.100   2.130   0.190  0.00  0.00    -0.092 NA
ENDROOT
BRANCH   1  12
ATOM      3  C   UNL     1      -0.068  -3.800  -2.781  0.00  0.00    +0.016 C 
ATOM      4  C   UNL     1       0.834  -2.646  -2.339  0.00  0.00    -0.009 C 
ATOM      5  C   UNL     1       0.709  -1.462  -3.321  0.00  0.00    +0.016 C 
ATOM      6  C   UNL     1       0.855  -0.242  -2.387  0.00  0.00    +0.037 C 
ATOM      7  C   UNL     1       0.386  -0.724  -1.031  0.00  0.00    -0.035 A 
ATOM      8  C   UNL     1       0.374  -2.103  -1.002  0.00  0.00    -0.038 A 
ATOM      9  C   UNL     1      -0.023  -2.768   0.147  0.00  0.00    +0.008 A 
ATOM     10  C   UNL     1      -0.408  -2.060   1.270  0.00  0.00    -0.041 A 
ATOM     11  C   UNL     1      -0.396  -0.681   1.257  0.00  0.00    +0.014 A 
ATOM     12  C   UNL     1      -0.003  -0.003   0.102  0.00  0.00    +0.003 A 
ATOM     13  C   UNL     1       2.288  -3.113  -2.252  0.00  0.00    +0.016 C 
BRANCH  10  14
ATOM     14  C   UNL     1      -0.837  -2.797   2.513  0.00  0.00    -0.013 C 
ATOM     15  C   UNL     1       0.313  -3.677   3.007  0.00  0.00    +0.015 C 
ATOM     16  C   UNL     1      -1.210  -1.787   3.601  0.00  0.00    +0.015 C 
ATOM     17  C   UNL     1      -2.050  -3.673   2.194  0.00  0.00    +0.015 C 
ENDBRANCH  10  14
ENDBRANCH   1  12
BRANCH   2  18
ATOM     18  O   UNL     1      -2.311   1.439   0.438  0.00  0.00    -0.409 OA
ATOM     19  H   UNL     1      -3.096   2.004   0.428  0.00  0.00    +0.328 HD
ENDBRANCH   2  18
BRANCH   1  20
ATOM     20  C   UNL     1       1.311   2.215  -0.079  0.00  0.00    +0.049 C 
BRANCH  20  21
ATOM     21  C   UNL     1       1.063   3.717   0.065  0.00  0.00    -0.028 C 
ATOM     22  C   UNL     1       0.367   3.984   1.374  0.00  0.00    -0.012 A 
ATOM     23  C   UNL     1      -0.677   4.879   1.475  0.00  0.00    -0.040 A 
ATOM     24  C   UNL     1      -1.286   5.098   2.701  0.00  0.00    +0.053 A 
ATOM     25  C   UNL     1      -0.857   4.421   3.830  0.00  0.00    +0.170 A 
ATOM     26  C   UNL     1       0.195   3.516   3.733  0.00  0.00    +0.208 A 
ATOM     27  C   UNL     1       0.803   3.300   2.505  0.00  0.00    +0.167 A 
ATOM     28  O   UNL     1       0.429   2.984   4.969  0.00  0.00    -0.449 OA
ATOM     29  C   UNL     1      -0.753   3.268   5.740  0.00  0.00    +0.467 C 
ATOM     30  O   UNL     1      -1.282   4.458   5.127  0.00  0.00    -0.452 OA
ATOM     31  C   UNL     1      -1.185   5.639   0.276  0.00  0.00    +0.017 C 
ATOM     32  C   UNL     1      -0.155   5.584  -0.853  0.00  0.00    -0.074 C 
ATOM     33  C   UNL     1       0.948   4.014  -2.333  0.00  0.00    -0.095 C 
ATOM     34  N   UNL     1       0.219   4.170  -1.054  0.00  0.00    +0.383 N 
ATOM     35  H   UNL     1      -0.634   3.599  -1.084  0.00  0.00    -0.081 HD
BRANCH  27  36
ATOM     36  O   UNL     1       1.832   2.416   2.406  0.00  0.00    -0.491 OA
ATOM     37  C   UNL     1       3.139   2.904   2.716  0.00  0.00    +0.277 C 
ENDBRANCH  27  36
ENDBRANCH  20  21
ENDBRANCH   1  20
TORSDOF 6
