REMARK  Name = ZINC04331777
REMARK  14 active torsions:
REMARK  status: ('A' for Active; 'I' for Inactive)
REMARK    1  A    between atoms: C_1  and  C_2
REMARK    2  A    between atoms: C_2  and  C_3
REMARK    3  A    between atoms: C_3  and  C_4
REMARK    4  A    between atoms: C_4  and  O_33
REMARK    5  A    between atoms: C_5  and  C_32
REMARK    6  A    between atoms: C_7  and  C_23
REMARK    7  A    between atoms: C_9  and  C_14
REMARK    8  A    between atoms: C_11  and  C_13
REMARK    9  A    between atoms: C_17  and  N_20
REMARK   10  A    between atoms: N_20  and  C_21
REMARK   11  A    between atoms: N_20  and  C_22
REMARK   12  A    between atoms: C_26  and  N_29
REMARK   13  A    between atoms: N_29  and  C_30
REMARK   14  A    between atoms: N_29  and  C_31
REMARK                            x       y       z     vdW  Elec       q    Type
REMARK                         _______ _______ _______ _____ _____    ______ ____
ROOT
ATOM      1  C   UNL     1       0.237   1.012  -0.288  0.00  0.00    +0.069 C 
ATOM      2  C   UNL     1      -0.508   1.638  -1.470  0.00  0.00    +0.008 C 
ATOM      3  C   UNL     1       0.379   1.581  -2.715  0.00  0.00    -0.034 C 
ATOM      4  C   UNL     1       2.385   1.697  -1.361  0.00  0.00    -0.034 C 
ATOM      5  C   UNL     1       1.558   1.757  -0.075  0.00  0.00    +0.008 C 
ATOM      6  C   UNL     1       2.337   1.100   1.066  0.00  0.00    +0.009 C 
ATOM      7  C   UNL     1      -0.843   3.096  -1.147  0.00  0.00    +0.009 C 
ATOM      8  N   UNL     1       1.633   2.319  -2.467  0.00  0.00    +0.389 N 
ATOM      9  H   UNL     1       1.410   3.291  -2.220  0.00  0.00    -0.084 HD
ATOM     10  H   UNL     1       2.208   2.305  -3.317  0.00  0.00    -0.084 HD
ENDROOT
BRANCH   4  11
ATOM     11  C   UNL     1       2.686   0.259  -1.697  0.00  0.00    -0.061 A 
ATOM     12  C   UNL     1       3.256  -0.567  -0.746  0.00  0.00    +0.004 A 
ATOM     13  C   UNL     1       3.528  -1.887  -1.050  0.00  0.00    +0.023 A 
ATOM     14  C   UNL     1       3.238  -2.381  -2.316  0.00  0.00    +0.029 A 
ATOM     15  C   UNL     1       2.671  -1.546  -3.270  0.00  0.00    +0.023 A 
ATOM     16  C   UNL     1       2.397  -0.229  -2.958  0.00  0.00    +0.004 A 
BRANCH  14  17
ATOM     17  N   UNL     1       3.517  -3.713  -2.628  0.00  0.00    -0.336 N 
ATOM     18  C   UNL     1       3.327  -4.200  -3.996  0.00  0.00    +0.129 C 
ATOM     19  C   UNL     1       4.001  -4.624  -1.587  0.00  0.00    +0.129 C 
ENDBRANCH  14  17
ENDBRANCH   4  11
BRANCH   3  20
ATOM     20  C   UNL     1      -0.343   2.215  -3.876  0.00  0.00    -0.061 A 
ATOM     21  C   UNL     1      -0.377   3.592  -3.999  0.00  0.00    +0.004 A 
ATOM     22  C   UNL     1      -1.034   4.176  -5.064  0.00  0.00    +0.023 A 
ATOM     23  C   UNL     1      -1.670   3.378  -6.007  0.00  0.00    +0.029 A 
ATOM     24  C   UNL     1      -1.639   1.996  -5.878  0.00  0.00    +0.023 A 
ATOM     25  C   UNL     1      -0.976   1.418  -4.812  0.00  0.00    +0.004 A 
BRANCH  23  26
ATOM     26  N   UNL     1      -2.340   3.965  -7.083  0.00  0.00    -0.336 N 
ATOM     27  C   UNL     1      -3.105   3.131  -8.013  0.00  0.00    +0.129 C 
ATOM     28  C   UNL     1      -2.278   5.415  -7.281  0.00  0.00    +0.129 C 
ENDBRANCH  23  26
ENDBRANCH   3  20
BRANCH   1  29
ATOM     29  O   UNL     1       0.506  -0.364  -0.568  0.00  0.00    -0.388 OA
ATOM     30  H   UNL     1      -0.287  -0.897  -0.714  0.00  0.00    +0.210 HD
ENDBRANCH   1  29
BRANCH   1  31
ATOM     31  C   UNL     1      -0.620   1.119   0.975  0.00  0.00    +0.035 C 
BRANCH  31  33
ATOM     32  C   UNL     1      -2.798   0.483   2.022  0.00  0.00    +0.004 C 
ATOM     33  C   UNL     1      -1.940   0.376   0.759  0.00  0.00    -0.001 C 
ENDBRANCH  31  33
ENDBRANCH   1  31
TORSDOF 7
