REMARK  Name = ZINC11865475
REMARK  9 active torsions:
REMARK  status: ('A' for Active; 'I' for Inactive)
REMARK    1  A    between atoms: C_1  and  C_2
REMARK    2  A    between atoms: C_12  and  C_13
REMARK    3  A    between atoms: C_13  and  C_14
REMARK    4  A    between atoms: N_16  and  CA_17
REMARK    5  A    between atoms: CA_17  and  CB_19
REMARK    6  A    between atoms: CA_17  and  C_22
REMARK    7  A    between atoms: CB_19  and  CG1_20
REMARK    8  A    between atoms: CB_19  and  CG2_21
REMARK    9  A    between atoms: C_26  and  C_27
REMARK                            x       y       z     vdW  Elec       q    Type
REMARK                         _______ _______ _______ _____ _____    ______ ____
ROOT
ATOM      1  C   UNK A   0      -0.018   1.503   0.010  0.00  0.00    +0.045 C 
ATOM      2  C   UNK A   0       0.002  -0.004   0.002  0.00  0.00    -0.029 A 
ATOM      3  C   UNK A   0       0.024  -0.764   1.256  0.00  0.00    +0.022 A 
ATOM      4  C   UNK A   0       0.027  -0.108   2.488  0.00  0.00    +0.024 A 
ATOM      5  C   UNK A   0       0.047  -0.856   3.654  0.00  0.00    +0.029 A 
ATOM      6  C   UNK A   0       0.066  -2.264   3.602  0.00  0.00    +0.139 A 
ATOM      7  C   UNK A   0       0.063  -2.909   2.374  0.00  0.00    +0.093 A 
ATOM      8  C   UNK A   0       0.043  -2.172   1.202  0.00  0.00    +0.143 A 
ATOM      9  O   UNK A   0       0.039  -2.796   0.002  0.00  0.00    -0.422 OA
ATOM     10  C   UNK A   0       0.019  -2.106  -1.147  0.00  0.00    +0.341 A 
ATOM     11  O   UNK A   0       0.016  -2.712  -2.203  0.00  0.00    -0.245 OA
ATOM     12  C   UNK A   0      -0.005  -0.695  -1.166  0.00  0.00    +0.049 A 
ATOM     13  O   UNK A   0       0.083  -2.713   4.874  0.00  0.00    -0.462 OA
ATOM     14  C   UNK A   0       0.077  -1.694   5.750  0.00  0.00    +0.204 A 
ATOM     15  C   UNK A   0       0.056  -0.515   5.090  0.00  0.00    +0.028 A 
ENDROOT
BRANCH  15  16
ATOM     16  C   UNK A   0       0.042   0.842   5.687  0.00  0.00    -0.014 A 
ATOM     17  C   UNK A   0       0.953   1.805   5.254  0.00  0.00    +0.011 A 
ATOM     18  C   UNK A   0       0.933   3.068   5.808  0.00  0.00    +0.039 A 
ATOM     19  C   UNK A   0       0.018   3.378   6.801  0.00  0.00    +0.123 A 
ATOM     20  C   UNK A   0      -0.886   2.422   7.238  0.00  0.00    +0.039 A 
ATOM     21  C   UNK A   0      -0.877   1.158   6.686  0.00  0.00    +0.011 A 
ATOM     22  F   UNK A   0       0.006   4.614   7.345  0.00  0.00    -0.205 F 
ENDBRANCH  15  16
BRANCH  12  23
ATOM     23  C   UNK A   0      -0.034   0.043  -2.480  0.00  0.00    +0.138 C 
BRANCH  23  24
ATOM     24  C   UNK A   0       1.377   0.308  -2.938  0.00  0.00    +0.218 C 
ATOM     25  O   UNK A   0       2.313  -0.065  -2.265  0.00  0.00    -0.275 OA
ATOM     26  N   VAL A   1       1.597   0.960  -4.097  0.00  0.00    -0.302 N 
ATOM     27  H   VAL A   1       0.848   1.259  -4.636  0.00  0.00    +0.150 HD
BRANCH  26  28
ATOM     28  CA  VAL A   1       2.969   1.218  -4.543  0.00  0.00    +0.189 C 
BRANCH  28  29
ATOM     29  CB  VAL A   1       2.984   2.437  -5.468  0.00  0.00    +0.014 C 
ATOM     30  CG1 VAL A   1       2.456   3.657  -4.711  0.00  0.00    +0.009 C 
ATOM     31  CG2 VAL A   1       4.417   2.706  -5.933  0.00  0.00    +0.009 C 
ENDBRANCH  28  29
BRANCH  28  32
ATOM     32  C   VAL A   1       3.490   0.016  -5.287  0.00  0.00    +0.376 C 
ATOM     33  O   VAL A   1       2.787  -0.957  -5.431  0.00  0.00    -0.244 OA
ATOM     34  OXT VAL A   1       4.734   0.025  -5.791  0.00  0.00    -0.244 OA
ENDBRANCH  28  32
ENDBRANCH  26  28
ENDBRANCH  23  24
ENDBRANCH  12  23
TORSDOF 6
