REMARK  Name = ZINC36945651
REMARK  5 active torsions:
REMARK  status: ('A' for Active; 'I' for Inactive)
REMARK    1  A    between atoms: C_1  and  C_2
REMARK    2  A    between atoms: C_2  and  C_4
REMARK    3  A    between atoms: C_2  and  N_11
REMARK    4  A    between atoms: N_11  and  C_12
REMARK    5  A    between atoms: C_21  and  O_22
REMARK                            x       y       z     vdW  Elec       q    Type
REMARK                         _______ _______ _______ _____ _____    ______ ____
ROOT
ATOM      1  N   UNL     1       0.582  -0.479  -1.261  0.00  0.00    +0.388 N 
ATOM      2  H   UNL     1       1.530  -0.151  -1.365  0.00  0.00    -0.084 HD
ATOM      3  H   UNL     1       0.575  -1.488  -1.252  0.00  0.00    -0.084 HD
ENDROOT
BRANCH   1   4
ATOM      4  C   UNL     1      -0.230   0.006  -2.386  0.00  0.00    -0.039 C 
ATOM      5  C   UNL     1       0.016   1.513  -2.613  0.00  0.00    -0.006 C 
ATOM      6  C   UNL     1      -0.094   1.638  -4.147  0.00  0.00    +0.038 C 
ATOM      7  C   UNL     1       0.279   0.273  -4.684  0.00  0.00    -0.004 A 
ATOM      8  C   UNL     1       0.200  -0.667  -3.672  0.00  0.00    -0.055 A 
ATOM      9  C   UNL     1       0.497  -1.993  -3.935  0.00  0.00    +0.002 A 
ATOM     10  C   UNL     1       0.873  -2.386  -5.205  0.00  0.00    +0.004 A 
ATOM     11  C   UNL     1       0.953  -1.454  -6.221  0.00  0.00    +0.046 A 
ATOM     12  C   UNL     1       0.659  -0.119  -5.962  0.00  0.00    +0.120 A 
BRANCH  12  13
ATOM     13  O   UNL     1       0.736   0.801  -6.959  0.00  0.00    -0.506 OA
ATOM     14  H   UNL     1       1.604   1.218  -7.043  0.00  0.00    +0.292 HD
ENDBRANCH  12  13
ENDBRANCH   1   4
BRANCH   1  16
ATOM     15  C   UNL     1       0.221   1.542   0.073  0.00  0.00    -0.009 C 
ATOM     16  C   UNL     1       0.024   0.027  -0.000  0.00  0.00    -0.042 C 
BRANCH  16  17
ATOM     17  C   UNL     1       0.729  -0.628   1.160  0.00  0.00    -0.048 A 
ATOM     18  C   UNL     1       2.013  -1.114   1.003  0.00  0.00    +0.003 A 
ATOM     19  C   UNL     1       2.660  -1.714   2.067  0.00  0.00    +0.000 A 
ATOM     20  C   UNL     1       2.023  -1.829   3.288  0.00  0.00    +0.001 A 
ATOM     21  C   UNL     1       0.739  -1.343   3.446  0.00  0.00    +0.015 A 
ATOM     22  C   UNL     1       0.093  -0.738   2.383  0.00  0.00    +0.019 A 
ATOM     23 BR   UNL     1      -1.662  -0.067   2.600  0.00  0.00    -0.050 Br
ENDBRANCH  16  17
ENDBRANCH   1  16
TORSDOF 4
