REMARK  Name = ZINC39948760
REMARK  8 active torsions:
REMARK  status: ('A' for Active; 'I' for Inactive)
REMARK    1  A    between atoms: C_1  and  C_2
REMARK    2  A    between atoms: C_3  and  C_14
REMARK    3  A    between atoms: N_5  and  C_7
REMARK    4  A    between atoms: N_15  and  N_16
REMARK    5  A    between atoms: C_17  and  C_19
REMARK    6  A    between atoms: C_20  and  C_30
REMARK    7  A    between atoms: C_30  and  N_31
REMARK    8  A    between atoms: C_36  and  C_38
REMARK                            x       y       z     vdW  Elec       q    Type
REMARK                         _______ _______ _______ _____ _____    ______ ____
ROOT
ATOM      1  C   UNL     1       0.464  -4.930  -3.899  0.00  0.00    +0.170 A 
ATOM      2  C   UNL     1       0.778  -5.918  -4.788  0.00  0.00    +0.063 A 
ATOM      3  N   UNL     1       0.796  -7.077  -4.093  0.00  0.00    -0.194 N 
ATOM      4  N   UNL     1       0.484  -6.757  -2.764  0.00  0.00    -0.058 NA
ATOM      5  N   UNL     1       0.301  -5.485  -2.685  0.00  0.00    -0.124 NA
ATOM      6  C   UNL     1       1.072  -8.351  -4.602  0.00  0.00    +0.240 A 
ATOM      7  C   UNL     1       1.081  -9.599  -3.833  0.00  0.00    +0.206 A 
ATOM      8  N   UNL     1       1.379 -10.578  -4.642  0.00  0.00    -0.032 NA
ATOM      9  O   UNL     1       1.572 -10.029  -5.934  0.00  0.00    -0.239 OA
ATOM     10  N   UNL     1       1.359  -8.632  -5.841  0.00  0.00    -0.027 NA
ATOM     11  N   UNL     1       0.818  -9.718  -2.473  0.00  0.00    -0.337 N 
ATOM     12  H   UNL     1       0.604  -8.930  -1.949  0.00  0.00    +0.144 HD
ATOM     13  H   UNL     1       0.847 -10.590  -2.048  0.00  0.00    +0.144 HD
ENDROOT
BRANCH   1  15
ATOM     14  N   UNL     1      -0.099  -2.634  -3.272  0.00  0.00    -0.202 N 
ATOM     15  C   UNL     1       0.332  -3.495  -4.215  0.00  0.00    +0.285 C 
ATOM     16  O   UNL     1       0.611  -3.090  -5.327  0.00  0.00    -0.267 OA
ATOM     17  H   UNL     1      -0.391  -2.966  -2.409  0.00  0.00    +0.178 HD
BRANCH  14  19
ATOM     18  C   UNL     1      -0.431  -0.421  -2.596  0.00  0.00    +0.143 C 
ATOM     19  N   UNL     1      -0.125  -1.259  -3.539  0.00  0.00    -0.187 NA
BRANCH  18  22
ATOM     20  C   UNL     1      -3.020  -0.001  -0.814  0.00  0.00    +0.068 C 
ATOM     21  C   UNL     1      -1.760  -0.721  -0.409  0.00  0.00    +0.070 A 
ATOM     22  C   UNL     1      -0.613  -0.900  -1.214  0.00  0.00    +0.054 A 
ATOM     23  C   UNL     1       0.305  -1.609  -0.465  0.00  0.00    +0.142 A 
ATOM     24  N   UNL     1      -0.258  -1.849   0.739  0.00  0.00    -0.221 N 
ATOM     25  N   UNL     1      -1.537  -1.282   0.749  0.00  0.00    -0.170 NA
ATOM     26 CL   UNL     1       1.890  -2.100  -0.977  0.00  0.00    -0.061 Cl
BRANCH  24  27
ATOM     27  C   UNL     1       0.340  -2.544   1.800  0.00  0.00    +0.067 A 
ATOM     28  C   UNL     1       1.189  -3.612   1.542  0.00  0.00    +0.028 A 
ATOM     29  C   UNL     1       1.776  -4.294   2.589  0.00  0.00    +0.002 A 
ATOM     30  C   UNL     1       1.520  -3.914   3.894  0.00  0.00    +0.000 A 
ATOM     31  C   UNL     1       0.675  -2.851   4.154  0.00  0.00    +0.002 A 
ATOM     32  C   UNL     1       0.089  -2.161   3.111  0.00  0.00    +0.028 A 
ENDBRANCH  24  27
ENDBRANCH  18  22
ENDBRANCH  14  19
ENDBRANCH   1  15
BRANCH   2  33
ATOM     33  C   UNL     1       1.051  -5.748  -6.260  0.00  0.00    -0.019 C 
BRANCH  33  34
ATOM     34  N   UNL     1      -0.206  -5.877  -7.009  0.00  0.00    +0.385 N 
ATOM     35  C   UNL     1      -1.107  -4.777  -6.644  0.00  0.00    -0.078 C 
ATOM     36  C   UNL     1      -2.448  -4.951  -7.360  0.00  0.00    -0.019 C 
ATOM     37  C   UNL     1      -2.217  -4.942  -8.873  0.00  0.00    -0.003 C 
ATOM     38  C   UNL     1      -1.219  -6.046  -9.234  0.00  0.00    -0.016 C 
ATOM     39  C   UNL     1       0.077  -5.831  -8.449  0.00  0.00    -0.071 C 
ATOM     40  C   UNL     1       1.077  -6.932  -8.806  0.00  0.00    -0.013 C 
ATOM     41  H   UNL     1      -0.644  -6.757  -6.781  0.00  0.00    -0.081 HD
ENDBRANCH  33  34
ENDBRANCH   2  33
TORSDOF 6
