REMARK  Name = ZINC26509150
REMARK  6 active torsions:
REMARK  status: ('A' for Active; 'I' for Inactive)
REMARK    1  A    between atoms: C_1  and  C_2
REMARK    2  A    between atoms: C_7  and  C_8
REMARK    3  A    between atoms: C_10  and  C_12
REMARK    4  A    between atoms: C_14  and  N_21
REMARK    5  A    between atoms: C_15  and  O_19
REMARK    6  A    between atoms: O_19  and  C_20
REMARK                            x       y       z     vdW  Elec       q    Type
REMARK                         _______ _______ _______ _____ _____    ______ ____
ROOT
ATOM      1  C   UNL     1       5.926   0.752  -0.052  0.00  0.00    +0.040 A 
ATOM      2  C   UNL     1       6.636  -0.450  -0.066  0.00  0.00    +0.039 A 
ATOM      3  C   UNL     1       8.020  -0.433  -0.080  0.00  0.00    +0.069 A 
ATOM      4  C   UNL     1       8.701   0.785  -0.081  0.00  0.00    +0.155 A 
ATOM      5  C   UNL     1       7.994   1.978  -0.068  0.00  0.00    +0.062 A 
ATOM      6  C   UNL     1       6.614   1.967  -0.059  0.00  0.00    +0.032 A 
ATOM      7 BR   UNL     1       8.923   3.625  -0.068  0.00  0.00    -0.046 Br
ENDROOT
BRANCH   1  17
ATOM      8  C   UNL     1      -1.296  -0.770   0.010  0.00  0.00    +0.044 C 
ATOM      9  C   UNL     1       0.002  -0.004   0.002  0.00  0.00    -0.045 A 
ATOM     10  C   UNL     1       1.199  -0.685  -0.013  0.00  0.00    +0.035 A 
ATOM     11  C   UNL     1       2.401   0.026  -0.021  0.00  0.00    +0.110 A 
ATOM     12  C   UNL     1       2.377   1.431  -0.013  0.00  0.00    +0.156 A 
ATOM     13  C   UNL     1       1.163   2.099   0.002  0.00  0.00    +0.052 A 
ATOM     14  C   UNL     1      -0.017   1.383   0.010  0.00  0.00    -0.044 A 
ATOM     15  C   UNL     1      -1.335   2.112   0.020  0.00  0.00    +0.044 C 
ATOM     16  O   UNL     1       3.667   1.835  -0.024  0.00  0.00    -0.435 OA
ATOM     17  C   UNL     1       4.449   0.739  -0.037  0.00  0.00    +0.228 A 
ATOM     18  N   UNL     1       3.708  -0.341  -0.036  0.00  0.00    -0.209 NA
ENDBRANCH   1  17
BRANCH   3  19
ATOM     19  N   UNL     1       8.735  -1.636  -0.095  0.00  0.00    -0.355 N 
ATOM     20  H   UNL     1       9.835  -1.621  -0.106  0.00  0.00    +0.142 HD
ATOM     21  H   UNL     1       8.198  -2.595  -0.094  0.00  0.00    +0.142 HD
ENDBRANCH   3  19
BRANCH   4  22
ATOM     22  O   UNL     1      10.060   0.801  -0.096  0.00  0.00    -0.492 OA
ATOM     23  C   UNL     1      10.695   0.816  -1.376  0.00  0.00    +0.277 C 
ENDBRANCH   4  22
TORSDOF 3
