REMARK  Name = ZINC02156868
REMARK  9 active torsions:
REMARK  status: ('A' for Active; 'I' for Inactive)
REMARK    1  A    between atoms: C_1  and  O_2
REMARK    2  A    between atoms: O_2  and  C_3
REMARK    3  A    between atoms: C_7  and  C_11
REMARK    4  A    between atoms: C_8  and  O_9
REMARK    5  A    between atoms: O_9  and  C_10
REMARK    6  A    between atoms: N_30  and  C_33
REMARK    7  A    between atoms: C_33  and  C_34
REMARK    8  A    between atoms: C_34  and  C_35
REMARK    9  A    between atoms: C_35  and  O_36
REMARK                            x       y       z     vdW  Elec       q    Type
REMARK                         _______ _______ _______ _____ _____    ______ ____
ROOT
ATOM      1  C   UNL     1       1.329  -4.110  -2.298  0.00  0.00    +0.158 C 
ATOM      2  C   UNL     1       2.533  -4.623  -1.540  0.00  0.00    +0.046 A 
ATOM      3  C   UNL     1       3.637  -5.117  -2.142  0.00  0.00    -0.015 A 
ATOM      4  C   UNL     1       4.558  -5.496  -1.090  0.00  0.00    +0.003 A 
ATOM      5  C   UNL     1       5.841  -6.052  -1.108  0.00  0.00    +0.010 A 
ATOM      6  C   UNL     1       6.432  -6.289   0.108  0.00  0.00    +0.001 A 
ATOM      7  C   UNL     1       5.798  -5.995   1.304  0.00  0.00    +0.002 A 
ATOM      8  C   UNL     1       4.530  -5.443   1.352  0.00  0.00    +0.026 A 
ATOM      9  C   UNL     1       3.905  -5.191   0.132  0.00  0.00    +0.047 A 
ATOM     10  N   UNL     1       2.685  -4.664  -0.180  0.00  0.00    -0.356 N 
ATOM     11  H   UNL     1       2.025  -4.364   0.465  0.00  0.00    +0.166 HD
ATOM     12  C   UNL     1       3.821  -5.238  -3.633  0.00  0.00    +0.069 C 
ATOM     13  C   UNL     1       2.791  -4.342  -4.335  0.00  0.00    +0.167 C 
ATOM     14  N   UNL     1       1.482  -4.528  -3.708  0.00  0.00    -0.276 N 
ATOM     15  C   UNL     1       0.434  -5.056  -4.343  0.00  0.00    +0.234 C 
ATOM     16  O   UNL     1      -0.585  -5.229  -3.707  0.00  0.00    -0.274 OA
ATOM     17  C   UNL     1       0.430  -5.448  -5.785  0.00  0.00    +0.203 C 
ATOM     18  N   UNL     1       1.698  -5.158  -6.433  0.00  0.00    -0.291 N 
ATOM     19  C   UNL     1       2.750  -4.673  -5.793  0.00  0.00    +0.237 C 
ATOM     20  O   UNL     1       3.751  -4.477  -6.448  0.00  0.00    -0.274 OA
ENDROOT
BRANCH   1  25
ATOM     21  C   UNL     1       0.097  -0.594  -1.626  0.00  0.00    +0.162 A 
ATOM     22  C   UNL     1       1.176   0.159  -2.059  0.00  0.00    +0.049 A 
ATOM     23  C   UNL     1       2.299  -0.469  -2.566  0.00  0.00    +0.004 A 
ATOM     24  C   UNL     1       2.347  -1.849  -2.642  0.00  0.00    +0.010 A 
ATOM     25  C   UNL     1       1.273  -2.606  -2.212  0.00  0.00    +0.024 A 
ATOM     26  C   UNL     1       0.148  -1.983  -1.698  0.00  0.00    +0.167 A 
BRANCH  21  28
ATOM     27  C   UNL     1      -0.990   1.451  -1.083  0.00  0.00    +0.277 C 
ATOM     28  O   UNL     1      -1.008   0.022  -1.127  0.00  0.00    -0.491 OA
ENDBRANCH  21  28
BRANCH  26  29
ATOM     29  O   UNL     1      -0.907  -2.727  -1.268  0.00  0.00    -0.491 OA
ATOM     30  C   UNL     1      -1.915  -3.040  -2.232  0.00  0.00    +0.277 C 
ENDBRANCH  26  29
ENDBRANCH   1  25
BRANCH  18  31
ATOM     31  C   UNL     1       1.818  -5.428  -7.867  0.00  0.00    +0.110 C 
BRANCH  31  32
ATOM     32  C   UNL     1       1.405  -4.184  -8.657  0.00  0.00    +0.047 C 
BRANCH  32  33
ATOM     33  C   UNL     1       1.530  -4.466 -10.155  0.00  0.00    +0.157 C 
BRANCH  33  34
ATOM     34  O   UNL     1       1.144  -3.304 -10.892  0.00  0.00    -0.395 OA
ATOM     35  H   UNL     1       1.199  -3.411 -11.852  0.00  0.00    +0.209 HD
ENDBRANCH  33  34
ENDBRANCH  32  33
ENDBRANCH  31  32
ENDBRANCH  18  31
TORSDOF 7
