REMARK  Name = ZINC21334052
REMARK  5 active torsions:
REMARK  status: ('A' for Active; 'I' for Inactive)
REMARK    1  A    between atoms: C_1  and  C_2
REMARK    2  A    between atoms: C_2  and  C_20
REMARK    3  A    between atoms: N_3  and  N_4
REMARK    4  A    between atoms: C_8  and  S_11
REMARK    5  A    between atoms: S_11  and  N_14
REMARK                            x       y       z     vdW  Elec       q    Type
REMARK                         _______ _______ _______ _____ _____    ______ ____
ROOT
ATOM      1  N   UNL     1       6.028  -0.720  -0.077  0.00  0.00    -0.221 N 
ATOM      2  C   UNL     1       7.223  -0.011  -0.087  0.00  0.00    +0.138 A 
ATOM      3  C   UNL     1       8.432  -0.699  -0.107  0.00  0.00    +0.047 A 
ATOM      4  C   UNL     1       9.614   0.019  -0.118  0.00  0.00    +0.033 A 
ATOM      5  C   UNL     1       9.547   1.406  -0.108  0.00  0.00    +0.124 A 
ATOM      6  C   UNL     1       8.313   2.023  -0.089  0.00  0.00    +0.141 A 
ATOM      7  N   UNL     1       7.201   1.313  -0.084  0.00  0.00    -0.237 NA
ATOM      8  H   UNL     1       6.040  -1.820  -0.084  0.00  0.00    +0.176 HD
ENDROOT
BRANCH   1  11
ATOM      9  C   UNL     1       3.707  -2.202  -0.057  0.00  0.00    +0.068 C 
ATOM     10  C   UNL     1       3.690  -0.695  -0.047  0.00  0.00    +0.063 C 
ATOM     11  N   UNL     1       4.806  -0.033  -0.057  0.00  0.00    -0.186 NA
BRANCH  10  12
ATOM     12  C   UNL     1       2.405   0.027  -0.026  0.00  0.00    +0.001 A 
ATOM     13  C   UNL     1       1.202  -0.683  -0.016  0.00  0.00    +0.013 A 
ATOM     14  C   UNL     1       0.002  -0.004   0.002  0.00  0.00    +0.050 A 
ATOM     15  C   UNL     1      -0.017   1.385   0.010  0.00  0.00    +0.162 A 
ATOM     16  C   UNL     1       1.178   2.098   0.002  0.00  0.00    +0.163 A 
ATOM     17  C   UNL     1       2.386   1.424  -0.017  0.00  0.00    +0.059 A 
ATOM     18  O   UNL     1       1.176   3.460   0.018  0.00  0.00    -0.485 OA
ATOM     19  C   UNL     1      -0.050   4.106  -0.339  0.00  0.00    +0.270 C 
ATOM     20  C   UNL     1      -1.196   3.411   0.410  0.00  0.00    +0.270 C 
ATOM     21  O   UNL     1      -1.214   2.033   0.019  0.00  0.00    -0.485 OA
ENDBRANCH  10  12
ENDBRANCH   1  11
BRANCH   5  22
ATOM     22  S   UNL     1      11.024   2.368  -0.122  0.00  0.00    +0.062 S 
ATOM     23  O   UNL     1      10.691   3.630   0.441  0.00  0.00    -0.153 OA
ATOM     24  O   UNL     1      12.051   1.543   0.410  0.00  0.00    -0.153 OA
BRANCH  22  25
ATOM     25  N   UNL     1      11.413   2.645  -1.708  0.00  0.00    -0.177 NA
ATOM     26  C   UNL     1      12.284   1.715  -2.438  0.00  0.00    +0.109 C 
ATOM     27  C   UNL     1      11.566   1.282  -3.726  0.00  0.00    +0.017 C 
ATOM     28  C   UNL     1      11.168   2.527  -4.523  0.00  0.00    +0.003 C 
ATOM     29  C   UNL     1      10.201   3.377  -3.695  0.00  0.00    +0.017 C 
ATOM     30  C   UNL     1      10.899   3.829  -2.409  0.00  0.00    +0.109 C 
ENDBRANCH  22  25
ENDBRANCH   5  22
TORSDOF 4
