REMARK  Name = ZINC20990265
REMARK  5 active torsions:
REMARK  status: ('A' for Active; 'I' for Inactive)
REMARK    1  A    between atoms: C_1  and  C_2
REMARK    2  A    between atoms: C_7  and  S_8
REMARK    3  A    between atoms: S_8  and  N_11
REMARK    4  A    between atoms: N_11  and  C_12
REMARK    5  A    between atoms: C_12  and  C_13
REMARK                            x       y       z     vdW  Elec       q    Type
REMARK                         _______ _______ _______ _____ _____    ______ ____
ROOT
ATOM      1  C   UNL     1       2.054  -0.604  -0.567  0.00  0.00    +0.046 C 
ATOM      2  C   UNL     1       2.569   0.362  -1.603  0.00  0.00    -0.023 A 
ATOM      3  C   UNL     1       3.242  -0.112  -2.708  0.00  0.00    +0.016 A 
ATOM      4  C   UNL     1       3.718   0.780  -3.665  0.00  0.00    +0.011 A 
ATOM      5  C   UNL     1       3.510   2.162  -3.500  0.00  0.00    +0.049 A 
ATOM      6  C   UNL     1       2.823   2.619  -2.381  0.00  0.00    +0.055 A 
ATOM      7  C   UNL     1       2.363   1.724  -1.440  0.00  0.00    +0.110 A 
ATOM      8  N   UNL     1       4.077   2.808  -4.584  0.00  0.00    -0.357 N 
ATOM      9  H   UNL     1       4.031   3.905  -4.656  0.00  0.00    +0.166 HD
ATOM     10  C   UNL     1       4.627   1.925  -5.427  0.00  0.00    +0.028 A 
ATOM     11  C   UNL     1       4.451   0.643  -4.926  0.00  0.00    +0.046 A 
ATOM     12  C   UNL     1       4.931  -0.510  -5.591  0.00  0.00    +0.165 C 
ATOM     13  O   UNL     1       4.732  -1.622  -5.146  0.00  0.00    -0.292 OA
ATOM     14  C   UNL     1       5.703  -0.307  -6.878  0.00  0.00    +0.080 C 
ATOM     15  C   UNL     1       5.182   0.929  -7.611  0.00  0.00    +0.014 C 
ATOM     16  C   UNL     1       5.338   2.178  -6.736  0.00  0.00    +0.054 C 
ENDROOT
BRANCH   7  17
ATOM     17  S   UNL     1       1.499   2.313  -0.022  0.00  0.00    +0.059 S 
ATOM     18  O   UNL     1       0.318   1.530   0.088  0.00  0.00    -0.153 OA
ATOM     19  O   UNL     1       1.467   3.730  -0.126  0.00  0.00    -0.153 OA
BRANCH  17  20
ATOM     20  N   UNL     1       2.429   1.957   1.301  0.00  0.00    -0.186 NA
ATOM     21  H   UNL     1       2.124   1.136   1.967  0.00  0.00    +0.148 HD
BRANCH  20  22
ATOM     22  C   UNL     1       3.747   2.576   1.458  0.00  0.00    +0.141 C 
BRANCH  22  23
ATOM     23  C   UNL     1       4.216   2.406   2.880  0.00  0.00    -0.032 A 
ATOM     24  C   UNL     1       3.913   3.366   3.827  0.00  0.00    +0.008 A 
ATOM     25  C   UNL     1       4.338   3.208   5.133  0.00  0.00    +0.038 A 
ATOM     26  C   UNL     1       5.077   2.093   5.490  0.00  0.00    +0.123 A 
ATOM     27  C   UNL     1       5.384   1.134   4.539  0.00  0.00    +0.038 A 
ATOM     28  C   UNL     1       4.953   1.292   3.236  0.00  0.00    +0.008 A 
ATOM     29  F   UNL     1       5.497   1.940   6.764  0.00  0.00    -0.205 F 
ENDBRANCH  22  23
ENDBRANCH  20  22
ENDBRANCH  17  20
ENDBRANCH   7  17
TORSDOF 4
