REMARK  Name = ZINC56828272
REMARK  5 active torsions:
REMARK  status: ('A' for Active; 'I' for Inactive)
REMARK    1  A    between atoms: C_4  and  C_7
REMARK    2  A    between atoms: C_7  and  C_8
REMARK    3  A    between atoms: C_8  and  C_9
REMARK    4  A    between atoms: N_19  and  C_20
REMARK    5  A    between atoms: C_20  and  C_21
REMARK                            x       y       z     vdW  Elec       q    Type
REMARK                         _______ _______ _______ _____ _____    ______ ____
ROOT
ATOM      1  C   UNL     1       3.705  -2.472  -3.710  0.00  0.00    +0.216 C 
ATOM      2  O   UNL     1       4.071  -1.677  -4.550  0.00  0.00    -0.276 OA
ATOM      3  N   UNL     1       3.933  -3.789  -3.883  0.00  0.00    -0.298 N 
ATOM      4  C   UNL     1       3.490  -4.763  -2.876  0.00  0.00    +0.127 C 
ATOM      5  C   UNL     1       2.606  -5.811  -3.564  0.00  0.00    +0.128 C 
ATOM      6  N   UNL     1       3.302  -6.298  -4.763  0.00  0.00    -0.283 N 
ATOM      7  C   UNL     1       3.745  -5.324  -5.770  0.00  0.00    +0.128 C 
ATOM      8  C   UNL     1       4.624  -4.277  -5.085  0.00  0.00    +0.127 C 
ATOM      9  C   UNL     1       3.530  -7.615  -4.936  0.00  0.00    +0.303 C 
ATOM     10  O   UNL     1       3.245  -8.403  -4.055  0.00  0.00    -0.253 OA
ATOM     11  N   UNL     1       4.074  -8.060  -6.087  0.00  0.00    -0.292 N 
ATOM     12  H   UNL     1       4.368  -7.427  -6.760  0.00  0.00    +0.151 HD
ENDROOT
BRANCH   1  13
ATOM     13  C   UNL     1       2.995  -1.986  -2.473  0.00  0.00    +0.096 C 
BRANCH  13  14
ATOM     14  C   UNL     1       2.865  -0.463  -2.524  0.00  0.00    +0.013 C 
BRANCH  14  18
ATOM     15  C   UNL     1      -0.032   1.524   0.004  0.00  0.00    +0.000 C 
ATOM     16  C   UNL     1       1.404   2.053  -0.002  0.00  0.00    +0.000 C 
ATOM     17  C   UNL     1       2.125   1.560  -1.258  0.00  0.00    +0.003 C 
ATOM     18  C   UNL     1       2.145   0.030  -1.267  0.00  0.00    -0.011 C 
ATOM     19  C   UNL     1       0.709  -0.498  -1.262  0.00  0.00    +0.003 C 
ATOM     20  C   UNL     1      -0.012  -0.005  -0.006  0.00  0.00    +0.000 C 
ENDBRANCH  14  18
ENDBRANCH  13  14
ENDBRANCH   1  13
BRANCH  11  21
ATOM     21  C   UNL     1       4.221  -9.498  -6.319  0.00  0.00    +0.182 C 
BRANCH  21  22
ATOM     22  C   UNL     1       4.851  -9.727  -7.669  0.00  0.00    +0.151 A 
ATOM     23  N   UNL     1       4.222  -9.865  -8.804  0.00  0.00    -0.133 NA
ATOM     24  N   UNL     1       5.072 -10.045  -9.751  0.00  0.00    -0.134 NA
ATOM     25  C   UNL     1       6.284 -10.032  -9.262  0.00  0.00    +0.134 A 
ATOM     26  N   UNL     1       6.179  -9.822  -7.931  0.00  0.00    -0.313 N 
ATOM     27  C   UNL     1       7.501  -9.777  -7.296  0.00  0.00    +0.125 C 
ATOM     28  C   UNL     1       8.472 -10.413  -8.315  0.00  0.00    +0.029 C 
ATOM     29  C   UNL     1       7.741 -10.163  -9.651  0.00  0.00    +0.078 C 
ENDBRANCH  21  22
ENDBRANCH  11  21
TORSDOF 5
