REMARK  Name = ZINC64626300
REMARK  10 active torsions:
REMARK  status: ('A' for Active; 'I' for Inactive)
REMARK    1  A    between atoms: C_1  and  C_2
REMARK    2  A    between atoms: C_4  and  C_21
REMARK    3  A    between atoms: C_7  and  C_10
REMARK    4  A    between atoms: C_15  and  N_16
REMARK    5  A    between atoms: N_16  and  S_17
REMARK    6  A    between atoms: S_17  and  C_20
REMARK    7  A    between atoms: C_21  and  N_22
REMARK    8  A    between atoms: N_22  and  C_23
REMARK    9  A    between atoms: N_22  and  C_24
REMARK   10  A    between atoms: C_24  and  C_25
REMARK                            x       y       z     vdW  Elec       q    Type
REMARK                         _______ _______ _______ _____ _____    ______ ____
ROOT
ATOM      1  C   UNL     1      -0.192   0.701   0.198  0.00  0.00    +0.039 C 
ATOM      2  C   UNL     1       0.270  -0.663  -0.320  0.00  0.00    +0.133 C 
ATOM      3  C   UNL     1       1.315  -0.480  -1.439  0.00  0.00    +0.068 C 
ATOM      4  N   UNL     1       2.544  -1.125  -0.914  0.00  0.00    -0.284 NA
ATOM      5  C   UNL     1       2.344  -1.111   0.559  0.00  0.00    +0.220 C 
ATOM      6  O   UNL     1       0.936  -1.393   0.728  0.00  0.00    -0.353 OA
ATOM      7  H   UNL     1       2.633  -2.069  -1.258  0.00  0.00    +0.125 HD
ENDROOT
BRANCH   5   8
ATOM      8  C   UNL     1       3.180  -2.180   1.215  0.00  0.00    +0.020 A 
ATOM      9  C   UNL     1       3.384  -3.388   0.576  0.00  0.00    +0.009 A 
ATOM     10  C   UNL     1       4.151  -4.368   1.177  0.00  0.00    +0.001 A 
ATOM     11  C   UNL     1       4.716  -4.144   2.419  0.00  0.00    +0.002 A 
ATOM     12  C   UNL     1       4.517  -2.939   3.063  0.00  0.00    +0.027 A 
ATOM     13  C   UNL     1       3.752  -1.949   2.459  0.00  0.00    +0.081 A 
BRANCH  13  14
ATOM     14  N   UNL     1       3.552  -0.727   3.105  0.00  0.00    -0.102 NA
BRANCH  14  15
ATOM     15  S   UNL     1       4.234  -0.453   4.589  0.00  0.00    +0.059 S 
ATOM     16  O   UNL     1       3.617  -1.399   5.452  0.00  0.00    -0.154 OA
ATOM     17  O   UNL     1       5.636  -0.491   4.356  0.00  0.00    -0.154 OA
ATOM     18  C   UNL     1       3.721   1.228   5.036  0.00  0.00    +0.220 C 
ENDBRANCH  14  15
ENDBRANCH  13  14
ENDBRANCH   5   8
BRANCH   3  19
ATOM     19  C   UNL     1       0.851  -1.174  -2.720  0.00  0.00    -0.057 C 
BRANCH  19  20
ATOM     20  N   UNL     1       1.916  -1.101  -3.730  0.00  0.00    +0.381 N 
ATOM     21  C   UNL     1       1.530  -1.890  -4.907  0.00  0.00    -0.096 C 
ATOM     22  H   UNL     1       2.772  -1.470  -3.343  0.00  0.00    -0.082 HD
BRANCH  20  23
ATOM     23  C   UNL     1       2.120   0.299  -4.125  0.00  0.00    -0.045 C 
BRANCH  23  24
ATOM     24  C   UNL     1       3.293   0.389  -5.067  0.00  0.00    -0.058 C 
ATOM     25  C   UNL     1       3.251   0.397  -6.419  0.00  0.00    -0.003 A 
ATOM     26  C   UNL     1       2.143   0.325  -7.380  0.00  0.00    +0.010 A 
ATOM     27  C   UNL     1       2.421   0.355  -8.704  0.00  0.00    +0.001 A 
ATOM     28  C   UNL     1       3.736   0.451  -9.179  0.00  0.00    +0.002 A 
ATOM     29  C   UNL     1       4.805   0.521  -8.358  0.00  0.00    +0.026 A 
ATOM     30  C   UNL     1       4.630   0.499  -6.947  0.00  0.00    +0.043 A 
ATOM     31  N   UNL     1       5.491   0.552  -5.960  0.00  0.00    -0.380 N 
ATOM     32  C   UNL     1       4.754   0.496  -4.693  0.00  0.00    +0.142 C 
ATOM     33  H   UNL     1       6.454   0.621  -6.052  0.00  0.00    +0.160 HD
ENDBRANCH  23  24
ENDBRANCH  20  23
ENDBRANCH  19  20
ENDBRANCH   3  19
TORSDOF 7
