REMARK  Name = ZINC63744088
REMARK  11 active torsions:
REMARK  status: ('A' for Active; 'I' for Inactive)
REMARK    1  A    between atoms: C_1  and  C_2
REMARK    2  A    between atoms: C_6  and  S_8
REMARK    3  A    between atoms: S_8  and  C_9
REMARK    4  A    between atoms: C_9  and  C_10
REMARK    5  A    between atoms: C_10  and  N_12
REMARK    6  A    between atoms: C_13  and  N_14
REMARK    7  A    between atoms: N_14  and  C_15
REMARK    8  A    between atoms: C_15  and  C_16
REMARK    9  A    between atoms: C_16  and  C_17
REMARK   10  A    between atoms: C_30  and  C_35
REMARK   11  A    between atoms: C_32  and  C_34
REMARK                            x       y       z     vdW  Elec       q    Type
REMARK                         _______ _______ _______ _____ _____    ______ ____
ROOT
ATOM      1  N   UNL     1       0.358  -6.928   3.304  0.00  0.00    -0.145 NA
ATOM      2  C   UNL     1       0.383  -7.632   4.427  0.00  0.00    +0.218 C 
ATOM      3  N   UNL     1       0.520  -8.991   4.379  0.00  0.00    -0.295 N 
ATOM      4  C   UNL     1       0.745  -9.623   3.163  0.00  0.00    +0.231 A 
ATOM      5  N   UNL     1       0.936  -8.888   2.078  0.00  0.00    -0.217 NA
ATOM      6  C   UNL     1       1.153  -9.459   0.905  0.00  0.00    +0.044 A 
ATOM      7  C   UNL     1       1.180 -10.842   0.820  0.00  0.00    +0.046 A 
ATOM      8  C   UNL     1       0.977 -11.580   1.976  0.00  0.00    +0.044 A 
ATOM      9  N   UNL     1       0.769 -10.946   3.118  0.00  0.00    -0.217 NA
ATOM     10  C   UNL     1       0.997 -13.086   1.932  0.00  0.00    +0.066 C 
ATOM     11  C   UNL     1       1.369  -8.615  -0.325  0.00  0.00    +0.066 C 
ATOM     12  H   UNL     1       0.460  -9.513   5.194  0.00  0.00    +0.172 HD
ENDROOT
BRANCH   1  13
ATOM     13  C   UNL     1       0.225  -5.603   3.351  0.00  0.00    +0.249 C 
ATOM     14  O   UNL     1       0.125  -5.040   4.423  0.00  0.00    -0.273 OA
BRANCH  13  15
ATOM     15  C   UNL     1       0.197  -4.803   2.074  0.00  0.00    +0.175 C 
BRANCH  15  16
ATOM     16  S   UNL     1       0.006  -3.043   2.468  0.00  0.00    -0.077 S 
BRANCH  16  22
ATOM     17  C   UNL     1      -0.298   1.188  -0.396  0.00  0.00    +0.066 C 
ATOM     18  C   UNL     1      -0.152  -0.311  -0.334  0.00  0.00    +0.043 A 
ATOM     19  C   UNL     1      -0.031  -1.052  -1.500  0.00  0.00    +0.043 A 
ATOM     20  C   UNL     1       0.101  -2.428  -1.399  0.00  0.00    +0.115 A 
ATOM     21  N   UNL     1       0.109  -2.990  -0.202  0.00  0.00    -0.230 NA
ATOM     22  C   UNL     1      -0.009  -2.253   0.893  0.00  0.00    +0.189 A 
ATOM     23  N   UNL     1      -0.132  -0.934   0.832  0.00  0.00    -0.227 NA
ENDBRANCH  16  22
ENDBRANCH  15  16
ENDBRANCH  13  15
ENDBRANCH   1  13
BRANCH   2  24
ATOM     24  N   UNL     1       0.271  -7.001   5.629  0.00  0.00    -0.252 NA
BRANCH  24  25
ATOM     25  C   UNL     1       0.186  -7.786   6.863  0.00  0.00    +0.149 C 
BRANCH  25  26
ATOM     26  C   UNL     1      -0.055  -6.848   8.048  0.00  0.00    +0.056 C 
BRANCH  26  27
ATOM     27  C   UNL     1      -0.264  -7.663   9.299  0.00  0.00    -0.040 C 
ATOM     28  C   UNL     1       0.671  -8.000  10.216  0.00  0.00    +0.000 A 
ATOM     29  C   UNL     1       2.108  -7.721  10.318  0.00  0.00    +0.030 A 
ATOM     30  C   UNL     1       2.797  -8.205  11.378  0.00  0.00    +0.042 A 
ATOM     31  C   UNL     1       2.173  -8.966  12.377  0.00  0.00    +0.022 A 
ATOM     32  C   UNL     1       0.857  -9.263  12.352  0.00  0.00    +0.027 A 
ATOM     33  C   UNL     1       0.036  -8.805  11.284  0.00  0.00    +0.043 A 
ATOM     34  N   UNL     1      -1.242  -8.959  11.037  0.00  0.00    -0.380 N 
ATOM     35  C   UNL     1      -1.564  -8.263   9.786  0.00  0.00    +0.144 C 
ATOM     36 CL   UNL     1       4.497  -7.876  11.503  0.00  0.00    -0.084 Cl
ATOM     37  H   UNL     1      -1.870  -9.448  11.591  0.00  0.00    +0.160 HD
ENDBRANCH  26  27
ENDBRANCH  25  26
ENDBRANCH  24  25
ENDBRANCH   2  24
TORSDOF 8
