REMARK  Name = ZINC24071542
REMARK  7 active torsions:
REMARK  status: ('A' for Active; 'I' for Inactive)
REMARK    1  A    between atoms: C_1  and  C_2
REMARK    2  A    between atoms: C_2  and  C_4
REMARK    3  A    between atoms: C_2  and  N_20
REMARK    4  A    between atoms: N_9  and  C_10
REMARK    5  A    between atoms: N_23  and  C_26
REMARK    6  A    between atoms: C_26  and  C_27
REMARK    7  A    between atoms: C_28  and  C_29
REMARK                            x       y       z     vdW  Elec       q    Type
REMARK                         _______ _______ _______ _____ _____    ______ ____
ROOT
ATOM      1  C   UNL     1      -0.242   1.357   0.656  0.00  0.00    +0.034 C 
ATOM      2  C   UNL     1       0.002  -0.004   0.002  0.00  0.00    +0.140 C 
ENDROOT
BRANCH   2   3
ATOM      3  C   UNL     1      -1.314  -0.712  -0.191  0.00  0.00    +0.237 C 
ATOM      4  O   UNL     1      -1.620  -1.632   0.536  0.00  0.00    -0.274 OA
ATOM      5  N   UNL     1      -2.151  -0.322  -1.173  0.00  0.00    -0.239 N 
ATOM      6  C   UNL     1      -3.329  -0.955  -1.345  0.00  0.00    +0.306 C 
ATOM      7  O   UNL     1      -3.635  -1.878  -0.616  0.00  0.00    -0.252 OA
ATOM      8  N   UNL     1      -4.166  -0.565  -2.327  0.00  0.00    -0.294 N 
ATOM      9  H   UNL     1      -1.907   0.414  -1.755  0.00  0.00    +0.159 HD
ATOM     10  H   UNL     1      -3.921   0.171  -2.909  0.00  0.00    +0.151 HD
BRANCH   8  11
ATOM     11  C   UNL     1      -5.446  -1.253  -2.515  0.00  0.00    +0.037 C 
ATOM     12  C   UNL     1      -5.190  -2.732  -2.812  0.00  0.00    +0.029 C 
ATOM     13  C   UNL     1      -6.527  -3.451  -3.009  0.00  0.00    -0.008 C 
ATOM     14  C   UNL     1      -7.279  -2.817  -4.180  0.00  0.00    +0.007 C 
ATOM     15  C   UNL     1      -7.535  -1.338  -3.882  0.00  0.00    -0.008 C 
ATOM     16  C   UNL     1      -6.198  -0.620  -3.686  0.00  0.00    +0.029 C 
ATOM     17  C   UNL     1      -8.373  -1.212  -2.609  0.00  0.00    +0.007 C 
ATOM     18  C   UNL     1      -7.621  -1.845  -1.438  0.00  0.00    -0.008 C 
ATOM     19  C   UNL     1      -7.366  -3.324  -1.735  0.00  0.00    +0.007 C 
ATOM     20  C   UNL     1      -6.284  -1.127  -1.241  0.00  0.00    +0.029 C 
ENDBRANCH   8  11
ENDBRANCH   2   3
BRANCH   2  21
ATOM     21  N   UNL     1       0.871  -0.814   0.867  0.00  0.00    -0.295 NA
ATOM     22  C   UNL     1       2.267  -0.363   0.780  0.00  0.00    +0.066 C 
ATOM     23  C   UNL     1       3.147  -1.267   1.647  0.00  0.00    -0.063 C 
ATOM     24  N   UNL     1       2.682  -1.213   3.039  0.00  0.00    +0.384 N 
ATOM     25  C   UNL     1       1.294  -1.689   3.113  0.00  0.00    -0.063 C 
ATOM     26  C   UNL     1       0.400  -0.788   2.259  0.00  0.00    +0.066 C 
ATOM     27  H   UNL     1       2.729  -0.262   3.373  0.00  0.00    -0.081 HD
BRANCH  24  28
ATOM     28  C   UNL     1       3.538  -2.067   3.874  0.00  0.00    -0.051 C 
BRANCH  28  29
ATOM     29  C   UNL     1       3.139  -1.917   5.320  0.00  0.00    -0.045 C 
ATOM     30  C   UNL     1       2.820  -2.987   6.034  0.00  0.00    +0.002 C 
BRANCH  30  31
ATOM     31  C   UNL     1       2.429  -2.840   7.452  0.00  0.00    -0.025 A 
ATOM     32  C   UNL     1       2.390  -1.575   8.040  0.00  0.00    +0.008 A 
ATOM     33  C   UNL     1       2.024  -1.445   9.364  0.00  0.00    +0.001 A 
ATOM     34  C   UNL     1       1.697  -2.564  10.108  0.00  0.00    +0.000 A 
ATOM     35  C   UNL     1       1.735  -3.821   9.531  0.00  0.00    +0.001 A 
ATOM     36  C   UNL     1       2.092  -3.965   8.206  0.00  0.00    +0.008 A 
ENDBRANCH  30  31
ENDBRANCH  28  29
ENDBRANCH  24  28
ENDBRANCH   2  21
TORSDOF 6
