REMARK  Name = ZINC13636233
REMARK  5 active torsions:
REMARK  status: ('A' for Active; 'I' for Inactive)
REMARK    1  A    between atoms: C_1  and  C_2
REMARK    2  A    between atoms: C_9  and  C_11
REMARK    3  A    between atoms: C_11  and  S_12
REMARK    4  A    between atoms: S_12  and  C_13
REMARK    5  A    between atoms: C_23  and  C_28
REMARK                            x       y       z     vdW  Elec       q    Type
REMARK                         _______ _______ _______ _____ _____    ______ ____
ROOT
ATOM      1  C   UNL     1      -0.013   1.086   0.008  0.00  0.00    +0.066 C 
ATOM      2  C   UNL     1      -0.718   1.572   1.248  0.00  0.00    +0.054 A 
ATOM      3  C   UNL     1      -0.004   1.813   2.429  0.00  0.00    +0.060 A 
ATOM      4  C   UNL     1      -0.694   2.265   3.559  0.00  0.00    +0.057 A 
ATOM      5  N   UNL     1      -2.001   2.444   3.470  0.00  0.00    -0.218 NA
ATOM      6  C   UNL     1      -2.644   2.205   2.336  0.00  0.00    +0.222 A 
ATOM      7  N   UNL     1      -2.022   1.784   1.243  0.00  0.00    -0.219 NA
ATOM      8  N   UNL     1      -4.013   2.408   2.288  0.00  0.00    -0.254 N 
ATOM      9  C   UNL     1      -4.690   2.172   1.147  0.00  0.00    +0.230 C 
ATOM     10  O   UNL     1      -4.101   1.782   0.162  0.00  0.00    -0.274 OA
ATOM     11  C   UNL     1       0.014   2.548   4.853  0.00  0.00    +0.060 C 
ATOM     12  C   UNL     1       1.338   1.792   4.933  0.00  0.00    -0.001 C 
ATOM     13  C   UNL     1       2.189   2.118   3.699  0.00  0.00    +0.083 C 
ATOM     14  C   UNL     1       1.448   1.593   2.485  0.00  0.00    +0.167 C 
ATOM     15  O   UNL     1       2.032   1.014   1.594  0.00  0.00    -0.292 OA
ATOM     16  C   UNL     1       2.091   2.215   6.197  0.00  0.00    +0.008 C 
ATOM     17  H   UNL     1      -4.485   2.719   3.076  0.00  0.00    +0.158 HD
ENDROOT
BRANCH   9  18
ATOM     18  C   UNL     1      -6.180   2.392   1.095  0.00  0.00    +0.175 C 
BRANCH  18  19
ATOM     19  S   UNL     1      -6.793   1.991  -0.560  0.00  0.00    -0.058 S 
BRANCH  19  20
ATOM     20  C   UNL     1      -8.508   2.329  -0.342  0.00  0.00    +0.258 A 
ATOM     21  N   UNL     1      -9.055   2.744   0.773  0.00  0.00    -0.203 NA
ATOM     22  C   UNL     1     -10.392   2.900   0.571  0.00  0.00    +0.110 A 
ATOM     23  C   UNL     1     -11.448   3.311   1.386  0.00  0.00    +0.031 A 
ATOM     24  C   UNL     1     -12.727   3.359   0.875  0.00  0.00    +0.002 A 
ATOM     25  C   UNL     1     -12.970   3.002  -0.443  0.00  0.00    +0.004 A 
ATOM     26  C   UNL     1     -11.934   2.594  -1.259  0.00  0.00    +0.048 A 
ATOM     27  C   UNL     1     -10.642   2.539  -0.761  0.00  0.00    +0.156 A 
ATOM     28  O   UNL     1      -9.448   2.191  -1.294  0.00  0.00    -0.431 OA
ENDBRANCH  19  20
ENDBRANCH  18  19
ENDBRANCH   9  18
TORSDOF 3
