REMARK  Name = ZINC39226947
REMARK  5 active torsions:
REMARK  status: ('A' for Active; 'I' for Inactive)
REMARK    1  A    between atoms: C_4  and  S_7
REMARK    2  A    between atoms: S_7  and  C_8
REMARK    3  A    between atoms: C_13  and  N_14
REMARK    4  A    between atoms: C_15  and  C_17
REMARK    5  A    between atoms: C_17  and  N_18
REMARK                            x       y       z     vdW  Elec       q    Type
REMARK                         _______ _______ _______ _____ _____    ______ ____
ROOT
ATOM      1  N   UNL     1       9.080  -5.107   0.162  0.00  0.00    +0.386 N 
ATOM      2  C   UNL     1       8.927  -5.753   1.472  0.00  0.00    -0.074 C 
ATOM      3  C   UNL     1       9.713  -7.066   1.492  0.00  0.00    +0.030 C 
ATOM      4  C   UNL     1      11.193  -6.774   1.232  0.00  0.00    +0.114 C 
ATOM      5  C   UNL     1      11.335  -6.030  -0.098  0.00  0.00    +0.030 C 
ATOM      6  C   UNL     1      10.488  -4.756  -0.058  0.00  0.00    -0.074 C 
ATOM      7  C   UNL     1      11.966  -8.098   1.159  0.00  0.00    +0.127 C 
ATOM      8  C   UNL     1      13.428  -7.750   0.941  0.00  0.00    +0.170 C 
ATOM      9  O   UNL     1      14.130  -8.394   0.190  0.00  0.00    -0.292 OA
ATOM     10  C   UNL     1      13.950  -6.594   1.687  0.00  0.00    +0.060 A 
ATOM     11  C   UNL     1      15.335  -6.353   1.747  0.00  0.00    +0.015 A 
ATOM     12  C   UNL     1      15.825  -5.287   2.425  0.00  0.00    +0.009 A 
ATOM     13  C   UNL     1      14.947  -4.401   3.082  0.00  0.00    -0.014 A 
ATOM     14  C   UNL     1      15.439  -3.288   3.784  0.00  0.00    +0.008 A 
ATOM     15  C   UNL     1      14.570  -2.448   4.412  0.00  0.00    +0.001 A 
ATOM     16  C   UNL     1      13.196  -2.673   4.369  0.00  0.00    +0.001 A 
ATOM     17  C   UNL     1      12.684  -3.741   3.697  0.00  0.00    +0.012 A 
ATOM     18  C   UNL     1      13.550  -4.628   3.037  0.00  0.00    +0.025 A 
ATOM     19  C   UNL     1      13.049  -5.742   2.330  0.00  0.00    +0.139 A 
ATOM     20  O   UNL     1      11.719  -5.975   2.290  0.00  0.00    -0.484 OA
ATOM     21  H   UNL     1       8.776  -5.742  -0.561  0.00  0.00    -0.081 HD
ENDROOT
BRANCH   1  22
ATOM     22  C   UNL     1       8.261  -3.889   0.120  0.00  0.00    +0.019 C 
BRANCH  22  24
ATOM     23  N   UNL     1       5.861  -3.297   0.205  0.00  0.00    -0.286 N 
ATOM     24  C   UNL     1       6.804  -4.260   0.223  0.00  0.00    +0.201 C 
ATOM     25  O   UNL     1       6.480  -5.424   0.322  0.00  0.00    -0.278 OA
ATOM     26  H   UNL     1       6.121  -2.363   0.207  0.00  0.00    +0.155 HD
BRANCH  23  32
ATOM     27  C   UNL     1       3.546  -2.760   0.678  0.00  0.00    +0.034 A 
ATOM     28  C   UNL     1       2.203  -3.110   0.649  0.00  0.00    +0.017 A 
ATOM     29  C   UNL     1       1.819  -4.335   0.136  0.00  0.00    +0.001 A 
ATOM     30  C   UNL     1       2.770  -5.215  -0.349  0.00  0.00    +0.002 A 
ATOM     31  C   UNL     1       4.109  -4.875  -0.323  0.00  0.00    +0.024 A 
ATOM     32  C   UNL     1       4.504  -3.646   0.184  0.00  0.00    +0.047 A 
BRANCH  27  33
ATOM     33  S   UNL     1       4.038  -1.200   1.331  0.00  0.00    -0.088 S 
BRANCH  33  37
ATOM     34  C   UNL     1       0.192   0.587   2.921  0.00  0.00    +0.000 A 
ATOM     35  C   UNL     1       0.929  -0.278   3.710  0.00  0.00    +0.001 A 
ATOM     36  C   UNL     1       2.102  -0.825   3.228  0.00  0.00    +0.015 A 
ATOM     37  C   UNL     1       2.542  -0.505   1.949  0.00  0.00    +0.013 A 
ATOM     38  C   UNL     1       1.799   0.365   1.160  0.00  0.00    +0.015 A 
ATOM     39  C   UNL     1       0.627   0.908   1.648  0.00  0.00    +0.001 A 
ENDBRANCH  33  37
ENDBRANCH  27  33
ENDBRANCH  23  32
ENDBRANCH  22  24
ENDBRANCH   1  22
TORSDOF 5
