REMARK  Name = ZINC40337414
REMARK  11 active torsions:
REMARK  status: ('A' for Active; 'I' for Inactive)
REMARK    1  A    between atoms: C_1  and  O_2
REMARK    2  A    between atoms: O_2  and  C_3
REMARK    3  A    between atoms: C_5  and  C_12
REMARK    4  A    between atoms: C_7  and  O_10
REMARK    5  A    between atoms: C_8  and  O_9
REMARK    6  A    between atoms: O_10  and  C_11
REMARK    7  A    between atoms: C_15  and  C_31
REMARK    8  A    between atoms: N_22  and  C_23
REMARK    9  A    between atoms: C_23  and  C_24
REMARK   10  A    between atoms: C_24  and  C_25
REMARK   11  A    between atoms: C_25  and  N_26
REMARK                            x       y       z     vdW  Elec       q    Type
REMARK                         _______ _______ _______ _____ _____    ______ ____
ROOT
ATOM      1  C   UNL     1       2.402   0.386  -4.230  0.00  0.00    +0.141 C 
ATOM      2  C   UNL     1       3.897   0.432  -4.067  0.00  0.00    +0.035 A 
ATOM      3  C   UNL     1       4.956   0.777  -3.290  0.00  0.00    +0.072 A 
ATOM      4  N   UNL     1       6.080   0.426  -3.982  0.00  0.00    -0.276 N 
ATOM      5  N   UNL     1       5.754  -0.099  -5.110  0.00  0.00    -0.168 NA
ATOM      6  H   UNL     1       6.989   0.555  -3.670  0.00  0.00    +0.189 HD
ATOM      7  C   UNL     1       4.443  -0.134  -5.241  0.00  0.00    +0.153 A 
ATOM      8  C   UNL     1       3.324  -0.524  -6.118  0.00  0.00    +0.268 C 
ATOM      9  O   UNL     1       3.448  -1.043  -7.210  0.00  0.00    -0.268 OA
ATOM     10  N   UNL     1       2.147  -0.226  -5.539  0.00  0.00    -0.285 N 
ENDROOT
BRANCH   1  13
ATOM     11  C   UNL     1       0.606  -0.608  -1.056  0.00  0.00    +0.165 A 
ATOM     12  C   UNL     1       1.173   0.160  -2.063  0.00  0.00    +0.055 A 
ATOM     13  C   UNL     1       1.787  -0.452  -3.139  0.00  0.00    -0.015 A 
ATOM     14  C   UNL     1       1.839  -1.831  -3.217  0.00  0.00    +0.055 A 
ATOM     15  C   UNL     1       1.275  -2.606  -2.215  0.00  0.00    +0.165 A 
ATOM     16  C   UNL     1       0.661  -1.994  -1.128  0.00  0.00    +0.201 A 
BRANCH  11  18
ATOM     17  C   UNL     1      -0.017   1.425   0.010  0.00  0.00    +0.277 C 
ATOM     18  O   UNL     1       0.002  -0.004   0.002  0.00  0.00    -0.491 OA
ENDBRANCH  11  18
BRANCH  16  19
ATOM     19  O   UNL     1       0.111  -2.751  -0.140  0.00  0.00    -0.501 OA
ATOM     20  H   UNL     1      -0.817  -2.978  -0.289  0.00  0.00    +0.292 HD
ENDBRANCH  16  19
BRANCH  15  21
ATOM     21  O   UNL     1       1.326  -3.963  -2.293  0.00  0.00    -0.491 OA
ATOM     22  C   UNL     1       1.977  -4.523  -3.435  0.00  0.00    +0.277 C 
ENDBRANCH  15  21
ENDBRANCH   1  13
BRANCH   3  23
ATOM     23  C   UNL     1       4.902   1.410  -1.954  0.00  0.00    +0.000 A 
ATOM     24  C   UNL     1       4.037   2.478  -1.719  0.00  0.00    +0.010 A 
ATOM     25  C   UNL     1       3.992   3.064  -0.470  0.00  0.00    +0.001 A 
ATOM     26  C   UNL     1       4.803   2.594   0.547  0.00  0.00    +0.000 A 
ATOM     27  C   UNL     1       5.663   1.535   0.321  0.00  0.00    +0.001 A 
ATOM     28  C   UNL     1       5.713   0.937  -0.922  0.00  0.00    +0.010 A 
ENDBRANCH   3  23
BRANCH  10  29
ATOM     29  C   UNL     1       0.825  -0.472  -6.121  0.00  0.00    +0.111 C 
BRANCH  29  30
ATOM     30  C   UNL     1       0.392   0.746  -6.938  0.00  0.00    +0.040 C 
BRANCH  30  31
ATOM     31  C   UNL     1      -0.988   0.489  -7.546  0.00  0.00    +0.124 C 
BRANCH  31  32
ATOM     32  N   UNL     1      -1.403   1.656  -8.328  0.00  0.00    -0.338 N 
ATOM     33  C   UNL     1      -2.102   2.738  -7.866  0.00  0.00    +0.104 A 
ATOM     34  C   UNL     1      -2.267   3.571  -8.911  0.00  0.00    +0.101 A 
ATOM     35  N   UNL     1      -1.686   3.013  -9.983  0.00  0.00    -0.352 N 
ATOM     36  C   UNL     1      -1.161   1.868  -9.640  0.00  0.00    +0.173 A 
ATOM     37  H   UNL     1      -1.656   3.400 -10.871  0.00  0.00    +0.166 HD
ENDBRANCH  31  32
ENDBRANCH  30  31
ENDBRANCH  29  30
ENDBRANCH  10  29
TORSDOF 9
