REMARK  Name = ZINC08559953
REMARK  7 active torsions:
REMARK  status: ('A' for Active; 'I' for Inactive)
REMARK    1  A    between atoms: C_1  and  C_2
REMARK    2  A    between atoms: C_2  and  O_3
REMARK    3  A    between atoms: O_3  and  C_4
REMARK    4  A    between atoms: C_4  and  C_6
REMARK    5  A    between atoms: C_7  and  N_29
REMARK    6  A    between atoms: N_18  and  C_21
REMARK    7  A    between atoms: C_25  and  C_28
REMARK                            x       y       z     vdW  Elec       q    Type
REMARK                         _______ _______ _______ _____ _____    ______ ____
ROOT
ATOM      1  C   UNL     1       4.098   2.692  -1.270  0.00  0.00    +0.117 C 
ATOM      2  C   UNL     1       4.143   4.047  -1.171  0.00  0.00    +0.195 C 
ATOM      3  O   UNL     1       3.987   4.666   0.007  0.00  0.00    -0.446 OA
ATOM      4  C   UNL     1       4.199   3.997   1.157  0.00  0.00    +0.116 C 
ATOM      5  C   UNL     1       4.162   2.652   1.202  0.00  0.00    +0.057 C 
ATOM      6  C   UNL     1       3.880   1.854  -0.044  0.00  0.00    +0.141 C 
ATOM      7  C   UNL     1       2.493   1.293  -0.016  0.00  0.00    -0.002 A 
ATOM      8  C   UNL     1       1.259   1.907   0.025  0.00  0.00    +0.007 A 
ATOM      9  C   UNL     1       0.142   1.079   0.038  0.00  0.00    +0.000 A 
ATOM     10  C   UNL     1       0.266  -0.295   0.013  0.00  0.00    +0.002 A 
ATOM     11  C   UNL     1       1.503  -0.920  -0.027  0.00  0.00    +0.024 A 
ATOM     12  C   UNL     1       2.632  -0.100  -0.041  0.00  0.00    +0.041 A 
ATOM     13  N   UNL     1       3.970  -0.449  -0.079  0.00  0.00    -0.273 N 
ATOM     14  C   UNL     1       4.776   0.633  -0.084  0.00  0.00    +0.240 C 
ATOM     15  O   UNL     1       5.988   0.630  -0.113  0.00  0.00    -0.274 OA
ATOM     16  C   UNL     1       4.456  -1.831  -0.109  0.00  0.00    +0.138 C 
ATOM     17  C   UNL     1       4.387   1.955   2.405  0.00  0.00    +0.164 C 
ATOM     18  O   UNL     1       4.324   0.742   2.411  0.00  0.00    -0.292 OA
ATOM     19  C   UNL     1       4.704   2.684   3.682  0.00  0.00    +0.083 C 
ATOM     20  C   UNL     1       5.393   4.009   3.337  0.00  0.00    +0.001 C 
ATOM     21  C   UNL     1       4.476   4.803   2.405  0.00  0.00    +0.078 C 
ATOM     22  C   UNL     1       5.640   4.809   4.618  0.00  0.00    +0.008 C 
ENDROOT
BRANCH   2  23
ATOM     23  N   UNL     1       4.352   4.795  -2.299  0.00  0.00    -0.329 N 
ATOM     24  H   UNL     1       4.377   4.365  -3.168  0.00  0.00    +0.145 HD
ATOM     25  H   UNL     1       4.474   5.755  -2.229  0.00  0.00    +0.145 HD
ENDBRANCH   2  23
BRANCH   1  26
ATOM     26  C   UNL     1       4.256   2.075  -2.521  0.00  0.00    +0.342 C 
ATOM     27  O   UNL     1       3.280   1.665  -3.126  0.00  0.00    -0.245 OA
BRANCH  26  28
ATOM     28  O   UNL     1       5.489   1.935  -3.055  0.00  0.00    -0.462 OA
BRANCH  28  30
ATOM     29  C   UNL     1       7.039   1.231  -4.770  0.00  0.00    +0.048 C 
ATOM     30  C   UNL     1       5.575   1.298  -4.331  0.00  0.00    +0.229 C 
ENDBRANCH  28  30
ENDBRANCH  26  28
ENDBRANCH   1  26
TORSDOF 4
