REMARK  Name = ZINC56782937
REMARK  4 active torsions:
REMARK  status: ('A' for Active; 'I' for Inactive)
REMARK    1  A    between atoms: C_1  and  C_2
REMARK    2  A    between atoms: C_7  and  N_12
REMARK    3  A    between atoms: C_9  and  C_11
REMARK    4  A    between atoms: C_19  and  C_22
REMARK                            x       y       z     vdW  Elec       q    Type
REMARK                         _______ _______ _______ _____ _____    ______ ____
ROOT
ATOM      1  N   UNL     1      -0.612  -2.546   1.248  0.00  0.00    -0.296 N 
ATOM      2  C   UNL     1      -0.873  -3.776   1.733  0.00  0.00    +0.302 C 
ATOM      3  O   UNL     1       0.041  -4.500   2.077  0.00  0.00    -0.253 OA
ATOM      4  N   UNL     1      -2.147  -4.203   1.836  0.00  0.00    -0.285 N 
ATOM      5  C   UNL     1      -3.254  -3.390   1.313  0.00  0.00    +0.109 C 
ATOM      6  C   UNL     1      -4.091  -4.250   0.362  0.00  0.00    +0.020 C 
ATOM      7  C   UNL     1      -4.534  -5.523   1.087  0.00  0.00    +0.016 C 
ATOM      8  C   UNL     1      -3.302  -6.328   1.508  0.00  0.00    +0.093 C 
ATOM      9  C   UNL     1      -2.455  -5.494   2.467  0.00  0.00    +0.122 C 
ATOM     10  H   UNL     1      -1.334  -1.996   0.906  0.00  0.00    +0.151 HD
ENDROOT
BRANCH   8  11
ATOM     11  C   UNL     1      -3.740  -7.597   2.193  0.00  0.00    +0.223 C 
ATOM     12  O   UNL     1      -4.921  -7.835   2.332  0.00  0.00    -0.275 OA
ATOM     13  N   UNL     1      -2.819  -8.467   2.652  0.00  0.00    -0.264 N 
ATOM     14  C   UNL     1      -3.222  -9.637   3.284  0.00  0.00    +0.164 A 
ATOM     15  N   UNL     1      -4.446 -10.061   3.515  0.00  0.00    -0.233 NA
ATOM     16  C   UNL     1      -4.666 -11.207   4.133  0.00  0.00    +0.120 A 
ATOM     17  C   UNL     1      -3.578 -11.920   4.514  0.00  0.00    +0.068 A 
ATOM     18  S   UNL     1      -2.264 -10.860   3.931  0.00  0.00    -0.061 S 
ATOM     19  H   UNL     1      -1.874  -8.277   2.541  0.00  0.00    +0.157 HD
ENDBRANCH   8  11
BRANCH   1  25
ATOM     20  C   UNL     1      -0.019   1.532   0.030  0.00  0.00    +0.008 C 
ATOM     21  C   UNL     1       0.001   0.002   0.015  0.00  0.00    -0.009 C 
ATOM     22  C   UNL     1       0.715  -0.486  -1.246  0.00  0.00    +0.003 C 
ATOM     23  C   UNL     1       0.735  -2.016  -1.261  0.00  0.00    +0.002 C 
ATOM     24  C   UNL     1       1.476  -2.528  -0.025  0.00  0.00    +0.022 C 
ATOM     25  C   UNL     1       0.763  -2.040   1.237  0.00  0.00    +0.078 C 
ATOM     26  C   UNL     1       0.743  -0.510   1.252  0.00  0.00    +0.009 C 
ATOM     27  C   UNL     1       0.029  -0.021   2.514  0.00  0.00    +0.009 C 
ENDBRANCH   1  25
TORSDOF 2
