REMARK  Name = ZINC43223138
REMARK  14 active torsions:
REMARK  status: ('A' for Active; 'I' for Inactive)
REMARK    1  A    between atoms: C_1  and  C_2
REMARK    2  A    between atoms: C_2  and  C_4
REMARK    3  A    between atoms: C_2  and  N_10
REMARK    4  A    between atoms: C_4  and  C_5
REMARK    5  A    between atoms: C_5  and  C_6
REMARK    6  A    between atoms: C_6  and  C_7
REMARK    7  A    between atoms: C_7  and  C_8
REMARK    8  A    between atoms: C_7  and  C_9
REMARK    9  A    between atoms: C_11  and  C_13
REMARK   10  A    between atoms: C_18  and  C_20
REMARK   11  A    between atoms: N_22  and  C_23
REMARK   12  A    between atoms: C_23  and  C_24
REMARK   13  A    between atoms: C_26  and  C_34
REMARK   14  A    between atoms: C_28  and  C_30
REMARK                            x       y       z     vdW  Elec       q    Type
REMARK                         _______ _______ _______ _____ _____    ______ ____
ROOT
ATOM      1  C   UNL     1      -3.442  -1.177   1.191  0.00  0.00    +0.068 C 
ATOM      2  C   UNL     1      -3.487  -2.617   0.638  0.00  0.00    -0.069 C 
ATOM      3  N   UNL     1      -3.423  -3.484   1.843  0.00  0.00    +0.380 N 
ATOM      4  C   UNL     1      -4.276  -2.786   2.839  0.00  0.00    -0.069 C 
ATOM      5  C   UNL     1      -3.962  -1.285   2.640  0.00  0.00    +0.068 C 
ATOM      6  H   UNL     1      -3.795  -4.399   1.639  0.00  0.00    -0.086 HD
ATOM      7  H   UNL     1      -2.474  -3.553   2.178  0.00  0.00    -0.086 HD
ENDROOT
BRANCH   1   9
ATOM      8  N   UNL     1      -1.372  -0.511   0.012  0.00  0.00    -0.313 N 
ATOM      9  C   UNL     1      -2.029  -0.655   1.181  0.00  0.00    +0.215 C 
ATOM     10  O   UNL     1      -1.481  -0.365   2.224  0.00  0.00    -0.276 OA
ATOM     11  H   UNL     1      -1.810  -0.743  -0.822  0.00  0.00    +0.149 HD
BRANCH   8  13
ATOM     12  C   UNL     1      -0.019   1.526   0.010  0.00  0.00    +0.028 C 
ATOM     13  C   UNL     1       0.002  -0.004   0.002  0.00  0.00    +0.070 C 
BRANCH  13  14
ATOM     14  C   UNL     1       0.718  -0.497  -1.257  0.00  0.00    +0.022 C 
BRANCH  14  15
ATOM     15  C   UNL     1       0.849  -2.021  -1.205  0.00  0.00    +0.002 C 
BRANCH  15  16
ATOM     16  C   UNL     1       1.565  -2.514  -2.464  0.00  0.00    +0.003 C 
BRANCH  16  17
ATOM     17  C   UNL     1       1.696  -4.038  -2.412  0.00  0.00    -0.017 C 
ATOM     18  C   UNL     1       0.305  -4.671  -2.463  0.00  0.00    +0.007 C 
ATOM     19  C   UNL     1       2.521  -4.520  -3.607  0.00  0.00    +0.007 C 
ENDBRANCH  16  17
ENDBRANCH  15  16
ENDBRANCH  14  15
ENDBRANCH  13  14
ENDBRANCH   8  13
ENDBRANCH   1   9
BRANCH   5  20
ATOM     20  C   UNL     1      -5.212  -0.461   2.810  0.00  0.00    +0.215 C 
ATOM     21  O   UNL     1      -5.660   0.163   1.871  0.00  0.00    -0.276 OA
ATOM     22  N   UNL     1      -5.832  -0.416   4.006  0.00  0.00    -0.311 N 
ATOM     23  H   UNL     1      -5.474  -0.915   4.757  0.00  0.00    +0.149 HD
BRANCH  22  24
ATOM     24  C   UNL     1      -7.047   0.386   4.172  0.00  0.00    +0.139 C 
BRANCH  24  25
ATOM     25  C   UNL     1      -7.538   0.266   5.592  0.00  0.00    -0.029 A 
ATOM     26  C   UNL     1      -8.425  -0.738   5.934  0.00  0.00    +0.017 A 
ATOM     27  C   UNL     1      -8.875  -0.848   7.236  0.00  0.00    +0.056 A 
ATOM     28  C   UNL     1      -8.438   0.046   8.196  0.00  0.00    +0.024 A 
ATOM     29  C   UNL     1      -7.551   1.049   7.854  0.00  0.00    +0.056 A 
ATOM     30  C   UNL     1      -7.097   1.156   6.553  0.00  0.00    +0.017 A 
BRANCH  29  31
ATOM     31  C   UNL     1      -7.075   2.023   8.901  0.00  0.00    +0.417 C 
ATOM     32  F   UNL     1      -7.665   1.712  10.131  0.00  0.00    -0.166 F 
ATOM     33  F   UNL     1      -5.683   1.940   9.017  0.00  0.00    -0.166 F 
ATOM     34  F   UNL     1      -7.434   3.322   8.527  0.00  0.00    -0.166 F 
ENDBRANCH  29  31
BRANCH  27  35
ATOM     35  C   UNL     1      -9.843  -1.941   7.609  0.00  0.00    +0.417 C 
ATOM     36  F   UNL     1      -9.131  -3.078   8.007  0.00  0.00    -0.166 F 
ATOM     37  F   UNL     1     -10.654  -1.506   8.663  0.00  0.00    -0.166 F 
ATOM     38  F   UNL     1     -10.642  -2.254   6.504  0.00  0.00    -0.166 F 
ENDBRANCH  27  35
ENDBRANCH  24  25
ENDBRANCH  22  24
ENDBRANCH   5  20
TORSDOF 11
