REMARK  Name = ZINC14158059
REMARK  12 active torsions:
REMARK  status: ('A' for Active; 'I' for Inactive)
REMARK    1  A    between atoms: C_1  and  C_2
REMARK    2  A    between atoms: C_4  and  C_35
REMARK    3  A    between atoms: N_10  and  C_11
REMARK    4  A    between atoms: C_11  and  N_13
REMARK    5  A    between atoms: N_13  and  C_14
REMARK    6  A    between atoms: C_18  and  O_20
REMARK    7  A    between atoms: O_20  and  C_21
REMARK    8  A    between atoms: N_25  and  C_26
REMARK    9  A    between atoms: C_28  and  C_33
REMARK   10  A    between atoms: C_28  and  C_34
REMARK   11  A    between atoms: C_29  and  C_31
REMARK   12  A    between atoms: C_29  and  C_32
REMARK                            x       y       z     vdW  Elec       q    Type
REMARK                         _______ _______ _______ _____ _____    ______ ____
ROOT
ATOM      1  C   UNL     1       1.360   7.145  -9.213  0.00  0.00    +0.066 C 
ATOM      2  C   UNL     1       0.108   7.122  -8.374  0.00  0.00    +0.044 A 
ATOM      3  C   UNL     1      -0.954   7.959  -8.677  0.00  0.00    +0.046 A 
ATOM      4  C   UNL     1      -2.087   7.905  -7.880  0.00  0.00    +0.044 A 
ATOM      5  N   UNL     1      -2.120   7.062  -6.861  0.00  0.00    -0.217 NA
ATOM      6  C   UNL     1      -1.087   6.276  -6.599  0.00  0.00    +0.231 A 
ATOM      7  N   UNL     1       0.012   6.306  -7.337  0.00  0.00    -0.217 NA
ATOM      8  N   UNL     1      -1.156   5.403  -5.522  0.00  0.00    -0.297 N 
ATOM      9  C   UNL     1      -0.092   4.594  -5.227  0.00  0.00    +0.196 C 
ATOM     10  N   UNL     1       1.131   4.960  -5.569  0.00  0.00    -0.159 NA
ATOM     11  N   UNL     1      -0.294   3.409  -4.580  0.00  0.00    -0.355 N 
ATOM     12  C   UNL     1      -3.267   8.796  -8.171  0.00  0.00    +0.066 C 
ATOM     13  H   UNL     1      -1.959   5.367  -4.978  0.00  0.00    +0.171 HD
ATOM     14  H   UNL     1       0.460   2.836  -4.371  0.00  0.00    +0.163 HD
ENDROOT
BRANCH  11  15
ATOM     15  C   UNL     1      -1.653   3.003  -4.200  0.00  0.00    +0.079 C 
ATOM     16  C   UNL     1      -1.578   2.044  -3.012  0.00  0.00    +0.011 C 
ATOM     17  C   UNL     1      -2.978   1.587  -2.608  0.00  0.00    -0.071 C 
ATOM     18  C   UNL     1      -3.715   1.818  -4.998  0.00  0.00    -0.071 C 
ATOM     19  C   UNL     1      -2.307   2.273  -5.373  0.00  0.00    +0.011 C 
ATOM     20  C   UNL     1      -4.199   0.850  -6.101  0.00  0.00    -0.010 C 
ATOM     21  C   UNL     1      -4.662   3.023  -5.005  0.00  0.00    -0.010 C 
ATOM     22  C   UNL     1      -3.692   2.722  -1.865  0.00  0.00    -0.010 C 
ATOM     23  C   UNL     1      -2.816   0.418  -1.612  0.00  0.00    -0.010 C 
ATOM     24  N   UNL     1      -3.809   1.058  -3.722  0.00  0.00    +0.386 N 
ATOM     25  H   UNL     1      -4.790   1.067  -3.419  0.00  0.00    -0.084 HD
ATOM     26  H   UNL     1      -3.517   0.091  -3.906  0.00  0.00    -0.084 HD
ENDBRANCH  11  15
BRANCH  10  27
ATOM     27  C   UNL     1       1.451   6.261  -5.624  0.00  0.00    +0.161 C 
ATOM     28  S   UNL     1       0.336   7.440  -5.079  0.00  0.00    -0.016 S 
BRANCH  27  29
ATOM     29  N   UNL     1       2.650   6.641  -6.107  0.00  0.00    -0.295 N 
ATOM     30  H   UNL     1       3.267   5.976  -6.452  0.00  0.00    +0.154 HD
BRANCH  29  31
ATOM     31  C   UNL     1       3.006   7.993  -6.112  0.00  0.00    +0.036 A 
ATOM     32  C   UNL     1       2.587   8.826  -5.083  0.00  0.00    +0.023 A 
ATOM     33  C   UNL     1       2.943  10.161  -5.085  0.00  0.00    +0.005 A 
ATOM     34  C   UNL     1       3.707  10.673  -6.117  0.00  0.00    +0.046 A 
ATOM     35  C   UNL     1       4.125   9.847  -7.150  0.00  0.00    +0.132 A 
ATOM     36  C   UNL     1       3.774   8.505  -7.149  0.00  0.00    +0.069 A 
BRANCH  35  37
ATOM     37  O   UNL     1       4.876  10.352  -8.164  0.00  0.00    -0.406 OA
BRANCH  37  38
ATOM     38  C   UNL     1       5.199  11.742  -8.101  0.00  0.00    +0.575 C 
ATOM     39  F   UNL     1       5.923  12.000  -6.932  0.00  0.00    -0.133 F 
ATOM     40  F   UNL     1       5.971  12.092  -9.214  0.00  0.00    -0.133 F 
ATOM     41  F   UNL     1       4.021  12.495  -8.095  0.00  0.00    -0.133 F 
ENDBRANCH  37  38
ENDBRANCH  35  37
ENDBRANCH  29  31
ENDBRANCH  27  29
ENDBRANCH  10  27
TORSDOF 6
