REMARK  Name = ZINC23299222
REMARK  13 active torsions:
REMARK  status: ('A' for Active; 'I' for Inactive)
REMARK    1  A    between atoms: C_1  and  C_2
REMARK    2  A    between atoms: C_2  and  C_3
REMARK    3  A    between atoms: C_2  and  C_4
REMARK    4  A    between atoms: C_4  and  N_5
REMARK    5  A    between atoms: C_6  and  N_35
REMARK    6  A    between atoms: C_7  and  N_14
REMARK    7  A    between atoms: N_14  and  C_15
REMARK    8  A    between atoms: C_15  and  C_16
REMARK    9  A    between atoms: C_16  and  C_17
REMARK   10  A    between atoms: C_16  and  C_18
REMARK   11  A    between atoms: C_19  and  C_21
REMARK   12  A    between atoms: C_24  and  C_27
REMARK   13  A    between atoms: C_27  and  N_28
REMARK                            x       y       z     vdW  Elec       q    Type
REMARK                         _______ _______ _______ _____ _____    ______ ____
ROOT
ATOM      1  N   UNL     1       0.308  -2.792   2.547  0.00  0.00    -0.260 N 
ATOM      2  C   UNL     1      -0.261  -2.339   3.681  0.00  0.00    +0.251 C 
ATOM      3  O   UNL     1      -0.464  -3.102   4.606  0.00  0.00    -0.270 OA
ENDROOT
BRANCH   1   6
ATOM      4  N   UNL     1       1.742   0.009   0.650  0.00  0.00    -0.280 N 
ATOM      5  C   UNL     1       1.477  -0.848   1.692  0.00  0.00    +0.127 A 
ATOM      6  C   UNL     1       0.600  -1.895   1.498  0.00  0.00    +0.140 A 
ATOM      7  C   UNL     1       0.001  -2.054   0.234  0.00  0.00    +0.277 A 
ATOM      8  O   UNL     1      -0.778  -2.971   0.034  0.00  0.00    -0.266 OA
ATOM      9  N   UNL     1       0.294  -1.186  -0.754  0.00  0.00    -0.273 N 
ATOM     10  H   UNL     1      -0.166  -1.305  -1.746  0.00  0.00    +0.173 HD
ATOM     11  C   UNL     1       1.147  -0.168  -0.544  0.00  0.00    +0.331 A 
ATOM     12  O   UNL     1       1.391   0.604  -1.452  0.00  0.00    -0.246 OA
BRANCH   5  13
ATOM     13  N   UNL     1       2.080  -0.664   2.914  0.00  0.00    -0.343 N 
ATOM     14  H   UNL     1       1.864  -1.353   3.743  0.00  0.00    +0.144 HD
ATOM     15  H   UNL     1       2.779   0.173   3.062  0.00  0.00    +0.144 HD
ENDBRANCH   5  13
BRANCH   4  16
ATOM     16  C   UNL     1       2.671   1.125   0.842  0.00  0.00    +0.131 C 
BRANCH  16  18
ATOM     17  C   UNL     1       4.168   0.333  -0.995  0.00  0.00    +0.009 C 
ATOM     18  C   UNL     1       4.091   0.672   0.495  0.00  0.00    +0.003 C 
ATOM     19  C   UNL     1       5.077   1.797   0.814  0.00  0.00    +0.009 C 
ENDBRANCH  16  18
ENDBRANCH   4  16
ENDBRANCH   1   6
BRANCH   2  20
ATOM     20  C   UNL     1      -0.640  -0.915   3.801  0.00  0.00    +0.037 A 
ATOM     21  C   UNL     1      -0.887  -0.157   2.656  0.00  0.00    +0.013 A 
ATOM     22  C   UNL     1      -1.244   1.171   2.775  0.00  0.00    +0.006 A 
ATOM     23  C   UNL     1      -1.347   1.753   4.025  0.00  0.00    -0.030 A 
ATOM     24  C   UNL     1      -1.098   1.008   5.165  0.00  0.00    +0.006 A 
ATOM     25  C   UNL     1      -0.745  -0.321   5.060  0.00  0.00    +0.013 A 
BRANCH  23  26
ATOM     26  C   UNL     1      -1.732   3.205   4.148  0.00  0.00    +0.151 C 
BRANCH  26  27
ATOM     27  N   UNL     1      -0.524   4.033   4.130  0.00  0.00    -0.238 N 
ATOM     28  C   UNL     1       0.139   4.372   5.242  0.00  0.00    +0.223 C 
ATOM     29  O   UNL     1      -0.168   4.045   6.369  0.00  0.00    -0.275 OA
ATOM     30  C   UNL     1       1.334   5.223   4.871  0.00  0.00    +0.105 C 
ATOM     31  C   UNL     1       1.240   5.327   3.335  0.00  0.00    +0.105 C 
ATOM     32  C   UNL     1       0.005   4.519   3.000  0.00  0.00    +0.223 C 
ATOM     33  O   UNL     1      -0.436   4.340   1.885  0.00  0.00    -0.275 OA
ENDBRANCH  26  27
ENDBRANCH  23  26
ENDBRANCH   2  20
BRANCH   1  34
ATOM     34  C   UNL     1       0.625  -4.215   2.404  0.00  0.00    +0.117 C 
BRANCH  34  35
ATOM     35  C   UNL     1       2.091  -4.451   2.775  0.00  0.00    +0.001 C 
ATOM     36  C   UNL     1       2.304  -4.109   4.251  0.00  0.00    +0.009 C 
ATOM     37  C   UNL     1       2.448  -5.919   2.535  0.00  0.00    +0.009 C 
ENDBRANCH  34  35
ENDBRANCH   1  34
TORSDOF 9
