REMARK  Name = ZINC03333163
REMARK  8 active torsions:
REMARK  status: ('A' for Active; 'I' for Inactive)
REMARK    1  A    between atoms: C_4  and  C_7
REMARK    2  A    between atoms: C_7  and  C_8
REMARK    3  A    between atoms: C_8  and  C_10
REMARK    4  A    between atoms: C_8  and  N_28
REMARK    5  A    between atoms: N_12  and  C_13
REMARK    6  A    between atoms: C_13  and  C_14
REMARK    7  A    between atoms: C_14  and  N_15
REMARK    8  A    between atoms: C_19  and  C_20
REMARK                            x       y       z     vdW  Elec       q    Type
REMARK                         _______ _______ _______ _____ _____    ______ ____
ROOT
ATOM      1  C   UNL     1      11.279   2.363  -2.704  0.00  0.00    +0.175 C 
ENDROOT
BRANCH   1   2
ATOM      2  N   UNL     1      11.750   2.305  -4.090  0.00  0.00    -0.222 N 
ATOM      3  C   UNL     1      11.597   3.295  -4.988  0.00  0.00    +0.255 C 
ATOM      4  O   UNL     1      11.055   4.362  -4.781  0.00  0.00    -0.270 OA
ATOM      5  C   UNL     1      12.200   2.868  -6.268  0.00  0.00    +0.049 A 
ATOM      6  C   UNL     1      12.342   3.455  -7.515  0.00  0.00    +0.014 A 
ATOM      7  C   UNL     1      12.974   2.759  -8.534  0.00  0.00    +0.001 A 
ATOM      8  C   UNL     1      13.464   1.486  -8.314  0.00  0.00    +0.001 A 
ATOM      9  C   UNL     1      13.329   0.886  -7.072  0.00  0.00    +0.014 A 
ATOM     10  C   UNL     1      12.700   1.569  -6.044  0.00  0.00    +0.049 A 
ATOM     11  C   UNL     1      12.387   1.253  -4.634  0.00  0.00    +0.255 C 
ATOM     12  O   UNL     1      12.660   0.216  -4.062  0.00  0.00    -0.270 OA
ENDBRANCH   1   2
BRANCH   1  13
ATOM     13  C   UNL     1       9.786   2.563  -2.688  0.00  0.00    +0.234 C 
ATOM     14  O   UNL     1       9.174   2.648  -3.732  0.00  0.00    -0.274 OA
ATOM     15  N   UNL     1       9.129   2.647  -1.514  0.00  0.00    -0.312 N 
ATOM     16  H   UNL     1       9.618   2.579  -0.679  0.00  0.00    +0.149 HD
BRANCH  15  17
ATOM     17  C   UNL     1       7.677   2.841  -1.499  0.00  0.00    +0.123 C 
BRANCH  17  18
ATOM     18  C   UNL     1       7.185   2.902  -0.052  0.00  0.00    +0.136 C 
BRANCH  18  19
ATOM     19  N   UNL     1       5.733   3.096  -0.037  0.00  0.00    -0.227 N 
ATOM     20  C   UNL     1       4.936   2.042  -0.034  0.00  0.00    +0.260 C 
ATOM     21  O   UNL     1       5.389   0.912  -0.044  0.00  0.00    -0.269 OA
ATOM     22  C   UNL     1       3.526   2.268  -0.019  0.00  0.00    +0.080 C 
ATOM     23  C   UNL     1       2.503   1.367  -0.015  0.00  0.00    +0.035 C 
ATOM     24  S   UNL     1       3.468   4.055  -0.017  0.00  0.00    -0.026 S 
ATOM     25  C   UNL     1       5.229   4.350  -0.025  0.00  0.00    +0.286 C 
ATOM     26  O   UNL     1       5.825   5.411  -0.026  0.00  0.00    -0.262 OA
BRANCH  23  27
ATOM     27  C   UNL     1       1.163   1.819   0.001  0.00  0.00    +0.013 A 
ATOM     28  C   UNL     1      -0.013   1.076   0.008  0.00  0.00    +0.015 A 
ATOM     29  C   UNL     1      -1.192   1.777   0.017  0.00  0.00    +0.008 A 
ATOM     30  C   UNL     1      -1.157   3.136   0.030  0.00  0.00    +0.046 A 
ATOM     31  S   UNL     1       0.539   3.490   0.016  0.00  0.00    -0.097 S 
ENDBRANCH  23  27
ENDBRANCH  18  19
ENDBRANCH  17  18
ENDBRANCH  15  17
ENDBRANCH   1  13
BRANCH   1  32
ATOM     32  C   UNL     1      11.957   3.530  -1.984  0.00  0.00    +0.067 C 
BRANCH  32  36
ATOM     33  C   UNL     1      16.157   2.796  -1.721  0.00  0.00    +0.000 A 
ATOM     34  C   UNL     1      15.640   3.467  -2.812  0.00  0.00    +0.000 A 
ATOM     35  C   UNL     1      14.281   3.705  -2.898  0.00  0.00    +0.004 A 
ATOM     36  C   UNL     1      13.439   3.271  -1.891  0.00  0.00    -0.045 A 
ATOM     37  C   UNL     1      13.957   2.604  -0.796  0.00  0.00    +0.004 A 
ATOM     38  C   UNL     1      15.315   2.362  -0.714  0.00  0.00    +0.000 A 
ENDBRANCH  32  36
ENDBRANCH   1  32
TORSDOF 8
