REMARK  Name = ZINC19827212
REMARK  5 active torsions:
REMARK  status: ('A' for Active; 'I' for Inactive)
REMARK    1  A    between atoms: C_1  and  C_2
REMARK    2  A    between atoms: C_5  and  C_8
REMARK    3  A    between atoms: C_10  and  C_14
REMARK    4  A    between atoms: C_20  and  C_22
REMARK    5  A    between atoms: C_22  and  C_23
REMARK                            x       y       z     vdW  Elec       q    Type
REMARK                         _______ _______ _______ _____ _____    ______ ____
ROOT
ATOM      1  C   UNL     1      -0.879  -1.078   0.005  0.00  0.00    +0.203 A 
ATOM      2  N   UNL     1      -0.165  -2.182  -0.007  0.00  0.00    -0.125 NA
ATOM      3  N   UNL     1       1.089  -1.891  -0.018  0.00  0.00    -0.120 NA
ATOM      4  C   UNL     1       1.239  -0.600  -0.013  0.00  0.00    +0.218 A 
ATOM      5  N   UNL     1       0.002  -0.004   0.002  0.00  0.00    -0.184 N 
ATOM      6  N   UNL     1      -0.017   1.384   0.010  0.00  0.00    -0.160 NA
ATOM      7  C   UNL     1       1.083   2.077   0.003  0.00  0.00    +0.107 A 
ATOM      8  S   UNL     1       2.332   0.800  -0.016  0.00  0.00    -0.031 S 
ENDROOT
BRANCH   1  11
ATOM      9  C   UNL     1      -4.530  -1.506  -0.132  0.00  0.00    +0.093 A 
ATOM     10  C   UNL     1      -3.228  -2.017  -0.264  0.00  0.00    +0.061 A 
ATOM     11  C   UNL     1      -2.350  -0.995   0.020  0.00  0.00    +0.105 A 
ATOM     12  N   UNL     1      -3.095   0.109   0.323  0.00  0.00    -0.273 N 
ATOM     13  H   UNL     1      -2.597   1.052   0.592  0.00  0.00    +0.189 HD
ATOM     14  N   UNL     1      -4.447  -0.239   0.214  0.00  0.00    -0.173 NA
BRANCH   9  19
ATOM     15  C   UNL     1      -9.405  -4.459  -0.964  0.00  0.00    +0.044 C 
ATOM     16  C   UNL     1      -8.129  -3.686  -0.746  0.00  0.00    -0.050 A 
ATOM     17  C   UNL     1      -8.185  -2.353  -0.383  0.00  0.00    +0.004 A 
ATOM     18  C   UNL     1      -7.019  -1.641  -0.182  0.00  0.00    +0.010 A 
ATOM     19  C   UNL     1      -5.786  -2.267  -0.346  0.00  0.00    +0.002 A 
ATOM     20  C   UNL     1      -5.736  -3.609  -0.718  0.00  0.00    +0.010 A 
ATOM     21  C   UNL     1      -6.907  -4.313  -0.911  0.00  0.00    +0.004 A 
ENDBRANCH   9  19
ENDBRANCH   1  11
BRANCH   7  22
ATOM     22  C   UNL     1       1.259   3.574   0.009  0.00  0.00    +0.107 C 
BRANCH  22  23
ATOM     23  C   UNL     1       1.331   4.065   1.431  0.00  0.00    -0.004 A 
ATOM     24  C   UNL     1       2.418   4.221   2.227  0.00  0.00    +0.011 A 
ATOM     25  C   UNL     1       2.244   4.694   3.514  0.00  0.00    +0.008 A 
ATOM     26  C   UNL     1       0.992   4.988   3.943  0.00  0.00    +0.045 A 
ATOM     27  S   UNL     1       0.009   4.602   2.504  0.00  0.00    -0.101 S 
ENDBRANCH  22  23
ENDBRANCH   7  22
TORSDOF 4
