REMARK  Name = ZINC63280664
REMARK  5 active torsions:
REMARK  status: ('A' for Active; 'I' for Inactive)
REMARK    1  A    between atoms: C_7  and  C_10
REMARK    2  A    between atoms: C_10  and  C_11
REMARK    3  A    between atoms: C_11  and  N_12
REMARK    4  A    between atoms: C_13  and  C_32
REMARK    5  A    between atoms: C_17  and  C_25
REMARK                            x       y       z     vdW  Elec       q    Type
REMARK                         _______ _______ _______ _____ _____    ______ ____
ROOT
ATOM      1  N   UNL     1      -0.458  -4.798  -1.460  0.00  0.00    -0.292 N 
ATOM      2  C   UNL     1      -0.046  -6.235  -1.361  0.00  0.00    +0.116 C 
ATOM      3  C   UNL     1      -1.198  -6.911  -2.001  0.00  0.00    +0.077 C 
ATOM      4  C   UNL     1      -1.866  -8.232  -1.876  0.00  0.00    +0.136 C 
ATOM      5  N   UNL     1      -3.255  -7.841  -2.284  0.00  0.00    -0.305 N 
ATOM      6  N   UNL     1      -3.487  -6.635  -1.994  0.00  0.00    -0.203 NA
ATOM      7  C   UNL     1      -2.350  -6.095  -1.257  0.00  0.00    +0.218 C 
ATOM      8  C   UNL     1      -1.826  -4.719  -1.544  0.00  0.00    +0.243 C 
ATOM      9  O   UNL     1      -2.482  -3.732  -1.801  0.00  0.00    -0.273 OA
ATOM     10  H   UNL     1      -3.890  -8.435  -2.713  0.00  0.00    +0.183 HD
ENDROOT
BRANCH   4  11
ATOM     11  C   UNL     1      -1.275  -9.240  -2.828  0.00  0.00    -0.023 A 
ATOM     12  C   UNL     1      -1.650  -9.236  -4.159  0.00  0.00    +0.008 A 
ATOM     13  C   UNL     1      -1.108 -10.159  -5.032  0.00  0.00    +0.038 A 
ATOM     14  C   UNL     1      -0.190 -11.089  -4.575  0.00  0.00    +0.123 A 
ATOM     15  C   UNL     1       0.185 -11.092  -3.242  0.00  0.00    +0.038 A 
ATOM     16  C   UNL     1      -0.354 -10.164  -2.371  0.00  0.00    +0.008 A 
ATOM     17  F   UNL     1       0.340 -11.992  -5.428  0.00  0.00    -0.205 F 
ENDBRANCH   4  11
BRANCH   2  18
ATOM     18  C   UNL     1       1.226  -6.488  -2.128  0.00  0.00    -0.009 A 
ATOM     19  C   UNL     1       2.187  -7.354  -1.628  0.00  0.00    +0.008 A 
ATOM     20  C   UNL     1       3.342  -7.557  -2.368  0.00  0.00    +0.020 A 
ATOM     21  C   UNL     1       3.496  -6.893  -3.571  0.00  0.00    +0.111 A 
ATOM     22  N   UNL     1       2.562  -6.076  -4.015  0.00  0.00    -0.263 NA
ATOM     23  C   UNL     1       1.448  -5.864  -3.341  0.00  0.00    +0.116 A 
ENDBRANCH   2  18
BRANCH   1  24
ATOM     24  C   UNL     1       0.457  -3.653  -1.462  0.00  0.00    +0.113 C 
BRANCH  24  25
ATOM     25  C   UNL     1       0.691  -3.186  -0.024  0.00  0.00    +0.052 C 
BRANCH  25  32
ATOM     26  C   UNL     1      -0.016   1.348   0.009  0.00  0.00    +0.001 A 
ATOM     27  C   UNL     1       1.166   2.101   0.002  0.00  0.00    +0.002 A 
ATOM     28  C   UNL     1       2.391   1.535  -0.013  0.00  0.00    +0.026 A 
ATOM     29  C   UNL     1       2.529   0.120  -0.022  0.00  0.00    +0.043 A 
ATOM     30  N   UNL     1       3.587  -0.654  -0.037  0.00  0.00    -0.380 N 
ATOM     31  C   UNL     1       3.143  -2.053  -0.041  0.00  0.00    +0.144 C 
ATOM     32  C   UNL     1       1.631  -2.008  -0.025  0.00  0.00    -0.040 C 
ATOM     33  C   UNL     1       1.295  -0.698  -0.014  0.00  0.00    -0.001 A 
ATOM     34  C   UNL     1       0.002  -0.004   0.002  0.00  0.00    +0.010 A 
ATOM     35  H   UNL     1       4.509  -0.353  -0.045  0.00  0.00    +0.160 HD
ENDBRANCH  25  32
ENDBRANCH  24  25
ENDBRANCH   1  24
TORSDOF 5
