REMARK  Name = ZINC40070800
REMARK  11 active torsions:
REMARK  status: ('A' for Active; 'I' for Inactive)
REMARK    1  A    between atoms: C_1  and  C_2
REMARK    2  A    between atoms: C_3  and  C_33
REMARK    3  A    between atoms: C_4  and  C_32
REMARK    4  A    between atoms: C_7  and  C_8
REMARK    5  A    between atoms: C_8  and  C_10
REMARK    6  A    between atoms: C_10  and  C_12
REMARK    7  A    between atoms: C_10  and  S_13
REMARK    8  A    between atoms: S_13  and  C_14
REMARK    9  A    between atoms: C_18  and  C_23
REMARK   10  A    between atoms: N_19  and  C_20
REMARK   11  A    between atoms: C_33  and  C_35
REMARK                            x       y       z     vdW  Elec       q    Type
REMARK                         _______ _______ _______ _____ _____    ______ ____
ROOT
ATOM      1  C   UNL     1      -0.917  -2.120   6.205  0.00  0.00    +0.237 C 
ATOM      2  N   UNL     1      -1.552  -3.210   5.445  0.00  0.00    -0.237 N 
ATOM      3  N   UNL     1      -0.661  -4.288   5.474  0.00  0.00    -0.169 NA
ATOM      4  C   UNL     1       0.420  -3.992   6.147  0.00  0.00    +0.147 C 
ATOM      5  N   UNL     1       0.370  -2.684   6.644  0.00  0.00    -0.282 N 
ATOM      6  H   UNL     1      -2.419  -3.185   5.010  0.00  0.00    +0.171 HD
ENDROOT
BRANCH   4   7
ATOM      7  C   UNL     1       1.493  -4.874   6.348  0.00  0.00    +0.022 C 
ATOM      8  C   UNL     1       1.563  -6.216   5.974  0.00  0.00    +0.006 A 
ATOM      9  C   UNL     1       0.653  -7.072   5.318  0.00  0.00    +0.010 A 
ATOM     10  C   UNL     1       0.996  -8.363   5.077  0.00  0.00    +0.001 A 
ATOM     11  C   UNL     1       2.237  -8.875   5.463  0.00  0.00    +0.002 A 
ATOM     12  C   UNL     1       3.159  -8.110   6.097  0.00  0.00    +0.026 A 
ATOM     13  C   UNL     1       2.872  -6.750   6.383  0.00  0.00    +0.043 A 
ATOM     14  N   UNL     1       3.587  -5.814   6.977  0.00  0.00    -0.380 N 
ATOM     15  C   UNL     1       2.817  -4.567   7.011  0.00  0.00    +0.152 C 
ATOM     16  H   UNL     1       4.482  -5.931   7.332  0.00  0.00    +0.160 HD
ENDBRANCH   4   7
BRANCH   5  17
ATOM     17  C   UNL     1       1.395  -2.008   7.442  0.00  0.00    +0.078 C 
ATOM     18  C   UNL     1       1.032  -1.622   8.878  0.00  0.00    +0.024 C 
ATOM     19  C   UNL     1       1.156  -0.540   7.803  0.00  0.00    +0.024 C 
ENDBRANCH   5  17
BRANCH   1  20
ATOM     20  S   UNL     1      -0.647  -0.677   5.140  0.00  0.00    -0.107 S 
BRANCH  20  21
ATOM     21  C   UNL     1       0.356  -1.321   3.773  0.00  0.00    +0.119 C 
ATOM     22  C   UNL     1       1.717  -1.770   4.306  0.00  0.00    +0.027 C 
BRANCH  21  23
ATOM     23  C   UNL     1       0.552  -0.241   2.741  0.00  0.00    +0.192 C 
ATOM     24  O   UNL     1       0.486   0.927   3.065  0.00  0.00    -0.289 OA
BRANCH  23  31
ATOM     25  C   UNL     1       0.991   1.800   0.439  0.00  0.00    +0.047 C 
ATOM     26  C   UNL     1       1.012   0.295   0.355  0.00  0.00    -0.012 A 
ATOM     27  C   UNL     1       1.246  -0.481  -0.803  0.00  0.00    +0.041 A 
ATOM     28  C   UNL     1       1.174  -1.814  -0.422  0.00  0.00    +0.024 A 
ATOM     29  N   UNL     1       0.912  -1.870   0.891  0.00  0.00    -0.355 N 
ATOM     30  H   UNL     1       0.812  -2.684   1.409  0.00  0.00    +0.166 HD
ATOM     31  C   UNL     1       0.814  -0.588   1.393  0.00  0.00    +0.087 A 
ATOM     32  C   UNL     1       1.360  -3.000  -1.333  0.00  0.00    +0.064 C 
BRANCH  27  33
ATOM     33  C   UNL     1       1.513   0.025  -2.153  0.00  0.00    +0.162 C 
ATOM     34  O   UNL     1       0.598   0.183  -2.933  0.00  0.00    -0.292 OA
ATOM     35  C   UNL     1       2.924   0.350  -2.570  0.00  0.00    +0.091 C 
ENDBRANCH  27  33
ENDBRANCH  23  31
ENDBRANCH  21  23
ENDBRANCH  20  21
ENDBRANCH   1  20
TORSDOF 7
