REMARK  Name = ZINC25629122
REMARK  8 active torsions:
REMARK  status: ('A' for Active; 'I' for Inactive)
REMARK    1  A    between atoms: C_1  and  C_2
REMARK    2  A    between atoms: C_5  and  N_8
REMARK    3  A    between atoms: C_12  and  C_14
REMARK    4  A    between atoms: C_14  and  S_15
REMARK    5  A    between atoms: S_15  and  C_16
REMARK    6  A    between atoms: C_19  and  C_28
REMARK    7  A    between atoms: N_20  and  C_21
REMARK    8  A    between atoms: C_21  and  C_22
REMARK                            x       y       z     vdW  Elec       q    Type
REMARK                         _______ _______ _______ _____ _____    ______ ____
ROOT
ATOM      1  S   UNL     1       1.755  -2.125  -0.017  0.00  0.00    -0.077 S 
ENDROOT
BRANCH   1   2
ATOM      2  C   UNL     1       1.241  -0.440   0.007  0.00  0.00    +0.192 A 
ATOM      3  N   UNL     1       0.002  -0.004   0.030  0.00  0.00    -0.122 NA
ATOM      4  N   UNL     1      -0.016   1.281   0.044  0.00  0.00    -0.128 NA
ATOM      5  C   UNL     1       1.214   1.746   0.030  0.00  0.00    +0.172 A 
ATOM      6  N   UNL     1       2.057   0.657   0.006  0.00  0.00    -0.299 N 
BRANCH   5   7
ATOM      7  C   UNL     1       1.613   3.163   0.038  0.00  0.00    +0.056 A 
ATOM      8  C   UNL     1       0.861   4.272   0.331  0.00  0.00    +0.019 A 
ATOM      9  C   UNL     1       1.460   5.510   0.276  0.00  0.00    +0.008 A 
ATOM     10  C   UNL     1       2.769   5.598  -0.077  0.00  0.00    +0.046 A 
ATOM     11  S   UNL     1       3.202   3.886  -0.338  0.00  0.00    -0.094 S 
ENDBRANCH   5   7
BRANCH   6  12
ATOM     12  C   UNL     1       3.521   0.672  -0.016  0.00  0.00    +0.157 C 
BRANCH  12  13
ATOM     13  C   UNL     1       4.009   0.691  -1.466  0.00  0.00    +0.138 C 
ATOM     14  C   UNL     1       5.549   0.584  -1.502  0.00  0.00    +0.035 C 
ATOM     15  C   UNL     1       5.919   1.564  -2.650  0.00  0.00    +0.031 C 
ATOM     16  C   UNL     1       4.826   2.648  -2.478  0.00  0.00    +0.160 C 
ATOM     17  O   UNL     1       3.645   1.931  -2.085  0.00  0.00    -0.375 OA
ENDBRANCH  12  13
ENDBRANCH   6  12
ENDBRANCH   1   2
BRANCH   1  18
ATOM     18  C   UNL     1       0.143  -2.946  -0.002  0.00  0.00    +0.173 C 
BRANCH  18  23
ATOM     19  N   UNL     1      -1.621  -7.418  -0.020  0.00  0.00    -0.269 N 
ATOM     20  C   UNL     1      -0.553  -6.597  -0.028  0.00  0.00    +0.310 C 
ATOM     21  O   UNL     1       0.570  -7.062  -0.049  0.00  0.00    -0.252 OA
ATOM     22  N   UNL     1      -0.729  -5.261  -0.011  0.00  0.00    -0.239 N 
ATOM     23  C   UNL     1       0.340  -4.440  -0.019  0.00  0.00    +0.231 C 
ATOM     24  O   UNL     1       1.460  -4.904  -0.041  0.00  0.00    -0.274 OA
ATOM     25  H   UNL     1      -2.635  -7.001   0.076  0.00  0.00    +0.156 HD
ATOM     26  H   UNL     1      -1.745  -4.841   0.008  0.00  0.00    +0.159 HD
BRANCH  19  31
ATOM     27  C   UNL     1      -0.895 -13.026  -0.482  0.00  0.00    +0.044 C 
ATOM     28  C   UNL     1      -1.088 -11.536  -0.359  0.00  0.00    -0.050 A 
ATOM     29  C   UNL     1      -0.162 -10.775   0.330  0.00  0.00    +0.005 A 
ATOM     30  C   UNL     1      -0.336  -9.409   0.444  0.00  0.00    +0.023 A 
ATOM     31  C   UNL     1      -1.442  -8.801  -0.134  0.00  0.00    +0.035 A 
ATOM     32  C   UNL     1      -2.373  -9.569  -0.820  0.00  0.00    +0.023 A 
ATOM     33  C   UNL     1      -2.191 -10.933  -0.936  0.00  0.00    +0.005 A 
ENDBRANCH  19  31
ENDBRANCH  18  23
ENDBRANCH   1  18
TORSDOF 7
