REMARK  Name = ZINC09358164
REMARK  5 active torsions:
REMARK  status: ('A' for Active; 'I' for Inactive)
REMARK    1  A    between atoms: C_1  and  C_2
REMARK    2  A    between atoms: N_11  and  C_12
REMARK    3  A    between atoms: N_17  and  C_20
REMARK    4  A    between atoms: C_20  and  C_21
REMARK    5  A    between atoms: C_21  and  C_22
REMARK                            x       y       z     vdW  Elec       q    Type
REMARK                         _______ _______ _______ _____ _____    ______ ____
ROOT
ATOM      1  C   UNL     1      -0.845   1.425   0.254  0.00  0.00    +0.044 C 
ATOM      2  C   UNL     1      -0.604  -0.061   0.180  0.00  0.00    -0.050 A 
ATOM      3  C   UNL     1      -0.608  -0.701  -1.046  0.00  0.00    +0.005 A 
ATOM      4  C   UNL     1      -0.389  -2.062  -1.112  0.00  0.00    +0.023 A 
ATOM      5  C   UNL     1      -0.165  -2.789   0.052  0.00  0.00    +0.033 A 
ATOM      6  C   UNL     1      -0.159  -2.146   1.280  0.00  0.00    -0.025 A 
ATOM      7  C   UNL     1      -0.376  -0.780   1.338  0.00  0.00    +0.008 A 
ATOM      8  C   UNL     1       0.090  -2.899   2.561  0.00  0.00    +0.064 C 
ATOM      9  C   UNL     1      -0.193  -4.390   2.369  0.00  0.00    +0.143 C 
ATOM     10  C   UNL     1       0.579  -4.881   1.135  0.00  0.00    +0.130 C 
ATOM     11  N   UNL     1       0.050  -4.168  -0.036  0.00  0.00    -0.331 N 
ATOM     12  C   UNL     1      -0.247  -4.891  -1.275  0.00  0.00    +0.129 C 
ATOM     13  C   UNL     1      -1.665  -4.598   2.148  0.00  0.00    +0.237 C 
ATOM     14  N   UNL     1      -2.400  -5.373   2.957  0.00  0.00    -0.239 N 
ATOM     15  C   UNL     1      -1.866  -6.007   4.012  0.00  0.00    +0.315 C 
ATOM     16  O   UNL     1      -2.579  -6.698   4.711  0.00  0.00    -0.252 OA
ATOM     17  N   UNL     1      -0.563  -5.896   4.313  0.00  0.00    -0.225 N 
ATOM     18  C   UNL     1       0.273  -5.150   3.579  0.00  0.00    +0.240 C 
ATOM     19  O   UNL     1       1.441  -5.087   3.899  0.00  0.00    -0.274 OA
ATOM     20  O   UNL     1      -2.202  -4.050   1.210  0.00  0.00    -0.274 OA
ATOM     21  H   UNL     1      -3.347  -5.479   2.775  0.00  0.00    +0.159 HD
ENDROOT
BRANCH  17  22
ATOM     22  C   UNL     1      -0.040  -6.612   5.479  0.00  0.00    +0.122 C 
BRANCH  22  23
ATOM     23  C   UNL     1       0.431  -8.004   5.054  0.00  0.00    +0.050 C 
BRANCH  23  24
ATOM     24  C   UNL     1       0.969  -8.740   6.254  0.00  0.00    -0.072 C 
ATOM     25  C   UNL     1       0.168  -9.536   6.888  0.00  0.00    -0.028 C 
ATOM     26  C   UNL     1       0.556 -10.326   8.103  0.00  0.00    +0.027 C 
ATOM     27  C   UNL     1       2.080 -10.396   8.222  0.00  0.00    +0.004 C 
ATOM     28  C   UNL     1       2.643  -8.976   8.075  0.00  0.00    +0.005 C 
ATOM     29  C   UNL     1       2.402  -8.510   6.636  0.00  0.00    +0.030 C 
ENDBRANCH  23  24
ENDBRANCH  22  23
ENDBRANCH  17  22
TORSDOF 3
