REMARK  Name = ZINC64103076
REMARK  6 active torsions:
REMARK  status: ('A' for Active; 'I' for Inactive)
REMARK    1  A    between atoms: C_1  and  C_2
REMARK    2  A    between atoms: C_3  and  C_4
REMARK    3  A    between atoms: C_3  and  C_5
REMARK    4  A    between atoms: C_5  and  N_6
REMARK    5  A    between atoms: C_19  and  C_21
REMARK    6  A    between atoms: N_30  and  C_31
REMARK                            x       y       z     vdW  Elec       q    Type
REMARK                         _______ _______ _______ _____ _____    ______ ____
ROOT
ATOM      1  N   UNL     1      -0.646  -2.829  -1.967  0.00  0.00    -0.290 NA
ATOM      2  C   UNL     1      -0.346  -2.548  -3.374  0.00  0.00    +0.089 C 
ATOM      3  C   UNL     1      -1.537  -2.950  -4.263  0.00  0.00    +0.049 C 
ATOM      4  C   UNL     1      -1.902  -4.359  -3.866  0.00  0.00    -0.036 C 
ATOM      5  C   UNL     1      -2.113  -5.459  -4.573  0.00  0.00    -0.001 A 
ATOM      6  C   UNL     1      -2.205  -5.692  -6.024  0.00  0.00    +0.010 A 
ATOM      7  C   UNL     1      -2.409  -6.978  -6.413  0.00  0.00    +0.001 A 
ATOM      8  C   UNL     1      -2.529  -8.044  -5.516  0.00  0.00    +0.002 A 
ATOM      9  C   UNL     1      -2.467  -7.920  -4.166  0.00  0.00    +0.026 A 
ATOM     10  C   UNL     1      -2.266  -6.613  -3.635  0.00  0.00    +0.043 A 
ATOM     11  N   UNL     1      -2.199  -6.208  -2.400  0.00  0.00    -0.376 N 
ATOM     12  C   UNL     1      -2.071  -4.752  -2.402  0.00  0.00    +0.127 C 
ATOM     13  C   UNL     1      -0.813  -4.263  -1.682  0.00  0.00    +0.122 C 
ATOM     14  H   UNL     1      -2.228  -6.775  -1.614  0.00  0.00    +0.160 HD
ENDROOT
BRANCH  13  15
ATOM     15  C   UNL     1      -0.966  -4.475  -0.174  0.00  0.00    +0.178 C 
ATOM     16  N   UNL     1      -1.946  -3.529   0.373  0.00  0.00    -0.323 N 
ATOM     17  C   UNL     1      -1.279  -2.736   1.318  0.00  0.00    +0.050 A 
ATOM     18  C   UNL     1      -1.746  -1.699   2.116  0.00  0.00    +0.025 A 
ATOM     19  C   UNL     1      -0.888  -1.054   2.987  0.00  0.00    +0.002 A 
ATOM     20  C   UNL     1       0.437  -1.439   3.068  0.00  0.00    +0.002 A 
ATOM     21  C   UNL     1       0.910  -2.469   2.278  0.00  0.00    +0.025 A 
ATOM     22  C   UNL     1       0.056  -3.123   1.399  0.00  0.00    +0.052 A 
ATOM     23  N   UNL     1       0.299  -4.181   0.509  0.00  0.00    -0.312 N 
ATOM     24  C   UNL     1       1.578  -4.865   0.301  0.00  0.00    +0.131 C 
ATOM     25  H   UNL     1      -2.882  -3.464   0.127  0.00  0.00    +0.148 HD
ENDBRANCH  13  15
BRANCH   1  26
ATOM     26  C   UNL     1       0.363  -2.230  -1.084  0.00  0.00    +0.115 C 
BRANCH  26  29
ATOM     27  C   UNL     1       0.623   1.542  -1.758  0.00  0.00    +0.035 C 
ATOM     28  C   UNL     1       0.203   0.203  -1.207  0.00  0.00    -0.030 C 
ATOM     29  C   UNL     1       0.782  -0.891  -1.635  0.00  0.00    -0.063 C 
ATOM     30  C   UNL     1       1.867  -0.812  -2.678  0.00  0.00    +0.040 C 
ENDBRANCH  26  29
ENDBRANCH   1  26
TORSDOF 3
