REMARK  Name = ZINC39546052
REMARK  11 active torsions:
REMARK  status: ('A' for Active; 'I' for Inactive)
REMARK    1  A    between atoms: C_1  and  C_2
REMARK    2  A    between atoms: C_2  and  C_3
REMARK    3  A    between atoms: C_2  and  S_4
REMARK    4  A    between atoms: S_4  and  N_7
REMARK    5  A    between atoms: N_7  and  S_31
REMARK    6  A    between atoms: C_8  and  C_10
REMARK    7  A    between atoms: C_13  and  C_24
REMARK    8  A    between atoms: C_29  and  O_30
REMARK    9  A    between atoms: S_31  and  C_34
REMARK   10  A    between atoms: C_34  and  C_35
REMARK   11  A    between atoms: C_34  and  C_36
REMARK                            x       y       z     vdW  Elec       q    Type
REMARK                         _______ _______ _______ _____ _____    ______ ____
ROOT
ATOM      1  C   UNL     1       4.698  -1.370  -0.972  0.00  0.00    +0.152 C 
ATOM      2  C   UNL     1       5.119  -0.586   0.286  0.00  0.00    +0.069 C 
ATOM      3  C   UNL     1       5.819  -1.613   1.147  0.00  0.00    -0.000 C 
ATOM      4  C   UNL     1       5.824  -2.779   0.517  0.00  0.00    +0.079 C 
ATOM      5  N   UNL     1       6.350  -3.983   1.008  0.00  0.00    -0.303 N 
ATOM      6  C   UNL     1       5.619  -5.132   0.661  0.00  0.00    +0.037 A 
ATOM      7  C   UNL     1       5.981  -6.364   1.187  0.00  0.00    +0.023 A 
ATOM      8  C   UNL     1       5.269  -7.495   0.839  0.00  0.00    +0.002 A 
ATOM      9  C   UNL     1       4.199  -7.393  -0.033  0.00  0.00    +0.000 A 
ATOM     10  C   UNL     1       3.837  -6.166  -0.553  0.00  0.00    +0.007 A 
ATOM     11  C   UNL     1       4.541  -5.025  -0.206  0.00  0.00    -0.010 A 
ATOM     12  C   UNL     1       4.106  -3.698  -0.769  0.00  0.00    +0.124 C 
ATOM     13  N   UNL     1       5.209  -2.731  -0.745  0.00  0.00    -0.369 NA
ATOM     14  H   UNL     1       7.156  -4.019   1.545  0.00  0.00    +0.153 HD
ATOM     15  H   UNL     1       5.881  -2.965  -1.460  0.00  0.00    +0.128 HD
ENDROOT
BRANCH   3  16
ATOM     16  C   UNL     1       6.405  -1.358   2.477  0.00  0.00    +0.023 A 
ATOM     17  C   UNL     1       7.790  -1.255   2.625  0.00  0.00    +0.012 A 
ATOM     18  C   UNL     1       8.332  -1.016   3.871  0.00  0.00    +0.001 A 
ATOM     19  C   UNL     1       7.509  -0.878   4.975  0.00  0.00    +0.004 A 
ATOM     20  C   UNL     1       6.136  -0.978   4.840  0.00  0.00    +0.046 A 
ATOM     21  C   UNL     1       5.576  -1.211   3.596  0.00  0.00    +0.124 A 
BRANCH  21  22
ATOM     22  O   UNL     1       4.227  -1.304   3.462  0.00  0.00    -0.506 OA
ATOM     23  H   UNL     1       3.881  -2.200   3.570  0.00  0.00    +0.292 HD
ENDBRANCH  21  22
ENDBRANCH   3  16
BRANCH   1  25
ATOM     24  N   UNL     1       2.614  -0.898  -2.218  0.00  0.00    -0.041 N 
ATOM     25  C   UNL     1       3.197  -1.386  -1.105  0.00  0.00    +0.274 C 
ATOM     26  O   UNL     1       2.514  -1.838  -0.211  0.00  0.00    -0.270 OA
BRANCH  24  27
ATOM     27  S   UNL     1       0.984  -1.076  -2.444  0.00  0.00    +0.068 S 
ATOM     28  O   UNL     1       0.625  -2.191  -1.639  0.00  0.00    -0.153 OA
ATOM     29  O   UNL     1       0.815  -1.116  -3.854  0.00  0.00    -0.153 OA
BRANCH  27  31
ATOM     30  C   UNL     1       0.747   1.646  -2.574  0.00  0.00    +0.033 C 
ATOM     31  C   UNL     1       0.252   0.442  -1.771  0.00  0.00    +0.147 C 
ATOM     32  C   UNL     1      -1.273   0.358  -1.865  0.00  0.00    +0.033 C 
ENDBRANCH  27  31
ENDBRANCH  24  27
BRANCH  24  33
ATOM     33  S   UNL     1       3.529  -0.122  -3.360  0.00  0.00    +0.068 S 
ATOM     34  O   UNL     1       2.607   0.695  -4.068  0.00  0.00    -0.153 OA
ATOM     35  O   UNL     1       4.601   0.460  -2.631  0.00  0.00    -0.153 OA
BRANCH  33  36
ATOM     36  C   UNL     1       4.149  -1.443  -4.437  0.00  0.00    +0.147 C 
ATOM     37  C   UNL     1       5.098  -2.345  -3.644  0.00  0.00    +0.033 C 
ATOM     38  C   UNL     1       2.973  -2.272  -4.957  0.00  0.00    +0.033 C 
ENDBRANCH  33  36
ENDBRANCH  24  33
ENDBRANCH   1  25
TORSDOF 7
