REMARK  Name = ZINC13064960
REMARK  12 active torsions:
REMARK  status: ('A' for Active; 'I' for Inactive)
REMARK    1  A    between atoms: C_1  and  C_2
REMARK    2  A    between atoms: C_2  and  C_3
REMARK    3  A    between atoms: C_3  and  C_5
REMARK    4  A    between atoms: C_3  and  N_69
REMARK    5  A    between atoms: N_9  and  C_10
REMARK    6  A    between atoms: C_10  and  C_11
REMARK    7  A    between atoms: C_16  and  C_17
REMARK    8  A    between atoms: C_16  and  N_69
REMARK    9  A    between atoms: C_26  and  C_27
REMARK   10  A    between atoms: C_26  and  N_69
REMARK   11  A    between atoms: C_30  and  C_40
REMARK   12  A    between atoms: C_32  and  C_39
REMARK                            x       y       z     vdW  Elec       q    Type
REMARK                         _______ _______ _______ _____ _____    ______ ____
ROOT
ATOM      1  N   UNL     1       4.936  -1.076   4.075  0.00  0.00    +0.392 N 
ATOM      2  H   UNL     1       4.206  -1.773   4.264  0.00  0.00    -0.080 HD
ENDROOT
BRANCH   1   3
ATOM      3  C   UNL     1       5.935  -1.122   5.163  0.00  0.00    +0.003 C 
BRANCH   3   4
ATOM      4  C   UNL     1       6.840   0.082   5.100  0.00  0.00    +0.139 A 
ATOM      5  N   UNL     1       6.477   1.338   5.191  0.00  0.00    -0.115 NA
ATOM      6  N   UNL     1       7.536   2.066   5.094  0.00  0.00    -0.023 NA
ATOM      7  N   UNL     1       8.564   1.306   4.936  0.00  0.00    -0.044 NA
ATOM      8  N   UNL     1       8.175   0.076   4.935  0.00  0.00    -0.223 N 
BRANCH   8   9
ATOM      9  C   UNL     1       9.028  -1.105   4.781  0.00  0.00    +0.221 C 
BRANCH   9  10
ATOM     10  C   UNL     1       9.462  -1.229   3.343  0.00  0.00    +0.126 A 
ATOM     11  C   UNL     1      10.627  -0.792   2.833  0.00  0.00    +0.046 A 
ATOM     12  C   UNL     1      10.618  -1.114   1.456  0.00  0.00    +0.041 A 
ATOM     13  C   UNL     1       9.444  -1.721   1.206  0.00  0.00    +0.195 A 
ATOM     14  O   UNL     1       8.748  -1.788   2.353  0.00  0.00    -0.466 OA
ENDBRANCH   9  10
ENDBRANCH   8   9
ENDBRANCH   3   4
BRANCH   3  16
ATOM     15  C   UNL     1       4.342  -2.401   6.601  0.00  0.00    +0.002 C 
ATOM     16  C   UNL     1       5.201  -1.139   6.505  0.00  0.00    -0.011 C 
ENDBRANCH   3  16
ENDBRANCH   1   3
BRANCH   1  17
ATOM     17  C   UNL     1       5.580  -1.393   2.784  0.00  0.00    -0.041 C 
BRANCH  17  18
ATOM     18  C   UNL     1       5.762  -2.886   2.688  0.00  0.00    -0.060 A 
ATOM     19  C   UNL     1       6.879  -3.482   3.244  0.00  0.00    +0.005 A 
ATOM     20  C   UNL     1       7.049  -4.851   3.160  0.00  0.00    +0.050 A 
ATOM     21  C   UNL     1       6.101  -5.630   2.517  0.00  0.00    +0.166 A 
ATOM     22  C   UNL     1       4.976  -5.029   1.957  0.00  0.00    +0.166 A 
ATOM     23  C   UNL     1       4.811  -3.657   2.045  0.00  0.00    +0.051 A 
ATOM     24  O   UNL     1       4.202  -5.999   1.387  0.00  0.00    -0.453 OA
ATOM     25  C   UNL     1       4.658  -7.239   1.958  0.00  0.00    +0.466 C 
ATOM     26  O   UNL     1       6.032  -6.975   2.298  0.00  0.00    -0.453 OA
ENDBRANCH  17  18
ENDBRANCH   1  17
BRANCH   1  27
ATOM     27  C   UNL     1       4.316   0.264   4.015  0.00  0.00    -0.036 C 
BRANCH  27  28
ATOM     28  C   UNL     1       3.041   0.171   3.217  0.00  0.00    +0.001 A 
ATOM     29  C   UNL     1       1.864  -0.062   3.849  0.00  0.00    +0.017 A 
ATOM     30  C   UNL     1       0.643  -0.146   3.045  0.00  0.00    +0.002 A 
ATOM     31  C   UNL     1      -0.600  -0.384   3.640  0.00  0.00    -0.041 A 
ATOM     32  C   UNL     1      -1.721  -0.457   2.862  0.00  0.00    +0.007 A 
ATOM     33  C   UNL     1      -1.636  -0.297   1.485  0.00  0.00    -0.048 A 
ATOM     34  C   UNL     1      -0.422  -0.062   0.878  0.00  0.00    +0.029 A 
ATOM     35  C   UNL     1       0.733   0.017   1.650  0.00  0.00    +0.050 A 
ATOM     36  N   UNL     1       1.960   0.252   1.068  0.00  0.00    -0.322 N 
ATOM     37  H   UNL     1       2.020   0.364   0.107  0.00  0.00    +0.169 HD
ATOM     38  C   UNL     1       3.075   0.333   1.816  0.00  0.00    +0.251 A 
ATOM     39  O   UNL     1       4.143   0.547   1.268  0.00  0.00    -0.268 OA
ATOM     40  C   UNL     1      -2.886  -0.381   0.647  0.00  0.00    +0.044 C 
ATOM     41  C   UNL     1      -0.703  -0.560   5.133  0.00  0.00    +0.044 C 
ENDBRANCH  27  28
ENDBRANCH   1  27
TORSDOF 9
