REMARK  Name = ZINC41545678
REMARK  8 active torsions:
REMARK  status: ('A' for Active; 'I' for Inactive)
REMARK    1  A    between atoms: C_1  and  C_2
REMARK    2  A    between atoms: C_3  and  C_26
REMARK    3  A    between atoms: C_5  and  N_11
REMARK    4  A    between atoms: C_6  and  C_7
REMARK    5  A    between atoms: C_7  and  O_9
REMARK    6  A    between atoms: O_9  and  C_10
REMARK    7  A    between atoms: C_12  and  C_14
REMARK    8  A    between atoms: C_14  and  C_25
REMARK                            x       y       z     vdW  Elec       q    Type
REMARK                         _______ _______ _______ _____ _____    ______ ____
ROOT
ATOM      1  N   UNL     1       0.055  -3.118   2.081  0.00  0.00    -0.276 N 
ATOM      2  C   UNL     1       0.072  -4.427   1.760  0.00  0.00    +0.270 C 
ATOM      3  O   UNL     1       0.072  -4.765   0.595  0.00  0.00    -0.271 OA
ATOM      4  H   UNL     1       0.055  -2.848   3.013  0.00  0.00    +0.155 HD
ENDROOT
BRANCH   2   5
ATOM      5  C   UNL     1       0.092  -5.470   2.847  0.00  0.00    +0.258 C 
ATOM      6  C   UNL     1      -0.488  -6.757   2.318  0.00  0.00    +0.270 C 
ATOM      7  O   UNL     1      -0.429  -7.011   1.134  0.00  0.00    -0.271 OA
ATOM      8  N   UNL     1      -1.074  -7.626   3.169  0.00  0.00    -0.279 N 
ATOM      9  C   UNL     1      -1.246  -7.260   4.511  0.00  0.00    +0.076 A 
ATOM     10  C   UNL     1      -1.630  -8.199   5.454  0.00  0.00    +0.027 A 
ATOM     11  C   UNL     1      -1.782  -7.824   6.776  0.00  0.00    +0.002 A 
ATOM     12  C   UNL     1      -1.552  -6.516   7.159  0.00  0.00    +0.004 A 
ATOM     13  C   UNL     1      -1.173  -5.572   6.221  0.00  0.00    +0.047 A 
ATOM     14  C   UNL     1      -1.024  -5.939   4.894  0.00  0.00    +0.144 A 
ATOM     15  O   UNL     1      -0.683  -5.013   3.958  0.00  0.00    -0.465 OA
ATOM     16  C   UNL     1       1.535  -5.710   3.297  0.00  0.00    +0.076 C 
ATOM     17  H   UNL     1      -1.373  -8.494   2.855  0.00  0.00    +0.155 HD
ENDBRANCH   2   5
BRANCH   1  22
ATOM     18  C   UNL     1      -0.018   1.503   0.010  0.00  0.00    +0.045 C 
ATOM     19  C   UNL     1       0.002  -0.004   0.002  0.00  0.00    -0.025 A 
ATOM     20  C   UNL     1       0.007  -0.712  -1.142  0.00  0.00    -0.008 A 
ATOM     21  S   UNL     1       0.033  -2.400  -0.580  0.00  0.00    -0.078 S 
ATOM     22  C   UNL     1       0.037  -2.159   1.081  0.00  0.00    +0.086 A 
ATOM     23  C   UNL     1       0.024  -0.778   1.223  0.00  0.00    +0.091 A 
ATOM     24  C   UNL     1      -0.007  -0.199  -2.559  0.00  0.00    +0.052 C 
BRANCH  23  25
ATOM     25  C   UNL     1       0.028  -0.139   2.540  0.00  0.00    +0.342 C 
ATOM     26  O   UNL     1      -1.024   0.112   3.097  0.00  0.00    -0.245 OA
BRANCH  25  27
ATOM     27  O   UNL     1       1.198   0.171   3.136  0.00  0.00    -0.464 OA
ATOM     28  C   UNL     1       1.127   0.793   4.420  0.00  0.00    +0.280 C 
ENDBRANCH  25  27
ENDBRANCH  23  25
ENDBRANCH   1  22
TORSDOF 4
