REMARK  Name = ZINC35539294
REMARK  7 active torsions:
REMARK  status: ('A' for Active; 'I' for Inactive)
REMARK    1  A    between atoms: C_1  and  C_2
REMARK    2  A    between atoms: C_2  and  C_3
REMARK    3  A    between atoms: C_5  and  C_8
REMARK    4  A    between atoms: C_10  and  S_14
REMARK    5  A    between atoms: C_11  and  C_13
REMARK    6  A    between atoms: S_14  and  N_17
REMARK    7  A    between atoms: C_20  and  C_24
REMARK                            x       y       z     vdW  Elec       q    Type
REMARK                         _______ _______ _______ _____ _____    ______ ____
ROOT
ATOM      1  C   UNL     1       3.615  -1.519  -3.084  0.00  0.00    +0.062 A 
ATOM      2  C   UNL     1       3.987  -1.946  -4.332  0.00  0.00    +0.048 A 
ATOM      3  C   UNL     1       5.312  -2.234  -4.564  0.00  0.00    +0.123 A 
ATOM      4  C   UNL     1       6.209  -2.086  -3.555  0.00  0.00    +0.014 A 
ATOM      5  S   UNL     1       5.175  -1.515  -2.216  0.00  0.00    -0.088 S 
ATOM      6  C   UNL     1       7.696  -2.335  -3.564  0.00  0.00    +0.053 C 
ENDROOT
BRANCH   1   9
ATOM      7  C   UNL     1       0.707  -0.490  -1.238  0.00  0.00    +0.227 A 
ATOM      8  N   UNL     1       1.983  -0.731  -1.342  0.00  0.00    -0.191 NA
ATOM      9  C   UNL     1       2.273  -1.150  -2.588  0.00  0.00    +0.209 A 
ATOM     10  N   UNL     1       1.163  -1.177  -3.289  0.00  0.00    -0.056 NA
ATOM     11  O   UNL     1       0.127  -0.753  -2.416  0.00  0.00    -0.338 OA
BRANCH   7  13
ATOM     12  C   UNL     1      -0.019   1.526   0.010  0.00  0.00    +0.014 C 
ATOM     13  C   UNL     1       0.002  -0.004   0.002  0.00  0.00    +0.095 C 
ENDBRANCH   7  13
ENDBRANCH   1   9
BRANCH   3  14
ATOM     14  S   UNL     1       5.839  -2.788  -6.152  0.00  0.00    +0.101 S 
ATOM     15  O   UNL     1       6.643  -3.939  -5.934  0.00  0.00    -0.146 OA
ATOM     16  O   UNL     1       4.684  -2.810  -6.979  0.00  0.00    -0.146 OA
BRANCH  14  17
ATOM     17  N   UNL     1       6.840  -1.622  -6.770  0.00  0.00    -0.111 NA
ATOM     18  C   UNL     1       7.382  -1.782  -7.959  0.00  0.00    +0.153 A 
ATOM     19  C   UNL     1       8.243  -0.791  -8.489  0.00  0.00    +0.051 A 
ATOM     20  C   UNL     1       8.791  -0.976  -9.718  0.00  0.00    -0.046 A 
ATOM     21  C   UNL     1       8.497  -2.143 -10.443  0.00  0.00    +0.021 A 
ATOM     22  C   UNL     1       7.675  -3.080  -9.925  0.00  0.00    +0.084 A 
ATOM     23  N   UNL     1       7.120  -2.915  -8.692  0.00  0.00    -0.345 N 
ATOM     24  C   UNL     1       9.710   0.067 -10.301  0.00  0.00    +0.044 C 
ATOM     25  H   UNL     1       6.533  -3.598  -8.331  0.00  0.00    +0.167 HD
ENDBRANCH  14  17
ENDBRANCH   3  14
TORSDOF 4
