REMARK  Name = ZINC20907356
REMARK  10 active torsions:
REMARK  status: ('A' for Active; 'I' for Inactive)
REMARK    1  A    between atoms: C_1  and  C_2
REMARK    2  A    between atoms: C_2  and  C_3
REMARK    3  A    between atoms: C_2  and  N_4
REMARK    4  A    between atoms: C_6  and  N_25
REMARK    5  A    between atoms: C_9  and  C_11
REMARK    6  A    between atoms: N_13  and  C_14
REMARK    7  A    between atoms: C_14  and  C_15
REMARK    8  A    between atoms: C_15  and  C_16
REMARK    9  A    between atoms: N_25  and  C_26
REMARK   10  A    between atoms: C_26  and  C_27
REMARK                            x       y       z     vdW  Elec       q    Type
REMARK                         _______ _______ _______ _____ _____    ______ ____
ROOT
ATOM      1  N   UNL     1      -3.849  -3.737  -2.259  0.00  0.00    -0.291 NA
ATOM      2  C   UNL     1      -2.776  -3.350  -1.318  0.00  0.00    +0.070 C 
ATOM      3  C   UNL     1      -2.606  -1.824  -1.518  0.00  0.00    -0.055 C 
ATOM      4  C   UNL     1      -2.822  -1.681  -3.047  0.00  0.00    +0.014 C 
ATOM      5  C   UNL     1      -3.901  -2.743  -3.347  0.00  0.00    +0.142 C 
ENDROOT
BRANCH   5   6
ATOM      6  C   UNL     1      -3.610  -3.412  -4.666  0.00  0.00    +0.230 C 
ATOM      7  O   UNL     1      -2.527  -3.921  -4.862  0.00  0.00    -0.274 OA
ATOM      8  N   UNL     1      -4.554  -3.443  -5.628  0.00  0.00    -0.314 N 
ATOM      9  H   UNL     1      -5.536  -2.980  -5.450  0.00  0.00    +0.149 HD
BRANCH   8  10
ATOM     10  C   UNL     1      -4.271  -4.092  -6.910  0.00  0.00    +0.109 C 
BRANCH  10  11
ATOM     11  C   UNL     1      -5.500  -3.987  -7.816  0.00  0.00    +0.054 C 
BRANCH  11  12
ATOM     12  C   UNL     1      -5.209  -4.656  -9.136  0.00  0.00    -0.042 A 
ATOM     13  C   UNL     1      -5.486  -6.000  -9.304  0.00  0.00    +0.007 A 
ATOM     14  C   UNL     1      -5.222  -6.617 -10.512  0.00  0.00    +0.050 A 
ATOM     15  C   UNL     1      -4.678  -5.889 -11.558  0.00  0.00    +0.166 A 
ATOM     16  C   UNL     1      -4.399  -4.536 -11.389  0.00  0.00    +0.166 A 
ATOM     17  C   UNL     1      -4.672  -3.922 -10.177  0.00  0.00    +0.053 A 
ATOM     18  O   UNL     1      -3.875  -4.049 -12.551  0.00  0.00    -0.453 OA
ATOM     19  C   UNL     1      -3.456  -5.207 -13.298  0.00  0.00    +0.466 C 
ATOM     20  O   UNL     1      -4.328  -6.252 -12.827  0.00  0.00    -0.453 OA
ENDBRANCH  11  12
ENDBRANCH  10  11
ENDBRANCH   8  10
ENDBRANCH   5   6
BRANCH   1  22
ATOM     21  C   UNL     1      -3.261  -6.033  -1.643  0.00  0.00    +0.024 C 
ATOM     22  C   UNL     1      -3.622  -5.088  -2.790  0.00  0.00    +0.051 C 
ATOM     23  C   UNL     1      -4.895  -5.585  -3.479  0.00  0.00    +0.024 C 
ENDBRANCH   1  22
BRANCH   3  24
ATOM     24  N   UNL     1      -1.256  -1.390  -1.134  0.00  0.00    +0.384 N 
ATOM     25  H   UNL     1      -0.542  -2.207  -1.317  0.00  0.00    -0.085 HD
ATOM     26  H   UNL     1      -0.969  -0.512  -1.732  0.00  0.00    -0.085 HD
BRANCH  24  27
ATOM     27  C   UNL     1      -1.204  -1.028   0.289  0.00  0.00    -0.046 C 
BRANCH  27  28
ATOM     28  C   UNL     1       0.193  -0.589   0.644  0.00  0.00    -0.064 A 
ATOM     29  C   UNL     1       1.118  -1.533   1.086  0.00  0.00    +0.002 A 
ATOM     30  C   UNL     1       2.388  -1.170   1.415  0.00  0.00    +0.009 A 
ATOM     31  C   UNL     1       2.775   0.177   1.309  0.00  0.00    -0.018 A 
ATOM     32  C   UNL     1       4.077   0.590   1.640  0.00  0.00    +0.008 A 
ATOM     33  C   UNL     1       4.417   1.903   1.525  0.00  0.00    +0.001 A 
ATOM     34  C   UNL     1       3.492   2.847   1.083  0.00  0.00    +0.001 A 
ATOM     35  C   UNL     1       2.222   2.484   0.754  0.00  0.00    +0.008 A 
ATOM     36  C   UNL     1       1.835   1.137   0.860  0.00  0.00    -0.018 A 
ATOM     37  C   UNL     1       0.533   0.724   0.529  0.00  0.00    +0.010 A 
ENDBRANCH  27  28
ENDBRANCH  24  27
ENDBRANCH   3  24
TORSDOF 8
