REMARK  Name = ZINC30975144
REMARK  9 active torsions:
REMARK  status: ('A' for Active; 'I' for Inactive)
REMARK    1  A    between atoms: C_1  and  C_2
REMARK    2  A    between atoms: C_6  and  C_8
REMARK    3  A    between atoms: C_10  and  C_13
REMARK    4  A    between atoms: C_13  and  N_14
REMARK    5  A    between atoms: C_17  and  C_20
REMARK    6  A    between atoms: N_22  and  C_23
REMARK    7  A    between atoms: C_26  and  C_35
REMARK    8  A    between atoms: C_26  and  C_36
REMARK    9  A    between atoms: C_32  and  C_34
REMARK                            x       y       z     vdW  Elec       q    Type
REMARK                         _______ _______ _______ _____ _____    ______ ____
ROOT
ATOM      1  N   UNL     1       6.003   2.434  -2.185  0.00  0.00    +0.386 N 
ATOM      2  C   UNL     1       6.034   1.091  -1.594  0.00  0.00    -0.077 C 
ATOM      3  C   UNL     1       4.613   0.524  -1.536  0.00  0.00    -0.006 C 
ATOM      4  C   UNL     1       3.732   1.452  -0.695  0.00  0.00    +0.071 C 
ATOM      5  C   UNL     1       3.756   2.856  -1.305  0.00  0.00    -0.006 C 
ATOM      6  C   UNL     1       5.201   3.355  -1.369  0.00  0.00    -0.077 C 
ATOM      7  H   UNL     1       5.522   2.356  -3.172  0.00  0.00    -0.081 HD
ENDROOT
BRANCH   4   8
ATOM      8  C   UNL     1       2.318   0.931  -0.685  0.00  0.00    +0.216 C 
ATOM      9  O   UNL     1       2.041  -0.082  -1.290  0.00  0.00    -0.276 OA
ATOM     10  N   UNL     1       1.362   1.592  -0.002  0.00  0.00    -0.308 N 
ATOM     11  H   UNL     1       1.614   2.511   0.546  0.00  0.00    +0.149 HD
BRANCH  10  12
ATOM     12  C   UNL     1      -0.013   1.086   0.008  0.00  0.00    +0.110 C 
ATOM     13  C   UNL     1      -0.728   1.579   1.269  0.00  0.00    +0.074 C 
ATOM     14  C   UNL     1      -2.227   1.292   1.115  0.00  0.00    +0.107 C 
ATOM     15  O   UNL     1      -2.727   2.076   0.031  0.00  0.00    -0.486 OA
ATOM     16  C   UNL     1      -2.043   2.045  -1.142  0.00  0.00    +0.126 A 
ATOM     17  C   UNL     1      -0.740   1.584  -1.215  0.00  0.00    +0.015 A 
ATOM     18  C   UNL     1      -0.079   1.576  -2.432  0.00  0.00    +0.009 A 
ATOM     19  C   UNL     1      -0.715   2.022  -3.574  0.00  0.00    +0.004 A 
ATOM     20  C   UNL     1      -2.018   2.480  -3.505  0.00  0.00    -0.047 A 
ATOM     21  C   UNL     1      -2.681   2.492  -2.295  0.00  0.00    +0.049 A 
ATOM     22  C   UNL     1      -2.714   2.965  -4.751  0.00  0.00    +0.044 C 
ATOM     23  C   UNL     1      -2.439  -0.194   0.819  0.00  0.00    +0.055 C 
ATOM     24  C   UNL     1      -2.958   1.669   2.405  0.00  0.00    +0.055 C 
ENDBRANCH  10  12
ENDBRANCH   4   8
BRANCH   1  25
ATOM     25  C   UNL     1       7.362   2.954  -2.384  0.00  0.00    +0.022 C 
BRANCH  25  28
ATOM     26  C   UNL     1       7.176   6.231  -3.848  0.00  0.00    +0.202 A 
ATOM     27  N   UNL     1       7.183   5.436  -2.754  0.00  0.00    -0.193 NA
ATOM     28  C   UNL     1       7.303   4.213  -3.209  0.00  0.00    +0.211 A 
ATOM     29  O   UNL     1       7.370   4.294  -4.541  0.00  0.00    -0.340 OA
ATOM     30  N   UNL     1       7.291   5.452  -4.892  0.00  0.00    -0.056 NA
BRANCH  26  36
ATOM     31  C   UNL     1       6.965  10.527  -6.385  0.00  0.00    +0.044 C 
ATOM     32  C   UNL     1       6.957   9.778  -5.077  0.00  0.00    -0.050 A 
ATOM     33  C   UNL     1       6.841  10.470  -3.885  0.00  0.00    +0.003 A 
ATOM     34  C   UNL     1       6.833   9.789  -2.682  0.00  0.00    +0.001 A 
ATOM     35  C   UNL     1       6.941   8.413  -2.664  0.00  0.00    +0.012 A 
ATOM     36  C   UNL     1       7.058   7.710  -3.861  0.00  0.00    +0.023 A 
ATOM     37  C   UNL     1       7.071   8.402  -5.070  0.00  0.00    +0.015 A 
ENDBRANCH  26  36
ENDBRANCH  25  28
ENDBRANCH   1  25
TORSDOF 5
