REMARK  Name = ZINC39306276
REMARK  5 active torsions:
REMARK  status: ('A' for Active; 'I' for Inactive)
REMARK    1  A    between atoms: C_1  and  C_2
REMARK    2  A    between atoms: C_8  and  S_10
REMARK    3  A    between atoms: S_10  and  C_11
REMARK    4  A    between atoms: C_11  and  C_12
REMARK    5  A    between atoms: N_21  and  C_22
REMARK                            x       y       z     vdW  Elec       q    Type
REMARK                         _______ _______ _______ _____ _____    ______ ____
ROOT
ATOM      1  C   UNL     1       3.977  -1.414  -0.025  0.00  0.00    +0.119 C 
ENDROOT
BRANCH   1   2
ATOM      2  C   UNL     1       5.397  -1.982  -0.035  0.00  0.00    +0.168 C 
ATOM      3  N   UNL     1       5.588  -2.850  -1.203  0.00  0.00    -0.324 N 
ATOM      4  C   UNL     1       5.891  -4.132  -0.724  0.00  0.00    +0.050 A 
ATOM      5  C   UNL     1       6.158  -5.312  -1.409  0.00  0.00    +0.025 A 
ATOM      6  C   UNL     1       6.436  -6.472  -0.712  0.00  0.00    +0.002 A 
ATOM      7  C   UNL     1       6.448  -6.464   0.670  0.00  0.00    +0.002 A 
ATOM      8  C   UNL     1       6.184  -5.297   1.360  0.00  0.00    +0.025 A 
ATOM      9  C   UNL     1       5.904  -4.125   0.667  0.00  0.00    +0.052 A 
ATOM     10  N   UNL     1       5.609  -2.836   1.139  0.00  0.00    -0.312 N 
ATOM     11  C   UNL     1       5.529  -2.421   2.542  0.00  0.00    +0.131 C 
ATOM     12  H   UNL     1       5.516  -2.586  -2.133  0.00  0.00    +0.148 HD
ENDBRANCH   1   2
BRANCH   1  13
ATOM     13  S   UNL     1       2.781  -2.777  -0.027  0.00  0.00    -0.084 S 
BRANCH  13  21
ATOM     14  C   UNL     1      -0.018   1.503   0.010  0.00  0.00    +0.066 C 
ATOM     15  C   UNL     1       0.002  -0.004   0.002  0.00  0.00    +0.046 A 
ATOM     16  C   UNL     1      -1.171  -0.701   0.004  0.00  0.00    +0.093 A 
ATOM     17  C   UNL     1      -1.128  -2.107  -0.004  0.00  0.00    +0.252 A 
ATOM     18  O   UNL     1      -2.158  -2.761  -0.004  0.00  0.00    -0.268 OA
ATOM     19  N   UNL     1       0.076  -2.718  -0.014  0.00  0.00    -0.302 N 
ATOM     20  H   UNL     1       0.130  -3.687  -0.020  0.00  0.00    +0.171 HD
ATOM     21  C   UNL     1       1.214  -1.970  -0.015  0.00  0.00    +0.169 A 
ATOM     22  N   UNL     1       1.164  -0.652  -0.013  0.00  0.00    -0.228 NA
ENDBRANCH  13  21
ENDBRANCH   1  13
TORSDOF 3
