REMARK  Name = ZINC27792242
REMARK  7 active torsions:
REMARK  status: ('A' for Active; 'I' for Inactive)
REMARK    1  A    between atoms: C_1  and  N_2
REMARK    2  A    between atoms: C_5  and  C_20
REMARK    3  A    between atoms: N_9  and  C_10
REMARK    4  A    between atoms: C_13  and  S_16
REMARK    5  A    between atoms: S_16  and  N_19
REMARK    6  A    between atoms: C_20  and  C_21
REMARK    7  A    between atoms: N_23  and  C_24
REMARK                            x       y       z     vdW  Elec       q    Type
REMARK                         _______ _______ _______ _____ _____    ______ ____
ROOT
ATOM      1  C   UNL     1       7.880   1.836   2.878  0.00  0.00    +0.140 C 
ATOM      2  N   UNL     1       6.514   1.327   2.735  0.00  0.00    -0.253 N 
ATOM      3  C   UNL     1       6.066   1.034   1.526  0.00  0.00    +0.235 C 
ATOM      4  O   UNL     1       6.750   1.173   0.534  0.00  0.00    -0.274 OA
ATOM      5  C   UNL     1       4.640   0.511   1.457  0.00  0.00    +0.149 C 
ATOM      6  S   UNL     1       4.191   0.542   3.238  0.00  0.00    -0.077 S 
ATOM      7  C   UNL     1       5.741   1.171   3.866  0.00  0.00    +0.164 C 
ATOM      8  N   UNL     1       6.067   1.424   5.112  0.00  0.00    -0.226 NA
ENDROOT
BRANCH   8   9
ATOM      9  C   UNL     1       5.161   1.206   6.115  0.00  0.00    +0.067 A 
ATOM     10  C   UNL     1       3.838   1.629   5.970  0.00  0.00    +0.030 A 
ATOM     11  C   UNL     1       2.929   1.402   6.982  0.00  0.00    +0.030 A 
ATOM     12  C   UNL     1       3.328   0.765   8.144  0.00  0.00    +0.105 A 
ATOM     13  C   UNL     1       4.638   0.348   8.297  0.00  0.00    +0.030 A 
ATOM     14  C   UNL     1       5.556   0.564   7.290  0.00  0.00    +0.030 A 
BRANCH  12  15
ATOM     15  S   UNL     1       2.162   0.484   9.435  0.00  0.00    +0.056 S 
ATOM     16  O   UNL     1       0.877   0.480   8.827  0.00  0.00    -0.153 OA
ATOM     17  O   UNL     1       2.651  -0.614  10.192  0.00  0.00    -0.153 OA
BRANCH  15  18
ATOM     18  N   UNL     1       2.208   1.805  10.433  0.00  0.00    -0.204 NA
ATOM     19  H   UNL     1       1.491   1.669  11.255  0.00  0.00    +0.144 HD
ATOM     20  H   UNL     1       1.943   2.707   9.861  0.00  0.00    +0.144 HD
ENDBRANCH  15  18
ENDBRANCH  12  15
ENDBRANCH   8   9
BRANCH   5  21
ATOM     21  C   UNL     1       3.745   1.447   0.644  0.00  0.00    +0.119 C 
BRANCH  21  22
ATOM     22  C   UNL     1       2.331   0.926   0.654  0.00  0.00    +0.215 C 
ATOM     23  O   UNL     1       2.066  -0.095   1.254  0.00  0.00    -0.276 OA
ATOM     24  N   UNL     1       1.362   1.593  -0.002  0.00  0.00    -0.312 N 
ATOM     25  H   UNL     1       1.602   2.518  -0.546  0.00  0.00    +0.149 HD
BRANCH  24  26
ATOM     26  C   UNL     1      -0.013   1.086   0.008  0.00  0.00    +0.073 C 
ATOM     27  C   UNL     1      -0.729   1.579   1.267  0.00  0.00    +0.022 C 
ATOM     28  C   UNL     1      -2.164   1.050   1.278  0.00  0.00    +0.002 C 
ATOM     29  C   UNL     1      -2.904   1.556   0.038  0.00  0.00    +0.000 C 
ATOM     30  C   UNL     1      -2.188   1.063  -1.221  0.00  0.00    +0.002 C 
ATOM     31  C   UNL     1      -0.753   1.593  -1.232  0.00  0.00    +0.022 C 
ENDBRANCH  24  26
ENDBRANCH  21  22
ENDBRANCH   5  21
TORSDOF 6
