REMARK  Name = ZINC39602917
REMARK  6 active torsions:
REMARK  status: ('A' for Active; 'I' for Inactive)
REMARK    1  A    between atoms: C_3  and  C_8
REMARK    2  A    between atoms: C_8  and  N_9
REMARK    3  A    between atoms: C_10  and  C_12
REMARK    4  A    between atoms: C_23  and  C_25
REMARK    5  A    between atoms: C_25  and  O_26
REMARK    6  A    between atoms: O_26  and  C_27
REMARK                            x       y       z     vdW  Elec       q    Type
REMARK                         _______ _______ _______ _____ _____    ______ ____
ROOT
ATOM      1  C   UNL     1       5.688   3.358   3.014  0.00  0.00    +0.100 C 
ATOM      2  C   UNL     1       5.857   2.020   3.769  0.00  0.00    +0.121 C 
ATOM      3  N   UNL     1       7.298   1.696   3.638  0.00  0.00    -0.297 N 
ATOM      4  C   UNL     1       7.984   3.002   3.787  0.00  0.00    +0.115 C 
ATOM      5  C   UNL     1       7.085   4.001   3.032  0.00  0.00    -0.004 C 
ATOM      6  C   UNL     1       7.043   5.336   3.769  0.00  0.00    -0.010 C 
ATOM      7  C   UNL     1       8.430   5.983   3.723  0.00  0.00    -0.082 C 
ATOM      8  N   UNL     1       8.831   6.185   2.325  0.00  0.00    +0.379 N 
ATOM      9  C   UNL     1       8.960   4.889   1.649  0.00  0.00    -0.082 C 
ATOM     10  C   UNL     1       7.595   4.195   1.607  0.00  0.00    -0.010 C 
ATOM     11  C   UNL     1       7.857   0.487   3.431  0.00  0.00    +0.253 C 
ATOM     12  O   UNL     1       9.062   0.384   3.347  0.00  0.00    -0.272 OA
ATOM     13  H   UNL     1       8.134   6.742   1.853  0.00  0.00    -0.086 HD
ATOM     14  H   UNL     1       9.718   6.667   2.297  0.00  0.00    -0.086 HD
ENDROOT
BRANCH   1  16
ATOM     15  N   UNL     1       4.510   4.033   0.947  0.00  0.00    -0.311 N 
ATOM     16  C   UNL     1       5.244   3.107   1.596  0.00  0.00    +0.218 C 
ATOM     17  O   UNL     1       5.546   2.073   1.040  0.00  0.00    -0.275 OA
ATOM     18  H   UNL     1       4.268   4.860   1.392  0.00  0.00    +0.149 HD
BRANCH  15  19
ATOM     19  C   UNL     1       4.078   3.790  -0.432  0.00  0.00    +0.139 C 
BRANCH  19  22
ATOM     20  C   UNL     1       3.184   7.104  -2.005  0.00  0.00    +0.003 A 
ATOM     21  C   UNL     1       3.916   6.021  -1.553  0.00  0.00    +0.005 A 
ATOM     22  C   UNL     1       3.279   4.969  -0.923  0.00  0.00    -0.028 A 
ATOM     23  C   UNL     1       1.909   4.998  -0.744  0.00  0.00    +0.043 A 
ATOM     24  C   UNL     1       1.175   6.082  -1.195  0.00  0.00    +0.124 A 
ATOM     25  C   UNL     1       1.815   7.136  -1.826  0.00  0.00    +0.038 A 
ATOM     26  F   UNL     1      -0.165   6.112  -1.021  0.00  0.00    -0.205 F 
ENDBRANCH  19  22
ENDBRANCH  15  19
ENDBRANCH   1  16
BRANCH  11  27
ATOM     27  C   UNL     1       6.985  -0.735   3.305  0.00  0.00    +0.324 C 
BRANCH  27  28
ATOM     28  O   UNL     1       7.805  -1.885   3.091  0.00  0.00    -0.483 OA
BRANCH  28  29
ATOM     29  C   UNL     1       7.170  -3.079   2.955  0.00  0.00    +0.123 A 
ATOM     30  C   UNL     1       5.785  -3.141   3.021  0.00  0.00    +0.046 A 
ATOM     31  C   UNL     1       5.142  -4.355   2.882  0.00  0.00    +0.005 A 
ATOM     32  C   UNL     1       5.876  -5.509   2.678  0.00  0.00    +0.020 A 
ATOM     33  C   UNL     1       7.257  -5.451   2.613  0.00  0.00    +0.044 A 
ATOM     34  C   UNL     1       7.905  -4.237   2.746  0.00  0.00    +0.065 A 
ATOM     35 CL   UNL     1       8.175  -6.902   2.357  0.00  0.00    -0.083 Cl
ENDBRANCH  28  29
ENDBRANCH  27  28
ENDBRANCH  11  27
TORSDOF 6
