REMARK  Name = ZINC13571071
REMARK  5 active torsions:
REMARK  status: ('A' for Active; 'I' for Inactive)
REMARK    1  A    between atoms: C_1  and  C_2
REMARK    2  A    between atoms: C_2  and  C_28
REMARK    3  A    between atoms: C_6  and  C_17
REMARK    4  A    between atoms: C_11  and  O_16
REMARK    5  A    between atoms: C_12  and  O_15
REMARK                            x       y       z     vdW  Elec       q    Type
REMARK                         _______ _______ _______ _____ _____    ______ ____
ROOT
ATOM      1  C   UNL     1      -0.019   1.538   0.011  0.00  0.00    +0.031 C 
ATOM      2  C   UNL     1       0.002  -0.004   0.002  0.00  0.00    +0.033 C 
ATOM      3  C   UNL     1       0.672  -0.466  -1.284  0.00  0.00    +0.094 C 
ATOM      4  C   UNL     1       1.295  -1.849  -1.194  0.00  0.00    +0.180 C 
ATOM      5  C   UNL     1       0.244  -2.953  -1.315  0.00  0.00    +0.082 C 
ATOM      6  C   UNL     1      -0.540  -2.787  -2.616  0.00  0.00    +0.061 C 
ATOM      7  C   UNL     1       0.386  -2.450  -3.756  0.00  0.00    +0.006 A 
ATOM      8  C   UNL     1      -0.104  -2.481  -5.053  0.00  0.00    +0.011 A 
ATOM      9  C   UNL     1       0.721  -2.195  -6.123  0.00  0.00    +0.050 A 
ATOM     10  C   UNL     1       2.049  -1.861  -5.906  0.00  0.00    +0.162 A 
ATOM     11  C   UNL     1       2.542  -1.811  -4.610  0.00  0.00    +0.201 A 
ATOM     12  C   UNL     1       1.706  -2.101  -3.533  0.00  0.00    +0.172 A 
ATOM     13  O   UNL     1       2.222  -2.018  -2.279  0.00  0.00    -0.464 OA
ATOM     14  N   UNL     1       2.035  -2.016   0.056  0.00  0.00    -0.289 N 
ATOM     15  C   UNL     1       1.698  -1.354   1.169  0.00  0.00    +0.133 C 
ATOM     16  S   UNL     1       2.568  -1.667   2.611  0.00  0.00    -0.019 S 
ATOM     17  N   UNL     1       0.713  -0.451   1.194  0.00  0.00    -0.321 N 
ATOM     18  C   UNL     1      -1.450  -0.490   0.056  0.00  0.00    +0.031 C 
ATOM     19  H   UNL     1       2.793  -2.624   0.076  0.00  0.00    +0.151 HD
ATOM     20  H   UNL     1       0.458  -0.071   2.057  0.00  0.00    +0.148 HD
ENDROOT
BRANCH   6  21
ATOM     21  C   UNL     1      -1.259  -4.077  -2.916  0.00  0.00    -0.004 A 
ATOM     22  C   UNL     1      -0.540  -5.245  -3.087  0.00  0.00    +0.007 A 
ATOM     23  C   UNL     1      -1.199  -6.428  -3.362  0.00  0.00    +0.000 A 
ATOM     24  C   UNL     1      -2.578  -6.445  -3.466  0.00  0.00    +0.003 A 
ATOM     25  C   UNL     1      -3.299  -5.279  -3.295  0.00  0.00    +0.038 A 
ATOM     26  C   UNL     1      -2.640  -4.093  -3.014  0.00  0.00    +0.127 A 
ATOM     27  F   UNL     1      -3.343  -2.953  -2.842  0.00  0.00    -0.205 F 
ENDBRANCH   6  21
BRANCH  11  28
ATOM     28  O   UNL     1       3.842  -1.476  -4.390  0.00  0.00    -0.501 OA
ATOM     29  H   UNL     1       3.990  -0.527  -4.272  0.00  0.00    +0.292 HD
ENDBRANCH  11  28
BRANCH  10  30
ATOM     30  O   UNL     1       2.865  -1.584  -6.958  0.00  0.00    -0.503 OA
ATOM     31  H   UNL     1       2.878  -0.651  -7.211  0.00  0.00    +0.292 HD
ENDBRANCH  10  30
TORSDOF 3
