REMARK  Name = ZINC44443483
REMARK  3 active torsions:
REMARK  status: ('A' for Active; 'I' for Inactive)
REMARK    1  A    between atoms: C_9  and  C_11
REMARK    2  A    between atoms: C_11  and  N_12
REMARK    3  A    between atoms: C_15  and  C_18
REMARK                            x       y       z     vdW  Elec       q    Type
REMARK                         _______ _______ _______ _____ _____    ______ ____
ROOT
ATOM      1  N   UNL     1       4.386  -2.983  -1.558  0.00  0.00    -0.295 NA
ATOM      2  C   UNL     1       5.713  -2.502  -1.964  0.00  0.00    +0.085 C 
ATOM      3  C   UNL     1       5.949  -2.837  -3.438  0.00  0.00    +0.028 C 
ATOM      4  C   UNL     1       5.853  -4.353  -3.634  0.00  0.00    +0.078 C 
ATOM      5  C   UNL     1       4.480  -4.835  -3.159  0.00  0.00    +0.028 C 
ATOM      6  C   UNL     1       4.286  -4.442  -1.692  0.00  0.00    +0.085 C 
ENDROOT
BRANCH   4   7
ATOM      7  C   UNL     1       6.026  -4.684  -5.094  0.00  0.00    +0.225 C 
ATOM      8  O   UNL     1       5.609  -3.924  -5.942  0.00  0.00    -0.275 OA
ATOM      9  N   UNL     1       6.644  -5.825  -5.457  0.00  0.00    -0.240 N 
ATOM     10  C   UNL     1       7.094  -6.878  -4.540  0.00  0.00    +0.138 C 
ATOM     11  C   UNL     1       7.726  -7.941  -5.455  0.00  0.00    +0.144 C 
ATOM     12  N   UNL     1       7.579  -7.399  -6.812  0.00  0.00    -0.310 N 
ATOM     13  C   UNL     1       6.951  -6.194  -6.760  0.00  0.00    +0.206 A 
ATOM     14  N   UNL     1       6.818  -5.719  -7.984  0.00  0.00    -0.214 NA
ATOM     15  C   UNL     1       7.347  -6.593  -8.877  0.00  0.00    +0.091 A 
ATOM     16  C   UNL     1       7.849  -7.679  -8.142  0.00  0.00    +0.070 A 
ATOM     17  C   UNL     1       8.454  -8.740  -8.798  0.00  0.00    +0.028 A 
ATOM     18  C   UNL     1       8.575  -8.717 -10.172  0.00  0.00    +0.002 A 
ATOM     19  C   UNL     1       8.095  -7.641 -10.902  0.00  0.00    +0.002 A 
ATOM     20  C   UNL     1       7.471  -6.589 -10.269  0.00  0.00    +0.030 A 
ENDBRANCH   4   7
BRANCH   1  21
ATOM     21  C   UNL     1       4.068  -2.558  -0.189  0.00  0.00    +0.158 C 
BRANCH  21  30
ATOM     22  C   UNL     1       2.944   3.361  -0.090  0.00  0.00    +0.002 A 
ATOM     23  C   UNL     1       4.320   3.434   0.071  0.00  0.00    +0.002 A 
ATOM     24  C   UNL     1       5.078   2.298   0.114  0.00  0.00    +0.030 A 
ATOM     25  C   UNL     1       4.465   1.048  -0.004  0.00  0.00    +0.089 A 
ATOM     26  C   UNL     1       3.072   0.973  -0.167  0.00  0.00    +0.066 A 
ATOM     27  C   UNL     1       2.318   2.139  -0.209  0.00  0.00    +0.028 A 
ATOM     28  N   UNL     1       2.769  -0.371  -0.254  0.00  0.00    -0.341 N 
ATOM     29  H   UNL     1       1.886  -0.755  -0.370  0.00  0.00    +0.167 HD
ATOM     30  C   UNL     1       3.939  -1.056  -0.146  0.00  0.00    +0.122 A 
ATOM     31  N   UNL     1       4.931  -0.228   0.000  0.00  0.00    -0.231 NA
ENDBRANCH  21  30
ENDBRANCH   1  21
TORSDOF 3
