REMARK  Name = ZINC37238191
REMARK  3 active torsions:
REMARK  status: ('A' for Active; 'I' for Inactive)
REMARK    1  A    between atoms: C_3  and  N_8
REMARK    2  A    between atoms: C_5  and  O_7
REMARK    3  A    between atoms: N_8  and  C_9
REMARK                            x       y       z     vdW  Elec       q    Type
REMARK                         _______ _______ _______ _____ _____    ______ ____
ROOT
ATOM      1  C   UNL     1       3.559   3.595  -0.015  0.00  0.00    +0.107 C 
ATOM      2  C   UNL     1       4.864   4.121   0.587  0.00  0.00    +0.068 C 
ATOM      3  C   UNL     1       4.945   5.629   0.316  0.00  0.00    +0.231 C 
ATOM      4  O   UNL     1       5.037   5.828  -1.095  0.00  0.00    -0.490 OA
ATOM      5  C   UNL     1       4.144   5.179  -1.887  0.00  0.00    +0.144 A 
ATOM      6  C   UNL     1       3.410   4.101  -1.427  0.00  0.00    +0.017 A 
ATOM      7  C   UNL     1       2.515   3.466  -2.272  0.00  0.00    +0.029 A 
ATOM      8  C   UNL     1       2.351   3.906  -3.572  0.00  0.00    +0.043 A 
ATOM      9  C   UNL     1       3.082   4.985  -4.034  0.00  0.00    +0.043 A 
ATOM     10  C   UNL     1       3.974   5.621  -3.196  0.00  0.00    +0.084 A 
ATOM     11 CL   UNL     1       4.891   6.975  -3.778  0.00  0.00    -0.080 Cl
ATOM     12 CL   UNL     1       1.227   3.104  -4.624  0.00  0.00    -0.083 Cl
ENDROOT
BRANCH   1  13
ATOM     13  N   UNL     1       3.582   2.130  -0.022  0.00  0.00    -0.337 N 
ATOM     14  H   UNL     1       4.429   1.658  -0.033  0.00  0.00    +0.147 HD
BRANCH  13  17
ATOM     15  C   UNL     1      -0.017   1.377   0.010  0.00  0.00    +0.005 A 
ATOM     16  C   UNL     1       1.169   2.087   0.002  0.00  0.00    +0.023 A 
ATOM     17  C   UNL     1       2.383   1.413  -0.013  0.00  0.00    +0.031 A 
ATOM     18  C   UNL     1       2.404   0.024  -0.021  0.00  0.00    +0.068 A 
ATOM     19  C   UNL     1       1.212  -0.684  -0.013  0.00  0.00    +0.119 A 
ATOM     20  C   UNL     1       0.002  -0.004   0.002  0.00  0.00    +0.045 A 
BRANCH  19  21
ATOM     21  O   UNL     1       1.229  -2.042  -0.021  0.00  0.00    -0.507 OA
ATOM     22  H   UNL     1       1.243  -2.441   0.860  0.00  0.00    +0.292 HD
ENDBRANCH  19  21
ENDBRANCH  13  17
ENDBRANCH   1  13
TORSDOF 3
