REMARK  Name = ZINC39691347
REMARK  8 active torsions:
REMARK  status: ('A' for Active; 'I' for Inactive)
REMARK    1  A    between atoms: C_1  and  C_2
REMARK    2  A    between atoms: C_5  and  C_9
REMARK    3  A    between atoms: C_13  and  C_22
REMARK    4  A    between atoms: N_24  and  C_25
REMARK    5  A    between atoms: C_25  and  C_26
REMARK    6  A    between atoms: C_26  and  N_27
REMARK    7  A    between atoms: C_28  and  C_30
REMARK    8  A    between atoms: C_30  and  C_31
REMARK                            x       y       z     vdW  Elec       q    Type
REMARK                         _______ _______ _______ _____ _____    ______ ____
ROOT
ATOM      1  C   UNL     1      -0.035  -4.528  -0.123  0.00  0.00    +0.247 C 
ATOM      2  O   UNL     1      -0.167  -5.214  -1.118  0.00  0.00    -0.270 OA
ATOM      3  N   UNL     1       0.115  -5.111   1.082  0.00  0.00    -0.296 N 
ATOM      4  C   UNL     1       0.157  -4.454   2.410  0.00  0.00    +0.121 C 
ATOM      5  C   UNL     1      -0.633  -5.402   3.340  0.00  0.00    +0.100 C 
ATOM      6  C   UNL     1      -0.550  -6.778   2.659  0.00  0.00    -0.004 C 
ATOM      7  C   UNL     1       0.270  -6.555   1.381  0.00  0.00    +0.115 C 
ATOM      8  C   UNL     1      -1.947  -7.277   2.303  0.00  0.00    -0.010 C 
ATOM      9  C   UNL     1      -1.843  -8.672   1.679  0.00  0.00    -0.082 C 
ATOM     10  N   UNL     1      -1.203  -9.588   2.631  0.00  0.00    +0.379 N 
ATOM     11  C   UNL     1       0.173  -9.152   2.898  0.00  0.00    -0.082 C 
ATOM     12  C   UNL     1       0.154  -7.777   3.572  0.00  0.00    -0.010 C 
ATOM     13  H   UNL     1      -1.725  -9.593   3.494  0.00  0.00    -0.086 HD
ATOM     14  H   UNL     1      -1.190 -10.519   2.243  0.00  0.00    -0.086 HD
ENDROOT
BRANCH   1  19
ATOM     15  C   UNL     1      -0.051   1.212  -0.559  0.00  0.00    +0.047 C 
ATOM     16  C   UNL     1      -0.048  -0.291  -0.446  0.00  0.00    -0.015 A 
ATOM     17  C   UNL     1       0.530  -0.897   0.656  0.00  0.00    +0.007 A 
ATOM     18  C   UNL     1       0.537  -2.272   0.766  0.00  0.00    +0.013 A 
ATOM     19  C   UNL     1      -0.040  -3.054  -0.236  0.00  0.00    +0.040 A 
ATOM     20  C   UNL     1      -0.622  -2.438  -1.345  0.00  0.00    +0.051 A 
ATOM     21  C   UNL     1      -0.628  -1.059  -1.442  0.00  0.00    +0.127 A 
ATOM     22  F   UNL     1      -1.195  -0.460  -2.511  0.00  0.00    -0.205 F 
ENDBRANCH   1  19
BRANCH   5  23
ATOM     23  C   UNL     1      -2.068  -4.953   3.448  0.00  0.00    +0.218 C 
ATOM     24  O   UNL     1      -2.596  -4.379   2.520  0.00  0.00    -0.275 OA
ATOM     25  N   UNL     1      -2.765  -5.191   4.577  0.00  0.00    -0.314 N 
ATOM     26  H   UNL     1      -2.342  -5.650   5.320  0.00  0.00    +0.149 HD
BRANCH  25  27
ATOM     27  C   UNL     1      -4.159  -4.755   4.683  0.00  0.00    +0.123 C 
BRANCH  27  28
ATOM     28  C   UNL     1      -4.713  -5.144   6.055  0.00  0.00    +0.123 C 
BRANCH  28  29
ATOM     29  N   UNL     1      -6.107  -4.709   6.161  0.00  0.00    -0.314 N 
ATOM     30  C   UNL     1      -6.804  -4.946   7.290  0.00  0.00    +0.217 C 
ATOM     31  O   UNL     1      -6.276  -5.520   8.219  0.00  0.00    -0.275 OA
ATOM     32  H   UNL     1      -6.530  -4.249   5.418  0.00  0.00    +0.149 HD
BRANCH  30  33
ATOM     33  C   UNL     1      -8.239  -4.498   7.399  0.00  0.00    +0.131 C 
BRANCH  33  34
ATOM     34  C   UNL     1      -8.784  -4.881   8.750  0.00  0.00    -0.031 A 
ATOM     35  C   UNL     1      -9.472  -6.046   8.905  0.00  0.00    +0.005 A 
ATOM     36  C   UNL     1      -9.983  -6.417  10.147  0.00  0.00    +0.001 A 
ATOM     37  C   UNL     1      -9.810  -5.626  11.241  0.00  0.00    +0.008 A 
ATOM     38  C   UNL     1      -9.106  -4.416  11.120  0.00  0.00    -0.018 A 
ATOM     39  C   UNL     1      -8.580  -4.042   9.858  0.00  0.00    -0.014 A 
ATOM     40  C   UNL     1      -7.870  -2.834   9.739  0.00  0.00    +0.009 A 
ATOM     41  C   UNL     1      -7.692  -2.046  10.834  0.00  0.00    +0.001 A 
ATOM     42  C   UNL     1      -8.204  -2.418  12.076  0.00  0.00    +0.001 A 
ATOM     43  C   UNL     1      -8.908  -3.573  12.227  0.00  0.00    +0.008 A 
ENDBRANCH  33  34
ENDBRANCH  30  33
ENDBRANCH  28  29
ENDBRANCH  27  28
ENDBRANCH  25  27
ENDBRANCH   5  23
TORSDOF 7
