REMARK  Name = ZINC22922578
REMARK  9 active torsions:
REMARK  status: ('A' for Active; 'I' for Inactive)
REMARK    1  A    between atoms: C_1  and  N_2
REMARK    2  A    between atoms: N_7  and  C_27
REMARK    3  A    between atoms: C_14  and  C_16
REMARK    4  A    between atoms: C_16  and  C_17
REMARK    5  A    between atoms: C_17  and  C_18
REMARK    6  A    between atoms: N_20  and  C_21
REMARK    7  A    between atoms: C_21  and  C_22
REMARK    8  A    between atoms: C_27  and  C_28
REMARK    9  A    between atoms: C_31  and  O_34
REMARK                            x       y       z     vdW  Elec       q    Type
REMARK                         _______ _______ _______ _____ _____    ______ ____
ROOT
ATOM      1  C   UNL     1      -0.348   1.473   0.155  0.00  0.00    -0.095 C 
ATOM      2  N   UNL     1       0.017   0.061  -0.020  0.00  0.00    +0.384 N 
ATOM      3  C   UNL     1       0.449  -0.128  -1.389  0.00  0.00    -0.041 C 
ATOM      4  C   UNL     1      -0.688   0.390  -2.314  0.00  0.00    +0.002 C 
ATOM      5  C   UNL     1      -1.529  -0.859  -2.645  0.00  0.00    +0.084 C 
ATOM      6  N   UNL     1      -0.896  -2.007  -1.950  0.00  0.00    -0.289 NA
ATOM      7  C   UNL     1       0.537  -1.613  -1.758  0.00  0.00    +0.130 C 
ATOM      8  C   UNL     1       1.327  -2.473  -0.883  0.00  0.00    +0.229 C 
ATOM      9  O   UNL     1       2.025  -3.253  -1.496  0.00  0.00    -0.274 OA
ATOM     10  N   UNL     1       1.452  -2.590   0.414  0.00  0.00    -0.316 N 
ATOM     11  C   UNL     1       0.933  -1.704   1.438  0.00  0.00    +0.089 C 
ATOM     12  C   UNL     1       0.971  -0.283   0.994  0.00  0.00    -0.051 C 
ATOM     13  H   UNL     1       1.950  -3.361   0.727  0.00  0.00    +0.149 HD
ATOM     14  H   UNL     1      -0.811  -0.497   0.126  0.00  0.00    -0.081 HD
ENDROOT
BRANCH  12  15
ATOM     15  C   UNL     1       0.731   0.608   2.214  0.00  0.00    -0.005 C 
BRANCH  15  16
ATOM     16  C   UNL     1       1.763   0.283   3.295  0.00  0.00    +0.094 C 
BRANCH  16  17
ATOM     17  C   UNL     1       1.612   1.250   4.441  0.00  0.00    +0.213 C 
ATOM     18  O   UNL     1       0.763   2.114   4.398  0.00  0.00    -0.276 OA
ATOM     19  N   UNL     1       2.422   1.154   5.515  0.00  0.00    -0.308 N 
ATOM     20  H   UNL     1       3.101   0.462   5.550  0.00  0.00    +0.149 HD
BRANCH  19  21
ATOM     21  C   UNL     1       2.275   2.093   6.629  0.00  0.00    +0.178 C 
BRANCH  21  22
ATOM     22  C   UNL     1       3.292   1.772   7.694  0.00  0.00    +0.122 A 
ATOM     23  C   UNL     1       4.533   2.285   7.777  0.00  0.00    +0.046 A 
ATOM     24  C   UNL     1       5.136   1.714   8.921  0.00  0.00    +0.041 A 
ATOM     25  C   UNL     1       4.228   0.887   9.469  0.00  0.00    +0.195 A 
ATOM     26  O   UNL     1       3.111   0.931   8.725  0.00  0.00    -0.466 OA
ENDBRANCH  21  22
ENDBRANCH  19  21
ENDBRANCH  16  17
ENDBRANCH  15  16
ENDBRANCH  12  15
BRANCH   6  27
ATOM     27  C   UNL     1      -0.998  -3.231  -2.756  0.00  0.00    +0.120 C 
BRANCH  27  28
ATOM     28  C   UNL     1      -2.433  -3.689  -2.794  0.00  0.00    -0.033 A 
ATOM     29  C   UNL     1      -2.908  -4.555  -1.827  0.00  0.00    +0.008 A 
ATOM     30  C   UNL     1      -4.223  -4.977  -1.860  0.00  0.00    +0.046 A 
ATOM     31  C   UNL     1      -5.068  -4.529  -2.865  0.00  0.00    +0.117 A 
ATOM     32  C   UNL     1      -4.590  -3.660  -3.834  0.00  0.00    +0.046 A 
ATOM     33  C   UNL     1      -3.275  -3.237  -3.794  0.00  0.00    +0.008 A 
BRANCH  31  34
ATOM     34  O   UNL     1      -6.362  -4.943  -2.900  0.00  0.00    -0.507 OA
ATOM     35  H   UNL     1      -6.970  -4.375  -2.408  0.00  0.00    +0.292 HD
ENDBRANCH  31  34
ENDBRANCH  27  28
ENDBRANCH   6  27
TORSDOF 8
