REMARK  Name = ZINC21664117
REMARK  4 active torsions:
REMARK  status: ('A' for Active; 'I' for Inactive)
REMARK    1  A    between atoms: C_1  and  C_2
REMARK    2  A    between atoms: C_2  and  C_3
REMARK    3  A    between atoms: C_2  and  N_4
REMARK    4  A    between atoms: C_5  and  C_7
REMARK                            x       y       z     vdW  Elec       q    Type
REMARK                         _______ _______ _______ _____ _____    ______ ____
ROOT
ATOM      1  C   UNL     1      -2.478   7.545  -0.077  0.00  0.00    +0.078 C 
ATOM      2  C   UNL     1      -1.827   7.095   1.234  0.00  0.00    +0.032 C 
ATOM      3  C   UNL     1      -1.551   5.591   1.170  0.00  0.00    +0.108 C 
ATOM      4  N   UNL     1      -0.662   5.303   0.036  0.00  0.00    -0.308 N 
ATOM      5  C   UNL     1      -1.286   5.684  -1.237  0.00  0.00    +0.108 C 
ATOM      6  C   UNL     1      -1.554   7.190  -1.245  0.00  0.00    +0.032 C 
ATOM      7  C   UNL     1      -0.288   3.970   0.026  0.00  0.00    +0.184 A 
ATOM      8  N   UNL     1       0.912   3.455   0.012  0.00  0.00    -0.139 NA
ATOM      9  N   UNL     1       1.110   2.077   0.003  0.00  0.00    -0.169 N 
ATOM     10  C   UNL     1       2.302   1.414  -0.013  0.00  0.00    +0.279 A 
ATOM     11  O   UNL     1       3.348   2.045  -0.018  0.00  0.00    -0.265 OA
ATOM     12  C   UNL     1       2.332   0.013  -0.025  0.00  0.00    +0.040 A 
ATOM     13  C   UNL     1       1.151  -0.685  -0.015  0.00  0.00    +0.053 A 
ATOM     14  N   UNL     1       0.002  -0.004   0.002  0.00  0.00    -0.226 NA
ATOM     15  C   UNL     1      -0.016   1.303   0.009  0.00  0.00    +0.201 A 
ATOM     16  S   UNL     1      -1.319   2.513   0.035  0.00  0.00    -0.013 S 
ATOM     17  C   UNL     1       1.090  -2.188  -0.017  0.00  0.00    +0.056 C 
ATOM     18  C   UNL     1       2.427  -2.777  -0.462  0.00  0.00    +0.006 C 
ATOM     19  C   UNL     1       3.541  -2.131   0.370  0.00  0.00    +0.005 C 
ATOM     20  C   UNL     1       3.674  -0.669  -0.052  0.00  0.00    +0.042 C 
ENDROOT
BRANCH   1  22
ATOM     21  N   UNL     1      -3.263   9.658  -1.097  0.00  0.00    -0.313 N 
ATOM     22  C   UNL     1      -2.699   9.036  -0.043  0.00  0.00    +0.216 C 
ATOM     23  O   UNL     1      -2.368   9.676   0.933  0.00  0.00    -0.276 OA
ATOM     24  H   UNL     1      -3.563   9.077  -1.982  0.00  0.00    +0.149 HD
BRANCH  21  26
ATOM     25  C   UNL     1      -3.523  11.648  -2.494  0.00  0.00    +0.027 C 
ATOM     26  C   UNL     1      -3.478  11.106  -1.064  0.00  0.00    +0.067 C 
ATOM     27  C   UNL     1      -4.803  11.410  -0.362  0.00  0.00    +0.027 C 
ENDBRANCH  21  26
ENDBRANCH   1  22
TORSDOF 2
