REMARK  Name = ZINC22619770
REMARK  13 active torsions:
REMARK  status: ('A' for Active; 'I' for Inactive)
REMARK    1  A    between atoms: C_1  and  C_2
REMARK    2  A    between atoms: C_3  and  C_34
REMARK    3  A    between atoms: C_11  and  C_13
REMARK    4  A    between atoms: C_13  and  S_14
REMARK    5  A    between atoms: S_14  and  C_15
REMARK    6  A    between atoms: C_15  and  C_17
REMARK    7  A    between atoms: C_15  and  C_18
REMARK    8  A    between atoms: N_20  and  C_21
REMARK    9  A    between atoms: C_21  and  C_22
REMARK   10  A    between atoms: C_22  and  C_24
REMARK   11  A    between atoms: C_22  and  N_31
REMARK   12  A    between atoms: N_31  and  C_32
REMARK   13  A    between atoms: N_31  and  C_33
REMARK                            x       y       z     vdW  Elec       q    Type
REMARK                         _______ _______ _______ _____ _____    ______ ____
ROOT
ATOM      1  C   UNL     1      -0.436  -6.407   4.566  0.00  0.00    +0.129 C 
ATOM      2  C   UNL     1       0.846  -5.876   5.210  0.00  0.00    +0.029 C 
ENDROOT
BRANCH   1   3
ATOM      3  C   UNL     1      -0.372  -7.911   4.487  0.00  0.00    +0.226 C 
ATOM      4  O   UNL     1       0.017  -8.449   3.472  0.00  0.00    -0.275 OA
ATOM      5  N   UNL     1      -0.748  -8.658   5.544  0.00  0.00    -0.316 N 
ATOM      6  H   UNL     1      -1.060  -8.227   6.356  0.00  0.00    +0.149 HD
BRANCH   5   7
ATOM      7  C   UNL     1      -0.687 -10.119   5.468  0.00  0.00    +0.093 C 
BRANCH   7   8
ATOM      8  C   UNL     1      -1.049 -10.717   6.829  0.00  0.00    -0.020 C 
BRANCH   8   9
ATOM      9  C   UNL     1      -0.006 -10.323   7.844  0.00  0.00    -0.041 A 
ATOM     10  C   UNL     1      -0.252  -9.283   8.720  0.00  0.00    +0.003 A 
ATOM     11  C   UNL     1       0.704  -8.922   9.651  0.00  0.00    +0.000 A 
ATOM     12  C   UNL     1       1.907  -9.602   9.706  0.00  0.00    +0.001 A 
ATOM     13  C   UNL     1       2.154 -10.642   8.830  0.00  0.00    +0.020 A 
ATOM     14  C   UNL     1       1.195 -11.007   7.902  0.00  0.00    +0.043 A 
ATOM     15 CL   UNL     1       1.502 -12.318   6.806  0.00  0.00    -0.083 Cl
ENDBRANCH   8   9
BRANCH   8  16
ATOM     16  N   UNL     1      -2.360 -10.210   7.253  0.00  0.00    +0.382 N 
ATOM     17  C   UNL     1      -3.352 -10.477   6.203  0.00  0.00    -0.096 C 
ATOM     18  C   UNL     1      -2.767 -10.882   8.494  0.00  0.00    -0.096 C 
ATOM     19  H   UNL     1      -2.301  -9.215   7.414  0.00  0.00    -0.082 HD
ENDBRANCH   8  16
ENDBRANCH   7   8
ENDBRANCH   5   7
ENDBRANCH   1   3
BRANCH   1  20
ATOM     20  S   UNL     1      -0.602  -5.721   2.895  0.00  0.00    -0.141 S 
BRANCH  20  21
ATOM     21  C   UNL     1      -0.816  -3.941   3.171  0.00  0.00    +0.144 C 
BRANCH  21  32
ATOM     22  C   UNL     1      -1.570  -0.024  -2.218  0.00  0.00    +0.045 C 
ATOM     23  C   UNL     1      -1.369  -1.491  -1.939  0.00  0.00    -0.026 A 
ATOM     24  C   UNL     1      -1.299  -2.371  -2.951  0.00  0.00    -0.008 A 
ATOM     25  S   UNL     1      -1.062  -3.933  -2.124  0.00  0.00    -0.073 S 
ATOM     26  C   UNL     1      -1.065  -3.358  -0.445  0.00  0.00    +0.116 A 
ATOM     27  C   UNL     1      -1.244  -1.969  -0.575  0.00  0.00    +0.075 A 
ATOM     28  C   UNL     1      -1.281  -1.232   0.654  0.00  0.00    +0.260 A 
ATOM     29  O   UNL     1      -1.436  -0.023   0.646  0.00  0.00    -0.267 OA
ATOM     30  N   UNL     1      -1.141  -1.895   1.816  0.00  0.00    -0.310 N 
ATOM     31  H   UNL     1      -1.165  -1.402   2.651  0.00  0.00    +0.170 HD
ATOM     32  C   UNL     1      -0.968  -3.242   1.844  0.00  0.00    +0.121 A 
ATOM     33  N   UNL     1      -0.939  -3.943   0.743  0.00  0.00    -0.226 NA
ATOM     34  C   UNL     1      -1.397  -2.103  -4.430  0.00  0.00    +0.052 C 
ENDBRANCH  21  32
ENDBRANCH  20  21
ENDBRANCH   1  20
TORSDOF 8
