REMARK  Name = ZINC58007197
REMARK  2 active torsions:
REMARK  status: ('A' for Active; 'I' for Inactive)
REMARK    1  A    between atoms: C_5  and  C_7
REMARK    2  A    between atoms: C_12  and  O_16
REMARK                            x       y       z     vdW  Elec       q    Type
REMARK                         _______ _______ _______ _____ _____    ______ ____
ROOT
ATOM      1  C   UNL     1       1.249  -2.160  -0.023  0.00  0.00    +0.230 A 
ATOM      2  N   UNL     1       2.335  -2.890  -0.033  0.00  0.00    -0.209 NA
ATOM      3  C   UNL     1       1.980  -4.201  -0.039  0.00  0.00    +0.110 A 
ATOM      4  C   UNL     1       2.705  -5.396  -0.051  0.00  0.00    +0.035 A 
ATOM      5  C   UNL     1       2.046  -6.593  -0.055  0.00  0.00    +0.048 A 
ATOM      6  C   UNL     1       0.655  -6.633  -0.048  0.00  0.00    +0.120 A 
ATOM      7  C   UNL     1      -0.080  -5.459  -0.037  0.00  0.00    +0.093 A 
ATOM      8  C   UNL     1       0.576  -4.239  -0.032  0.00  0.00    +0.159 A 
ATOM      9  O   UNL     1       0.160  -2.953  -0.016  0.00  0.00    -0.435 OA
ENDROOT
BRANCH   1  14
ATOM     10  C   UNL     1      -0.017   1.375   0.010  0.00  0.00    +0.001 A 
ATOM     11  C   UNL     1       1.170   2.087   0.002  0.00  0.00    +0.001 A 
ATOM     12  C   UNL     1       2.383   1.422  -0.013  0.00  0.00    +0.021 A 
ATOM     13  C   UNL     1       2.417   0.041  -0.022  0.00  0.00    +0.053 A 
ATOM     14  C   UNL     1       1.222  -0.683  -0.014  0.00  0.00    +0.055 A 
ATOM     15  C   UNL     1       0.002  -0.004   0.002  0.00  0.00    +0.014 A 
ATOM     16 CL   UNL     1       3.939  -0.792  -0.042  0.00  0.00    -0.083 Cl
ENDBRANCH   1  14
BRANCH   6  17
ATOM     17  O   UNL     1       0.013  -7.831  -0.053  0.00  0.00    -0.507 OA
ATOM     18  H   UNL     1      -0.168  -8.184   0.829  0.00  0.00    +0.292 HD
ENDBRANCH   6  17
TORSDOF 2
