REMARK  Name = ZINC18350525
REMARK  9 active torsions:
REMARK  status: ('A' for Active; 'I' for Inactive)
REMARK    1  A    between atoms: C_1  and  C_2
REMARK    2  A    between atoms: C_2  and  N_3
REMARK    3  A    between atoms: N_3  and  C_4
REMARK    4  A    between atoms: C_4  and  C_5
REMARK    5  A    between atoms: C_6  and  C_8
REMARK    6  A    between atoms: C_12  and  N_14
REMARK    7  A    between atoms: C_15  and  C_17
REMARK    8  A    between atoms: C_17  and  N_18
REMARK    9  A    between atoms: C_26  and  C_28
REMARK                            x       y       z     vdW  Elec       q    Type
REMARK                         _______ _______ _______ _____ _____    ______ ____
ROOT
ATOM      1  N   UNL     1       2.495   0.075  -5.822  0.00  0.00    -0.284 N 
ATOM      2  C   UNL     1       2.627   0.858  -6.911  0.00  0.00    +0.235 C 
ATOM      3  O   UNL     1       2.344   2.036  -6.849  0.00  0.00    -0.274 OA
ATOM      4  H   UNL     1       2.787  -0.849  -5.851  0.00  0.00    +0.155 HD
ENDROOT
BRANCH   1   9
ATOM      5  C   UNL     1       0.402   2.087  -3.550  0.00  0.00    +0.039 A 
ATOM      6  C   UNL     1       0.845   1.621  -2.311  0.00  0.00    +0.013 A 
ATOM      7  C   UNL     1       1.819   0.646  -2.249  0.00  0.00    +0.003 A 
ATOM      8  C   UNL     1       2.367   0.135  -3.411  0.00  0.00    +0.023 A 
ATOM      9  C   UNL     1       1.937   0.596  -4.649  0.00  0.00    +0.034 A 
ATOM     10  C   UNL     1       0.955   1.571  -4.722  0.00  0.00    +0.036 A 
BRANCH   5  12
ATOM     11  N   UNL     1      -0.568   4.216  -2.829  0.00  0.00    -0.298 N 
ATOM     12  C   UNL     1      -0.646   3.128  -3.620  0.00  0.00    +0.247 C 
ATOM     13  O   UNL     1      -1.577   3.002  -4.391  0.00  0.00    -0.270 OA
BRANCH  11  15
ATOM     14  C   UNL     1      -1.272   6.333  -3.832  0.00  0.00    +0.024 C 
ATOM     15  C   UNL     1      -1.638   5.216  -2.852  0.00  0.00    +0.104 C 
ENDBRANCH  11  15
BRANCH  11  16
ATOM     16  C   UNL     1       0.586   4.399  -1.945  0.00  0.00    +0.104 C 
ATOM     17  C   UNL     1       0.213   3.974  -0.523  0.00  0.00    +0.024 C 
ENDBRANCH  11  16
ENDBRANCH   5  12
ENDBRANCH   1   9
BRANCH   2  18
ATOM     18  C   UNL     1       3.127   0.271  -8.206  0.00  0.00    +0.214 C 
BRANCH  18  19
ATOM     19  N   UNL     1       3.180   1.318  -9.229  0.00  0.00    -0.215 N 
ATOM     20  C   UNL     1       2.160   1.620 -10.059  0.00  0.00    +0.247 C 
ATOM     21  O   UNL     1       1.067   1.097 -10.099  0.00  0.00    -0.273 OA
ATOM     22  C   UNL     1       2.667   2.749 -10.927  0.00  0.00    +0.115 C 
ATOM     23  C   UNL     1       1.820   4.002 -10.726  0.00  0.00    +0.035 C 
ATOM     24  C   UNL     1       0.388   3.733 -11.194  0.00  0.00    +0.003 C 
ATOM     25  C   UNL     1       0.402   3.339 -12.672  0.00  0.00    +0.000 C 
ATOM     26  C   UNL     1       1.234   2.068 -12.854  0.00  0.00    +0.006 C 
ATOM     27  C   UNL     1       2.670   2.329 -12.392  0.00  0.00    +0.018 C 
ATOM     28  C   UNL     1       3.498   1.052 -12.554  0.00  0.00    +0.010 C 
ATOM     29  N   UNL     1       4.039   2.975 -10.454  0.00  0.00    -0.285 N 
ATOM     30  C   UNL     1       4.249   2.091  -9.459  0.00  0.00    +0.310 C 
ATOM     31  O   UNL     1       5.291   2.005  -8.841  0.00  0.00    -0.252 OA
ATOM     32  H   UNL     1       4.669   3.631 -10.791  0.00  0.00    +0.151 HD
ENDBRANCH  18  19
ENDBRANCH   2  18
TORSDOF 6
