REMARK  Name = ZINC20532151
REMARK  12 active torsions:
REMARK  status: ('A' for Active; 'I' for Inactive)
REMARK    1  A    between atoms: C_1  and  C_2
REMARK    2  A    between atoms: C_4  and  C_34
REMARK    3  A    between atoms: C_6  and  N_8
REMARK    4  A    between atoms: N_11  and  C_12
REMARK    5  A    between atoms: C_12  and  C_14
REMARK    6  A    between atoms: C_12  and  C_19
REMARK    7  A    between atoms: C_14  and  C_15
REMARK    8  A    between atoms: C_15  and  C_16
REMARK    9  A    between atoms: C_16  and  C_17
REMARK   10  A    between atoms: C_16  and  C_18
REMARK   11  A    between atoms: C_23  and  N_24
REMARK   12  A    between atoms: N_30  and  C_33
REMARK                            x       y       z     vdW  Elec       q    Type
REMARK                         _______ _______ _______ _____ _____    ______ ____
ROOT
ATOM      1  C   UNL     1       0.512  -0.477  -3.237  0.00  0.00    +0.108 C 
ENDROOT
BRANCH   1   2
ATOM      2  C   UNL     1       0.950   0.526  -2.200  0.00  0.00    +0.007 A 
ATOM      3  C   UNL     1       0.007   1.132  -1.374  0.00  0.00    -0.034 A 
ATOM      4  C   UNL     1       0.478   2.030  -0.464  0.00  0.00    -0.021 A 
ATOM      5  S   UNL     1       2.227   2.038  -0.743  0.00  0.00    -0.077 S 
ATOM      6  C   UNL     1       2.266   0.842  -2.069  0.00  0.00    +0.090 A 
ATOM      7  C   UNL     1      -0.325   2.810   0.525  0.00  0.00    -0.036 C 
ATOM      8  N   UNL     1      -1.746   2.722   0.135  0.00  0.00    +0.381 N 
ATOM      9  C   UNL     1      -2.125   1.327  -0.129  0.00  0.00    -0.074 C 
ATOM     10  C   UNL     1      -1.491   0.844  -1.436  0.00  0.00    +0.018 C 
ATOM     11  C   UNL     1      -2.611   3.318   1.161  0.00  0.00    -0.096 C 
ATOM     12  H   UNL     1      -1.887   3.296  -0.794  0.00  0.00    -0.082 HD
BRANCH   6  13
ATOM     13  N   UNL     1       3.365   0.356  -2.787  0.00  0.00    -0.317 N 
ATOM     14  C   UNL     1       4.104  -0.746  -2.463  0.00  0.00    +0.092 A 
ATOM     15  C   UNL     1       5.070  -0.893  -3.392  0.00  0.00    +0.019 A 
ATOM     16  C   UNL     1       4.931   0.160  -4.318  0.00  0.00    +0.019 A 
ATOM     17  C   UNL     1       3.880   0.909  -3.924  0.00  0.00    +0.092 A 
ENDBRANCH   6  13
ENDBRANCH   1   2
BRANCH   1  21
ATOM     18  N   UNL     1      -1.414   1.341  -5.787  0.00  0.00    -0.269 N 
ATOM     19  C   UNL     1      -0.380   0.838  -5.084  0.00  0.00    +0.304 C 
ATOM     20  O   UNL     1       0.762   1.078  -5.426  0.00  0.00    -0.252 OA
ATOM     21  N   UNL     1      -0.612   0.070  -4.001  0.00  0.00    -0.292 N 
ATOM     22  H   UNL     1      -2.445   1.184  -5.437  0.00  0.00    +0.156 HD
ATOM     23  H   UNL     1      -1.645  -0.148  -3.691  0.00  0.00    +0.151 HD
BRANCH  18  29
ATOM     24  C   UNL     1      -2.921   2.805 -10.232  0.00  0.00    +0.044 C 
ATOM     25  C   UNL     1      -1.889   2.789  -9.133  0.00  0.00    -0.048 A 
ATOM     26  C   UNL     1      -0.705   3.486  -9.287  0.00  0.00    +0.006 A 
ATOM     27  C   UNL     1       0.244   3.474  -8.281  0.00  0.00    -0.048 A 
ATOM     28  C   UNL     1       0.012   2.764  -7.120  0.00  0.00    +0.026 A 
ATOM     29  C   UNL     1      -1.176   2.062  -6.963  0.00  0.00    +0.035 A 
ATOM     30  C   UNL     1      -2.125   2.072  -7.976  0.00  0.00    +0.026 A 
ATOM     31  C   UNL     1       1.533   4.236  -8.453  0.00  0.00    +0.044 C 
ENDBRANCH  18  29
ENDBRANCH   1  21
BRANCH   1  32
ATOM     32  C   UNL     1       0.077  -1.770  -2.544  0.00  0.00    +0.027 C 
BRANCH  32  33
ATOM     33  C   UNL     1      -0.248  -2.829  -3.599  0.00  0.00    +0.005 C 
BRANCH  33  34
ATOM     34  C   UNL     1      -0.683  -4.122  -2.906  0.00  0.00    -0.017 C 
ATOM     35  C   UNL     1      -1.994  -3.882  -2.155  0.00  0.00    +0.007 C 
ATOM     36  C   UNL     1      -0.888  -5.218  -3.953  0.00  0.00    +0.007 C 
ENDBRANCH  33  34
ENDBRANCH  32  33
ENDBRANCH   1  32
TORSDOF 7
