REMARK  Name = ZINC39422572
REMARK  8 active torsions:
REMARK  status: ('A' for Active; 'I' for Inactive)
REMARK    1  A    between atoms: C_1  and  C_2
REMARK    2  A    between atoms: C_10  and  C_14
REMARK    3  A    between atoms: C_14  and  C_16
REMARK    4  A    between atoms: C_14  and  S_17
REMARK    5  A    between atoms: S_17  and  C_18
REMARK    6  A    between atoms: C_21  and  C_24
REMARK    7  A    between atoms: C_24  and  C_25
REMARK    8  A    between atoms: C_24  and  C_26
REMARK                            x       y       z     vdW  Elec       q    Type
REMARK                         _______ _______ _______ _____ _____    ______ ____
ROOT
ATOM      1  C   UNL     1      -0.019   1.526   0.010  0.00  0.00    +0.007 C 
ATOM      2  C   UNL     1       0.002  -0.004   0.002  0.00  0.00    -0.012 C 
ATOM      3  C   UNL     1       0.702  -0.489  -1.265  0.00  0.00    +0.008 C 
ATOM      4  C   UNL     1       2.123   0.085  -1.344  0.00  0.00    +0.033 C 
ATOM      5  C   UNL     1       2.809  -0.264  -0.025  0.00  0.00    -0.042 C 
ATOM      6  C   UNL     1       3.969  -0.911   0.083  0.00  0.00    +0.071 C 
ATOM      7  C   UNL     1       4.411  -1.344   1.435  0.00  0.00    +0.112 C 
ATOM      8  N   UNL     1       5.516  -2.025   1.629  0.00  0.00    -0.226 NA
ATOM      9  C   UNL     1       6.254  -2.325   0.560  0.00  0.00    +0.137 C 
ATOM     10  N   UNL     1       5.969  -1.998  -0.674  0.00  0.00    -0.160 NA
ATOM     11  C   UNL     1       4.875  -1.309  -1.047  0.00  0.00    +0.271 C 
ATOM     12  O   UNL     1       4.637  -1.030  -2.210  0.00  0.00    -0.268 OA
ATOM     13  S   UNL     1       3.169  -0.735   2.531  0.00  0.00    -0.097 S 
ATOM     14  C   UNL     1       2.124   0.120   1.289  0.00  0.00    +0.080 C 
ATOM     15  C   UNL     1       0.729  -0.504   1.254  0.00  0.00    +0.022 C 
ENDROOT
BRANCH   9  16
ATOM     16  C   UNL     1       7.523  -3.104   0.793  0.00  0.00    +0.116 C 
ATOM     17  C   UNL     1       8.703  -2.136   0.906  0.00  0.00    +0.027 C 
BRANCH  16  18
ATOM     18  S   UNL     1       7.374  -4.056   2.329  0.00  0.00    -0.076 S 
BRANCH  18  19
ATOM     19  C   UNL     1       8.853  -5.013   2.383  0.00  0.00    +0.185 A 
ATOM     20  H   UNL     1       8.693  -6.102   4.151  0.00  0.00    +0.191 HD
ATOM     21  N   UNL     1       9.816  -5.002   1.486  0.00  0.00    -0.205 NA
ATOM     22  C   UNL     1      10.780  -5.849   1.851  0.00  0.00    +0.154 A 
ATOM     23  N   UNL     1      10.449  -6.412   2.982  0.00  0.00    -0.157 NA
ATOM     24  N   UNL     1       9.203  -5.883   3.355  0.00  0.00    -0.254 N 
BRANCH  22  25
ATOM     25  C   UNL     1      12.048  -6.114   1.081  0.00  0.00    +0.053 C 
ATOM     26  C   UNL     1      13.256  -5.757   1.949  0.00  0.00    +0.015 C 
ATOM     27  C   UNL     1      12.113  -7.594   0.700  0.00  0.00    +0.015 C 
ENDBRANCH  22  25
ENDBRANCH  18  19
ENDBRANCH  16  18
ENDBRANCH   9  16
TORSDOF 4
