REMARK  Name = ZINC18158376
REMARK  4 active torsions:
REMARK  status: ('A' for Active; 'I' for Inactive)
REMARK    1  A    between atoms: C_1  and  C_2
REMARK    2  A    between atoms: N_4  and  C_21
REMARK    3  A    between atoms: C_7  and  C_9
REMARK    4  A    between atoms: N_10  and  C_11
REMARK                            x       y       z     vdW  Elec       q    Type
REMARK                         _______ _______ _______ _____ _____    ______ ____
ROOT
ATOM      1  C   UNL     1       0.525   1.325   0.144  0.00  0.00    +0.063 C 
ATOM      2  C   UNL     1       0.248  -0.155   0.084  0.00  0.00    +0.052 C 
ATOM      3  N   UNL     1       0.172  -0.870  -0.970  0.00  0.00    -0.181 NA
ATOM      4  N   UNL     1      -0.096  -2.209  -0.705  0.00  0.00    -0.160 N 
ATOM      5  C   UNL     1      -0.210  -2.429   0.621  0.00  0.00    +0.253 C 
ATOM      6  O   UNL     1      -0.440  -3.482   1.178  0.00  0.00    -0.272 OA
ATOM      7  C   UNL     1       0.015  -1.075   1.265  0.00  0.00    +0.164 C 
ENDROOT
BRANCH   4   8
ATOM      8  C   UNL     1      -0.229  -3.199  -1.686  0.00  0.00    +0.060 A 
ATOM      9  C   UNL     1      -0.503  -4.510  -1.319  0.00  0.00    +0.025 A 
ATOM     10  C   UNL     1      -0.634  -5.484  -2.290  0.00  0.00    +0.002 A 
ATOM     11  C   UNL     1      -0.492  -5.155  -3.626  0.00  0.00    +0.000 A 
ATOM     12  C   UNL     1      -0.219  -3.851  -3.994  0.00  0.00    +0.002 A 
ATOM     13  C   UNL     1      -0.093  -2.871  -3.029  0.00  0.00    +0.025 A 
ENDBRANCH   4   8
BRANCH   7  14
ATOM     14  C   UNL     1      -1.206  -0.647   2.038  0.00  0.00    +0.103 C 
ATOM     15  N   UNL     1      -1.099  -0.314   3.281  0.00  0.00    -0.257 NA
BRANCH  15  16
ATOM     16  C   UNL     1      -2.221  -0.029   4.013  0.00  0.00    +0.089 A 
ATOM     17  C   UNL     1      -3.313  -0.881   3.979  0.00  0.00    +0.030 A 
ATOM     18  C   UNL     1      -4.456  -0.601   4.717  0.00  0.00    +0.003 A 
ATOM     19  C   UNL     1      -4.535   0.517   5.493  0.00  0.00    +0.010 A 
ATOM     20  C   UNL     1      -3.451   1.408   5.556  0.00  0.00    +0.002 A 
ATOM     21  C   UNL     1      -2.275   1.138   4.815  0.00  0.00    +0.096 A 
ATOM     22  N   UNL     1      -1.242   1.980   4.876  0.00  0.00    -0.253 NA
ATOM     23  C   UNL     1      -1.286   3.061   5.617  0.00  0.00    +0.111 A 
ATOM     24  C   UNL     1      -2.409   3.384   6.375  0.00  0.00    +0.020 A 
ATOM     25  C   UNL     1      -3.506   2.570   6.349  0.00  0.00    +0.011 A 
ENDBRANCH  15  16
ENDBRANCH   7  14
TORSDOF 3
