REMARK  Name = ZINC36205968
REMARK  14 active torsions:
REMARK  status: ('A' for Active; 'I' for Inactive)
REMARK    1  A    between atoms: C_1  and  C_2
REMARK    2  A    between atoms: C_2  and  N_3
REMARK    3  A    between atoms: N_3  and  C_4
REMARK    4  A    between atoms: N_3  and  C_26
REMARK    5  A    between atoms: C_4  and  C_5
REMARK    6  A    between atoms: C_11  and  C_16
REMARK    7  A    between atoms: C_19  and  O_24
REMARK    8  A    between atoms: C_20  and  O_22
REMARK    9  A    between atoms: O_22  and  C_23
REMARK   10  A    between atoms: O_24  and  C_25
REMARK   11  A    between atoms: C_26  and  C_27
REMARK   12  A    between atoms: C_27  and  C_29
REMARK   13  A    between atoms: C_27  and  O_36
REMARK   14  A    between atoms: C_29  and  C_30
REMARK                            x       y       z     vdW  Elec       q    Type
REMARK                         _______ _______ _______ _____ _____    ______ ____
ROOT
ATOM      1  C   UNL     1      -1.385  -2.196   1.630  0.00  0.00    +0.094 A 
ATOM      2  N   UNL     1      -1.494  -3.485   2.043  0.00  0.00    -0.312 N 
ATOM      3  H   UNL     1      -1.792  -4.162   1.415  0.00  0.00    +0.170 HD
ATOM      4  C   UNL     1      -1.197  -3.842   3.306  0.00  0.00    +0.260 A 
ATOM      5  O   UNL     1      -1.300  -5.004   3.661  0.00  0.00    -0.267 OA
ATOM      6  C   UNL     1      -0.758  -2.837   4.226  0.00  0.00    +0.080 A 
ATOM      7  C   UNL     1      -0.381  -2.971   5.628  0.00  0.00    +0.004 A 
ATOM      8  C   UNL     1       0.008  -1.865   6.306  0.00  0.00    +0.056 A 
ATOM      9  S   UNL     1      -0.112  -0.570   5.088  0.00  0.00    -0.076 S 
ATOM     10  C   UNL     1      -0.675  -1.534   3.709  0.00  0.00    +0.116 A 
ATOM     11  N   UNL     1      -0.983  -1.258   2.444  0.00  0.00    -0.229 NA
ENDROOT
BRANCH   7  12
ATOM     12  C   UNL     1      -0.423  -4.293   6.298  0.00  0.00    -0.013 A 
ATOM     13  C   UNL     1      -1.562  -5.090   6.200  0.00  0.00    +0.012 A 
ATOM     14  C   UNL     1      -1.601  -6.320   6.825  0.00  0.00    +0.050 A 
ATOM     15  C   UNL     1      -0.507  -6.766   7.550  0.00  0.00    +0.162 A 
ATOM     16  C   UNL     1       0.634  -5.975   7.651  0.00  0.00    +0.162 A 
ATOM     17  C   UNL     1       0.680  -4.744   7.023  0.00  0.00    +0.058 A 
BRANCH  16  18
ATOM     18  O   UNL     1       1.706  -6.415   8.363  0.00  0.00    -0.491 OA
ATOM     19  C   UNL     1       2.843  -5.552   8.425  0.00  0.00    +0.277 C 
ENDBRANCH  16  18
BRANCH  15  20
ATOM     20  O   UNL     1      -0.549  -7.979   8.165  0.00  0.00    -0.491 OA
ATOM     21  C   UNL     1      -1.751  -8.738   8.020  0.00  0.00    +0.277 C 
ENDBRANCH  15  20
ENDBRANCH   7  12
BRANCH   1  22
ATOM     22  C   UNL     1      -1.729  -1.843   0.205  0.00  0.00    -0.003 C 
BRANCH  22  23
ATOM     23  N   UNL     1      -1.528  -0.403  -0.004  0.00  0.00    +0.386 N 
ATOM     24  H   UNL     1      -2.062   0.114   0.678  0.00  0.00    -0.081 HD
BRANCH  23  26
ATOM     25  C   UNL     1       0.695  -0.783  -0.957  0.00  0.00    -0.017 C 
ATOM     26  C   UNL     1      -0.103  -0.081   0.143  0.00  0.00    -0.082 C 
ENDBRANCH  23  26
BRANCH  23  27
ATOM     27  C   UNL     1      -1.976  -0.038  -1.355  0.00  0.00    -0.046 C 
BRANCH  27  28
ATOM     28  C   UNL     1      -1.881   1.479  -1.530  0.00  0.00    +0.102 C 
BRANCH  28  29
ATOM     29  O   UNL     1      -2.704   2.123  -0.556  0.00  0.00    -0.393 OA
ATOM     30  H   UNL     1      -3.640   1.887  -0.612  0.00  0.00    +0.210 HD
ENDBRANCH  28  29
BRANCH  28  31
ATOM     31  C   UNL     1      -2.359   1.861  -2.933  0.00  0.00    +0.064 C 
BRANCH  31  32
ATOM     32  C   UNL     1      -2.151   3.337  -3.150  0.00  0.00    -0.045 A 
ATOM     33  C   UNL     1      -3.149   4.232  -2.812  0.00  0.00    +0.004 A 
ATOM     34  C   UNL     1      -2.958   5.587  -3.011  0.00  0.00    +0.000 A 
ATOM     35  C   UNL     1      -1.770   6.046  -3.548  0.00  0.00    +0.000 A 
ATOM     36  C   UNL     1      -0.772   5.151  -3.885  0.00  0.00    +0.000 A 
ATOM     37  C   UNL     1      -0.961   3.797  -3.682  0.00  0.00    +0.004 A 
ENDBRANCH  31  32
ENDBRANCH  28  31
ENDBRANCH  27  28
ENDBRANCH  23  27
ENDBRANCH  22  23
ENDBRANCH   1  22
TORSDOF 11
