REMARK  Name = ZINC29084957
REMARK  7 active torsions:
REMARK  status: ('A' for Active; 'I' for Inactive)
REMARK    1  A    between atoms: C_1  and  C_2
REMARK    2  A    between atoms: C_4  and  C_16
REMARK    3  A    between atoms: C_6  and  C_11
REMARK    4  A    between atoms: N_18  and  C_19
REMARK    5  A    between atoms: C_19  and  C_21
REMARK    6  A    between atoms: C_19  and  C_28
REMARK    7  A    between atoms: N_32  and  C_33
REMARK                            x       y       z     vdW  Elec       q    Type
REMARK                         _______ _______ _______ _____ _____    ______ ____
ROOT
ATOM      1  C   UNL     1       2.348   0.897  -1.267  0.00  0.00    +0.246 C 
ATOM      2  O   UNL     1       2.138  -0.190  -1.770  0.00  0.00    -0.270 OA
ATOM      3  N   UNL     1       1.321   1.629  -0.790  0.00  0.00    -0.298 N 
ATOM      4  H   UNL     1       1.512   2.612  -0.335  0.00  0.00    +0.150 HD
ENDROOT
BRANCH   1   8
ATOM      5  C   UNL     1       3.809  -1.891  -0.727  0.00  0.00    +0.070 C 
ATOM      6  C   UNL     1       4.938  -0.893  -0.731  0.00  0.00    +0.091 A 
ATOM      7  C   UNL     1       4.819   0.548  -0.937  0.00  0.00    +0.076 A 
ATOM      8  C   UNL     1       3.731   1.415  -1.177  0.00  0.00    +0.053 A 
ATOM      9  C   UNL     1       4.000   2.770  -1.332  0.00  0.00    +0.045 A 
ATOM     10  C   UNL     1       5.323   3.218  -1.235  0.00  0.00    +0.111 A 
ATOM     11  N   UNL     1       6.322   2.375  -1.008  0.00  0.00    -0.207 NA
ATOM     12  C   UNL     1       6.120   1.076  -0.858  0.00  0.00    +0.260 A 
ATOM     13  O   UNL     1       6.949   0.038  -0.625  0.00  0.00    -0.334 OA
ATOM     14  N   UNL     1       6.198  -1.156  -0.552  0.00  0.00    -0.080 NA
BRANCH  10  15
ATOM     15  C   UNL     1       5.613   4.655  -1.393  0.00  0.00    +0.153 A 
ATOM     16  C   UNL     1       6.843   5.235  -1.325  0.00  0.00    +0.051 A 
ATOM     17  C   UNL     1       6.654   6.614  -1.536  0.00  0.00    +0.042 A 
ATOM     18  C   UNL     1       5.332   6.809  -1.712  0.00  0.00    +0.196 A 
ATOM     19  O   UNL     1       4.706   5.625  -1.626  0.00  0.00    -0.461 OA
ENDBRANCH  10  15
ENDBRANCH   1   8
BRANCH   3  20
ATOM     20  C   UNL     1      -0.048   1.115  -0.879  0.00  0.00    +0.170 C 
BRANCH  20  21
ATOM     21  C   UNL     1      -0.892   1.747   0.198  0.00  0.00    -0.017 A 
ATOM     22  C   UNL     1      -0.731   3.085   0.506  0.00  0.00    +0.006 A 
ATOM     23  C   UNL     1      -1.508   3.666   1.490  0.00  0.00    +0.003 A 
ATOM     24  C   UNL     1      -2.439   2.908   2.175  0.00  0.00    +0.038 A 
ATOM     25  C   UNL     1      -2.598   1.567   1.870  0.00  0.00    +0.124 A 
ATOM     26  C   UNL     1      -1.822   0.987   0.880  0.00  0.00    +0.044 A 
ATOM     27  F   UNL     1      -3.507   0.825   2.538  0.00  0.00    -0.205 F 
ENDBRANCH  20  21
BRANCH  20  28
ATOM     28  C   UNL     1      -0.624   1.452  -2.231  0.00  0.00    +0.134 A 
ATOM     29  N   UNL     1      -0.533   2.607  -2.830  0.00  0.00    -0.238 NA
ATOM     30  C   UNL     1      -1.161   2.543  -4.014  0.00  0.00    +0.130 A 
ATOM     31  C   UNL     1      -1.660   1.300  -4.153  0.00  0.00    +0.106 A 
ATOM     32  N   UNL     1      -1.314   0.605  -3.025  0.00  0.00    -0.336 N 
ATOM     33  C   UNL     1      -1.637  -0.793  -2.732  0.00  0.00    +0.150 C 
ENDBRANCH  20  28
ENDBRANCH   3  20
TORSDOF 5
