REMARK  Name = ZINC60039785
REMARK  16 active torsions:
REMARK  status: ('A' for Active; 'I' for Inactive)
REMARK    1  A    between atoms: C_1  and  C_2
REMARK    2  A    between atoms: C_2  and  C_3
REMARK    3  A    between atoms: C_3  and  N_4
REMARK    4  A    between atoms: N_4  and  C_5
REMARK    5  A    between atoms: N_4  and  C_27
REMARK    6  A    between atoms: C_5  and  C_6
REMARK    7  A    between atoms: N_8  and  C_9
REMARK    8  A    between atoms: N_8  and  C_13
REMARK    9  A    between atoms: C_9  and  C_10
REMARK   10  A    between atoms: C_10  and  C_11
REMARK   11  A    between atoms: C_10  and  C_12
REMARK   12  A    between atoms: C_14  and  N_26
REMARK   13  A    between atoms: N_15  and  C_22
REMARK   14  A    between atoms: C_22  and  C_23
REMARK   15  A    between atoms: C_23  and  C_24
REMARK   16  A    between atoms: C_23  and  C_25
REMARK                            x       y       z     vdW  Elec       q    Type
REMARK                         _______ _______ _______ _____ _____    ______ ____
ROOT
ATOM      1  C   UNL     1       0.279  -1.794   1.636  0.00  0.00    +0.203 C 
ATOM      2  O   UNL     1       0.500  -0.859   0.896  0.00  0.00    -0.277 OA
ATOM      3  N   UNL     1       1.150  -2.096   2.621  0.00  0.00    -0.266 N 
ENDROOT
BRANCH   3   4
ATOM      4  C   UNL     1       2.267  -1.266   2.854  0.00  0.00    +0.140 A 
ATOM      5  C   UNL     1       3.216  -1.073   1.871  0.00  0.00    +0.127 A 
ATOM      6  N   UNL     1       4.293  -0.258   2.128  0.00  0.00    -0.280 N 
ATOM      7  C   UNL     1       4.420   0.346   3.324  0.00  0.00    +0.331 A 
ATOM      8  O   UNL     1       5.379   1.063   3.532  0.00  0.00    -0.246 OA
ATOM      9  N   UNL     1       3.505   0.171   4.294  0.00  0.00    -0.273 N 
ATOM     10  H   UNL     1       3.619   0.618   5.147  0.00  0.00    +0.173 HD
ATOM     11  C   UNL     1       2.428  -0.614   4.091  0.00  0.00    +0.277 A 
ATOM     12  O   UNL     1       1.602  -0.763   4.976  0.00  0.00    -0.266 OA
BRANCH   5  13
ATOM     13  N   UNL     1       3.087  -1.690   0.650  0.00  0.00    -0.343 N 
ATOM     14  H   UNL     1       2.303  -2.229   0.459  0.00  0.00    +0.144 HD
ATOM     15  H   UNL     1       3.779  -1.587  -0.021  0.00  0.00    +0.144 HD
ENDBRANCH   5  13
BRANCH   6  16
ATOM     16  C   UNL     1       5.309  -0.045   1.094  0.00  0.00    +0.131 C 
BRANCH  16  17
ATOM     17  C   UNL     1       4.921   1.163   0.239  0.00  0.00    +0.003 C 
ATOM     18  C   UNL     1       4.950   2.428   1.101  0.00  0.00    +0.009 C 
ATOM     19  C   UNL     1       5.913   1.310  -0.916  0.00  0.00    +0.009 C 
ENDBRANCH  16  17
ENDBRANCH   6  16
ENDBRANCH   3   4
BRANCH   1  20
ATOM     20  C   UNL     1      -0.970  -2.619   1.456  0.00  0.00    +0.019 C 
BRANCH  20  21
ATOM     21  N   UNL     1      -1.705  -2.143   0.277  0.00  0.00    +0.388 N 
ATOM     22  H   UNL     1      -2.541  -2.695   0.155  0.00  0.00    -0.081 HD
BRANCH  21  23
ATOM     23  C   UNL     1      -2.074  -0.733   0.466  0.00  0.00    -0.063 C 
ATOM     24  C   UNL     1      -3.048  -0.608   1.643  0.00  0.00    -0.010 C 
ATOM     25  C   UNL     1      -3.224   0.874   1.967  0.00  0.00    +0.034 C 
ATOM     26  C   UNL     1      -3.569   1.650   0.724  0.00  0.00    -0.044 A 
ATOM     27  C   UNL     1      -4.128   2.912   0.883  0.00  0.00    +0.004 A 
ATOM     28  C   UNL     1      -4.461   3.675  -0.217  0.00  0.00    +0.000 A 
ATOM     29  C   UNL     1      -4.236   3.182  -1.488  0.00  0.00    +0.000 A 
ATOM     30  C   UNL     1      -3.683   1.928  -1.649  0.00  0.00    +0.004 A 
ATOM     31  C   UNL     1      -3.351   1.157  -0.543  0.00  0.00    -0.046 A 
ATOM     32  C   UNL     1      -2.765  -0.209  -0.791  0.00  0.00    +0.020 C 
ENDBRANCH  21  23
BRANCH  21  33
ATOM     33  C   UNL     1      -0.856  -2.271  -0.915  0.00  0.00    -0.078 C 
BRANCH  33  35
ATOM     34  C   UNL     1       0.208  -3.893  -2.490  0.00  0.00    +0.002 C 
ATOM     35  C   UNL     1      -0.564  -3.750  -1.177  0.00  0.00    -0.022 C 
ENDBRANCH  33  35
ENDBRANCH  21  33
ENDBRANCH  20  21
ENDBRANCH   1  20
BRANCH   3  36
ATOM     36  C   UNL     1       0.937  -3.287   3.448  0.00  0.00    +0.117 C 
BRANCH  36  37
ATOM     37  C   UNL     1       1.685  -4.473   2.837  0.00  0.00    +0.001 C 
ATOM     38  C   UNL     1       3.192  -4.230   2.933  0.00  0.00    +0.009 C 
ATOM     39  C   UNL     1       1.325  -5.750   3.599  0.00  0.00    +0.009 C 
ENDBRANCH  36  37
ENDBRANCH   3  36
TORSDOF 11
