REMARK  Name = ZINC53533604
REMARK  5 active torsions:
REMARK  status: ('A' for Active; 'I' for Inactive)
REMARK    1  A    between atoms: C_1  and  C_2
REMARK    2  A    between atoms: C_2  and  C_4
REMARK    3  A    between atoms: C_2  and  N_14
REMARK    4  A    between atoms: N_17  and  C_18
REMARK    5  A    between atoms: C_18  and  C_19
REMARK                            x       y       z     vdW  Elec       q    Type
REMARK                         _______ _______ _______ _____ _____    ______ ____
ROOT
ATOM      1  N   UNL     1      -1.372  -0.511   0.012  0.00  0.00    -0.293 N 
ATOM      2  C   UNL     1      -2.051  -0.643  -1.145  0.00  0.00    +0.300 C 
ATOM      3  O   UNL     1      -1.522  -0.341  -2.197  0.00  0.00    -0.253 OA
ATOM      4  N   UNL     1      -3.315  -1.109  -1.135  0.00  0.00    -0.295 N 
ATOM      5  H   UNL     1      -1.794  -0.752   0.852  0.00  0.00    +0.151 HD
ATOM      6  H   UNL     1      -3.737  -1.350  -0.295  0.00  0.00    +0.151 HD
ENDROOT
BRANCH   1   8
ATOM      7  C   UNL     1      -0.019   1.526   0.010  0.00  0.00    +0.033 C 
ATOM      8  C   UNL     1       0.002  -0.004   0.002  0.00  0.00    +0.102 C 
BRANCH   8   9
ATOM      9  C   UNL     1       0.731  -0.503   1.223  0.00  0.00    -0.024 A 
ATOM     10  C   UNL     1       0.080  -0.558   2.441  0.00  0.00    +0.009 A 
ATOM     11  C   UNL     1       0.745  -1.014   3.563  0.00  0.00    +0.050 A 
ATOM     12  C   UNL     1       2.068  -1.418   3.470  0.00  0.00    +0.162 A 
ATOM     13  C   UNL     1       2.723  -1.366   2.245  0.00  0.00    +0.162 A 
ATOM     14  C   UNL     1       2.047  -0.911   1.122  0.00  0.00    +0.055 A 
ATOM     15  O   UNL     1       4.019  -1.765   2.129  0.00  0.00    -0.485 OA
ATOM     16  C   UNL     1       4.771  -1.867   3.343  0.00  0.00    +0.270 C 
ATOM     17  C   UNL     1       3.915  -2.609   4.378  0.00  0.00    +0.270 C 
ATOM     18  O   UNL     1       2.712  -1.861   4.585  0.00  0.00    -0.485 OA
ENDBRANCH   8   9
ENDBRANCH   1   8
BRANCH   4  19
ATOM     19  C   UNL     1      -4.053  -1.252  -2.393  0.00  0.00    +0.141 C 
BRANCH  19  20
ATOM     20  C   UNL     1      -5.432  -1.789  -2.108  0.00  0.00    -0.027 A 
ATOM     21  C   UNL     1      -5.650  -3.154  -2.087  0.00  0.00    +0.009 A 
ATOM     22  C   UNL     1      -6.914  -3.650  -1.827  0.00  0.00    +0.050 A 
ATOM     23  C   UNL     1      -7.966  -2.779  -1.587  0.00  0.00    +0.162 A 
ATOM     24  C   UNL     1      -7.746  -1.407  -1.607  0.00  0.00    +0.162 A 
ATOM     25  C   UNL     1      -6.475  -0.916  -1.863  0.00  0.00    +0.054 A 
ATOM     26  O   UNL     1      -8.764  -0.535  -1.366  0.00  0.00    -0.485 OA
ATOM     27  C   UNL     1     -10.094  -1.053  -1.476  0.00  0.00    +0.270 C 
ATOM     28  C   UNL     1     -10.151  -2.394  -0.732  0.00  0.00    +0.270 C 
ATOM     29  O   UNL     1      -9.206  -3.283  -1.338  0.00  0.00    -0.485 OA
ENDBRANCH  19  20
ENDBRANCH   4  19
TORSDOF 4
