REMARK  Name = ZINC60677606
REMARK  4 active torsions:
REMARK  status: ('A' for Active; 'I' for Inactive)
REMARK    1  A    between atoms: C_4  and  C_7
REMARK    2  A    between atoms: C_7  and  N_8
REMARK    3  A    between atoms: C_13  and  C_15
REMARK    4  A    between atoms: C_26  and  C_27
REMARK                            x       y       z     vdW  Elec       q    Type
REMARK                         _______ _______ _______ _____ _____    ______ ____
ROOT
ATOM      1  C   UNL     1       5.193   3.100   4.484  0.00  0.00    +0.268 C 
ATOM      2  O   UNL     1       5.590   2.752   5.579  0.00  0.00    -0.268 OA
ATOM      3  N   UNL     1       6.056   3.193   3.453  0.00  0.00    -0.280 N 
ATOM      4  C   UNL     1       5.611   3.624   2.123  0.00  0.00    +0.144 C 
ATOM      5  C   UNL     1       6.217   2.729   1.071  0.00  0.00    -0.027 A 
ATOM      6  C   UNL     1       5.725   2.826  -0.223  0.00  0.00    +0.005 A 
ATOM      7  C   UNL     1       6.246   2.041  -1.231  0.00  0.00    +0.000 A 
ATOM      8  C   UNL     1       7.267   1.153  -0.950  0.00  0.00    +0.000 A 
ATOM      9  C   UNL     1       7.755   1.053   0.336  0.00  0.00    +0.004 A 
ATOM     10  C   UNL     1       7.228   1.838   1.355  0.00  0.00    -0.040 A 
ATOM     11  C   UNL     1       7.791   1.655   2.740  0.00  0.00    +0.067 C 
ATOM     12  C   UNL     1       7.483   2.874   3.618  0.00  0.00    +0.167 C 
ENDROOT
BRANCH   1  18
ATOM     13  N   UNL     1       2.137   4.259   2.932  0.00  0.00    -0.224 N 
ATOM     14  C   UNL     1       1.175   4.033   3.846  0.00  0.00    +0.268 A 
ATOM     15  O   UNL     1       0.017   4.326   3.604  0.00  0.00    -0.266 OA
ATOM     16  C   UNL     1       1.518   3.454   5.088  0.00  0.00    +0.074 A 
ATOM     17  C   UNL     1       2.827   3.144   5.309  0.00  0.00    +0.040 A 
ATOM     18  C   UNL     1       3.763   3.421   4.284  0.00  0.00    +0.146 A 
ATOM     19  N   UNL     1       3.365   3.957   3.152  0.00  0.00    -0.163 NA
BRANCH  13  20
ATOM     20  C   UNL     1       1.770   4.860   1.647  0.00  0.00    +0.182 C 
BRANCH  20  24
ATOM     21  C   UNL     1       2.039   9.114   1.935  0.00  0.00    +0.000 A 
ATOM     22  C   UNL     1       3.140   8.377   1.540  0.00  0.00    +0.000 A 
ATOM     23  C   UNL     1       3.053   7.000   1.447  0.00  0.00    +0.005 A 
ATOM     24  C   UNL     1       1.865   6.361   1.749  0.00  0.00    -0.026 A 
ATOM     25  C   UNL     1       0.765   7.098   2.145  0.00  0.00    +0.005 A 
ATOM     26  C   UNL     1       0.851   8.474   2.236  0.00  0.00    +0.000 A 
ENDBRANCH  20  24
ENDBRANCH  13  20
ENDBRANCH   1  18
BRANCH  12  27
ATOM     27  C   UNL     1       7.770   2.551   5.062  0.00  0.00    +0.231 C 
ATOM     28  O   UNL     1       7.330   1.534   5.555  0.00  0.00    -0.274 OA
ATOM     29  N   UNL     1       8.515   3.393   5.806  0.00  0.00    -0.328 N 
ATOM     30  H   UNL     1       8.867   4.207   5.411  0.00  0.00    +0.145 HD
ATOM     31  H   UNL     1       8.700   3.185   6.735  0.00  0.00    +0.145 HD
ENDBRANCH  12  27
TORSDOF 4
