REMARK  Name = ZINC49027885
REMARK  1 active torsions:
REMARK  status: ('A' for Active; 'I' for Inactive)
REMARK    1  A    between atoms: C_4  and  C_7
REMARK                            x       y       z     vdW  Elec       q    Type
REMARK                         _______ _______ _______ _____ _____    ______ ____
ROOT
ATOM      1  C   UNL     1       2.863  -0.447  -2.508  0.00  0.00    +0.107 A 
ATOM      2  N   UNL     1       2.575  -0.245  -3.778  0.00  0.00    -0.144 NA
ATOM      3  N   UNL     1       3.315  -0.758  -4.665  0.00  0.00    -0.126 NA
ATOM      4  C   UNL     1       4.368  -1.490  -4.356  0.00  0.00    +0.189 A 
ATOM      5  S   UNL     1       4.329  -1.457  -2.671  0.00  0.00    -0.035 S 
ATOM      6  N   UNL     1       5.276  -2.120  -5.201  0.00  0.00    -0.247 N 
ATOM      7  C   UNL     1       5.135  -2.019  -6.537  0.00  0.00    +0.308 C 
ATOM      8  O   UNL     1       4.164  -1.458  -7.006  0.00  0.00    -0.252 OA
ATOM      9  N   UNL     1       6.070  -2.542  -7.355  0.00  0.00    -0.284 N 
ATOM     10  C   UNL     1       7.174  -3.318  -6.787  0.00  0.00    +0.120 C 
ATOM     11  C   UNL     1       7.063  -4.776  -7.247  0.00  0.00    +0.088 C 
ATOM     12  S   UNL     1       7.058  -4.814  -9.064  0.00  0.00    -0.158 S 
ATOM     13  C   UNL     1       5.715  -3.668  -9.498  0.00  0.00    +0.088 C 
ATOM     14  C   UNL     1       5.967  -2.332  -8.800  0.00  0.00    +0.120 C 
ATOM     15  H   UNL     1       6.011  -2.631  -4.828  0.00  0.00    +0.158 HD
ENDROOT
BRANCH   1  19
ATOM     16  C   UNL     1      -0.011   1.538   0.010  0.00  0.00    +0.000 C 
ATOM     17  C   UNL     1       1.425   2.066  -0.003  0.00  0.00    +0.001 C 
ATOM     18  C   UNL     1       2.140   1.571  -1.261  0.00  0.00    +0.010 C 
ATOM     19  C   UNL     1       2.159   0.041  -1.268  0.00  0.00    +0.047 C 
ATOM     20  C   UNL     1       0.723  -0.487  -1.256  0.00  0.00    +0.010 C 
ATOM     21  C   UNL     1       0.008   0.008   0.003  0.00  0.00    +0.001 C 
ENDBRANCH   1  19
TORSDOF 1
