REMARK  Name = ZINC12566866
REMARK  7 active torsions:
REMARK  status: ('A' for Active; 'I' for Inactive)
REMARK    1  A    between atoms: C_1  and  C_2
REMARK    2  A    between atoms: C_7  and  C_15
REMARK    3  A    between atoms: C_13  and  C_14
REMARK    4  A    between atoms: C_15  and  C_17
REMARK    5  A    between atoms: C_15  and  N_27
REMARK    6  A    between atoms: N_21  and  C_22
REMARK    7  A    between atoms: C_35  and  C_37
REMARK                            x       y       z     vdW  Elec       q    Type
REMARK                         _______ _______ _______ _____ _____    ______ ____
ROOT
ATOM      1  C   UNL     1       1.707  -1.157   0.870  0.00  0.00    +0.179 C 
ENDROOT
BRANCH   1   8
ATOM      2  C   UNL     1       3.379   1.869   8.058  0.00  0.00    +0.044 C 
ATOM      3  C   UNL     1       3.291   1.244   6.690  0.00  0.00    -0.046 A 
ATOM      4  C   UNL     1       4.431   0.713   6.102  0.00  0.00    +0.004 A 
ATOM      5  C   UNL     1       4.372   0.141   4.863  0.00  0.00    +0.010 A 
ATOM      6  C   UNL     1       3.152   0.089   4.180  0.00  0.00    -0.001 A 
ATOM      7  C   UNL     1       3.052  -0.522   2.854  0.00  0.00    +0.021 A 
ATOM      8  C   UNL     1       1.844  -0.539   2.238  0.00  0.00    +0.045 A 
ATOM      9  C   UNL     1       0.713   0.013   2.877  0.00  0.00    +0.255 A 
ATOM     10  O   UNL     1      -0.364  -0.017   2.307  0.00  0.00    -0.268 OA
ATOM     11  N   UNL     1       0.794   0.573   4.097  0.00  0.00    -0.322 N 
ATOM     12  H   UNL     1      -0.003   0.944   4.506  0.00  0.00    +0.169 HD
ATOM     13  C   UNL     1       1.994   0.627   4.773  0.00  0.00    +0.052 A 
ATOM     14  C   UNL     1       2.078   1.205   6.036  0.00  0.00    -0.024 A 
ATOM     15  C   UNL     1       0.849   1.785   6.686  0.00  0.00    +0.046 C 
ENDBRANCH   1   8
BRANCH   1  16
ATOM     16  N   UNL     1       1.058  -0.200  -0.036  0.00  0.00    -0.312 N 
ATOM     17  C   UNL     1       1.871   0.919  -0.251  0.00  0.00    +0.034 A 
ATOM     18  C   UNL     1       2.670   1.630   0.644  0.00  0.00    +0.023 A 
ATOM     19  C   UNL     1       3.394   2.721   0.211  0.00  0.00    +0.002 A 
ATOM     20  C   UNL     1       3.332   3.118  -1.112  0.00  0.00    +0.000 A 
ATOM     21  C   UNL     1       2.546   2.416  -2.007  0.00  0.00    +0.005 A 
ATOM     22  C   UNL     1       1.819   1.324  -1.579  0.00  0.00    -0.025 A 
ATOM     23  C   UNL     1       0.894   0.379  -2.319  0.00  0.00    +0.059 C 
ATOM     24  C   UNL     1       0.780  -0.820  -1.350  0.00  0.00    +0.076 C 
ATOM     25  C   UNL     1       1.825  -1.889  -1.677  0.00  0.00    +0.028 C 
ENDBRANCH   1  16
BRANCH   1  26
ATOM     26  C   UNL     1       0.871  -2.407   0.965  0.00  0.00    +0.177 A 
ATOM     27  N   UNL     1      -0.436  -2.482   0.888  0.00  0.00    -0.111 NA
ATOM     28  N   UNL     1      -0.771  -3.720   1.012  0.00  0.00    -0.023 NA
ATOM     29  N   UNL     1       0.287  -4.435   1.173  0.00  0.00    -0.044 NA
ATOM     30  N   UNL     1       1.320  -3.662   1.150  0.00  0.00    -0.224 N 
BRANCH  30  31
ATOM     31  C   UNL     1       2.718  -4.073   1.298  0.00  0.00    +0.111 C 
ATOM     32  C   UNL     1       3.084  -5.103   0.210  0.00  0.00    +0.027 C 
ATOM     33  C   UNL     1       4.031  -6.096   0.931  0.00  0.00    +0.002 C 
ATOM     34  C   UNL     1       3.403  -6.205   2.343  0.00  0.00    +0.002 C 
ATOM     35  C   UNL     1       2.921  -4.773   2.654  0.00  0.00    +0.027 C 
ENDBRANCH  30  31
ENDBRANCH   1  26
TORSDOF 4
