REMARK  Name = ZINC06888975
REMARK  2 active torsions:
REMARK  status: ('A' for Active; 'I' for Inactive)
REMARK    1  A    between atoms: C_6  and  C_7
REMARK    2  A    between atoms: C_16  and  C_22
REMARK                            x       y       z     vdW  Elec       q    Type
REMARK                         _______ _______ _______ _____ _____    ______ ____
ROOT
ATOM      1  C   UNL     1      -1.260  -0.761   0.011  0.00  0.00    +0.015 C 
ATOM      2  C   UNL     1      -1.242  -2.104  -0.099  0.00  0.00    -0.003 C 
ATOM      3  C   UNL     1      -2.445  -3.009  -0.218  0.00  0.00    +0.060 C 
ATOM      4  C   UNL     1      -1.859  -4.423  -0.311  0.00  0.00    +0.131 C 
ATOM      5  N   UNL     1      -0.398  -4.278  -0.245  0.00  0.00    -0.292 N 
ATOM      6  C   UNL     1      -0.045  -2.960  -0.130  0.00  0.00    +0.140 A 
ATOM      7  N   UNL     1       1.221  -2.580  -0.058  0.00  0.00    -0.229 NA
ATOM      8  C   UNL     1       2.241  -3.453  -0.096  0.00  0.00    +0.079 A 
ATOM      9  C   UNL     1       3.572  -3.027  -0.017  0.00  0.00    +0.043 A 
ATOM     10  C   UNL     1       4.593  -3.968  -0.060  0.00  0.00    +0.065 A 
ATOM     11  C   UNL     1       4.298  -5.333  -0.182  0.00  0.00    +0.016 A 
ATOM     12  C   UNL     1       3.003  -5.759  -0.260  0.00  0.00    +0.016 A 
ATOM     13  C   UNL     1       1.963  -4.833  -0.217  0.00  0.00    +0.065 A 
ATOM     14  C   UNL     1       0.553  -5.246  -0.288  0.00  0.00    +0.262 A 
ATOM     15  O   UNL     1       0.248  -6.420  -0.395  0.00  0.00    -0.267 OA
ENDROOT
BRANCH   1  21
ATOM     16  C   UNL     1       0.975  -0.355  -1.003  0.00  0.00    +0.009 A 
ATOM     17  C   UNL     1       2.149   0.364  -1.074  0.00  0.00    +0.020 A 
ATOM     18  C   UNL     1       2.360   1.437  -0.224  0.00  0.00    +0.041 A 
ATOM     19  C   UNL     1       1.395   1.796   0.702  0.00  0.00    +0.020 A 
ATOM     20  C   UNL     1       0.216   1.086   0.784  0.00  0.00    +0.009 A 
ATOM     21  C   UNL     1      -0.004   0.002  -0.071  0.00  0.00    -0.025 A 
ATOM     22 CL   UNL     1       3.842   2.337  -0.320  0.00  0.00    -0.084 Cl
ENDBRANCH   1  21
BRANCH  10  23
ATOM     23  C   UNL     1       6.002  -3.526   0.022  0.00  0.00    +0.387 C 
ATOM     24  O   UNL     1       6.264  -2.337   0.128  0.00  0.00    -0.241 OA
ATOM     25  O   UNL     1       6.904  -4.350  -0.015  0.00  0.00    -0.241 OA
ENDBRANCH  10  23
TORSDOF 2
