REMARK  Name = ZINC06583178
REMARK  6 active torsions:
REMARK  status: ('A' for Active; 'I' for Inactive)
REMARK    1  A    between atoms: C_1  and  C_2
REMARK    2  A    between atoms: C_7  and  C_9
REMARK    3  A    between atoms: C_7  and  C_10
REMARK    4  A    between atoms: N_13  and  C_17
REMARK    5  A    between atoms: C_17  and  C_18
REMARK    6  A    between atoms: C_18  and  N_19
REMARK                            x       y       z     vdW  Elec       q    Type
REMARK                         _______ _______ _______ _____ _____    ______ ____
ROOT
ATOM      1  C   UNL     1      -0.019   1.528   0.010  0.00  0.00    +0.007 C 
ATOM      2  C   UNL     1       0.002  -0.004   0.002  0.00  0.00    -0.011 C 
ATOM      3  C   UNL     1      -1.435  -0.528   0.021  0.00  0.00    +0.038 C 
ATOM      4  C   UNL     1      -1.428  -2.050  -0.036  0.00  0.00    +0.113 C 
ATOM      5  C   UNL     1      -0.576  -2.676   1.050  0.00  0.00    +0.041 C 
ATOM      6  C   UNL     1       0.781  -2.031   1.272  0.00  0.00    -0.032 C 
ATOM      7  C   UNL     1       0.719  -0.508   1.253  0.00  0.00    +0.009 C 
ATOM      8  C   UNL     1       1.794  -2.527   0.236  0.00  0.00    +0.011 C 
ATOM      9  C   UNL     1       1.294  -2.463   2.663  0.00  0.00    +0.011 C 
ATOM     10  C   UNL     1      -1.044  -2.534  -1.413  0.00  0.00    +0.247 C 
ATOM     11  O   UNL     1      -0.057  -2.253  -2.059  0.00  0.00    -0.273 OA
ATOM     12  N   UNL     1      -2.050  -3.343  -1.811  0.00  0.00    -0.223 N 
ATOM     13  C   UNL     1      -3.063  -3.330  -0.939  0.00  0.00    +0.309 C 
ATOM     14  O   UNL     1      -4.089  -3.967  -1.084  0.00  0.00    -0.252 OA
ATOM     15  N   UNL     1      -2.817  -2.537   0.118  0.00  0.00    -0.285 N 
ATOM     16  H   UNL     1      -3.419  -2.317   0.843  0.00  0.00    +0.151 HD
ENDROOT
BRANCH  12  17
ATOM     17  C   UNL     1      -2.030  -4.133  -3.044  0.00  0.00    +0.137 C 
BRANCH  17  18
ATOM     18  C   UNL     1      -1.422  -5.508  -2.759  0.00  0.00    +0.136 C 
BRANCH  18  19
ATOM     19  N   UNL     1      -1.403  -6.299  -3.992  0.00  0.00    -0.233 N 
ATOM     20  C   UNL     1      -2.403  -7.102  -4.397  0.00  0.00    +0.254 C 
ATOM     21  O   UNL     1      -3.449  -7.283  -3.808  0.00  0.00    -0.270 OA
ATOM     22  C   UNL     1      -2.015  -7.726  -5.680  0.00  0.00    +0.049 A 
ATOM     23  C   UNL     1      -2.627  -8.618  -6.546  0.00  0.00    +0.014 A 
ATOM     24  C   UNL     1      -1.971  -9.014  -7.701  0.00  0.00    +0.001 A 
ATOM     25  C   UNL     1      -0.712  -8.525  -7.995  0.00  0.00    +0.001 A 
ATOM     26  C   UNL     1      -0.088  -7.632  -7.138  0.00  0.00    +0.014 A 
ATOM     27  C   UNL     1      -0.731  -7.227  -5.979  0.00  0.00    +0.049 A 
ATOM     28  C   UNL     1      -0.384  -6.314  -4.870  0.00  0.00    +0.254 C 
ATOM     29  O   UNL     1       0.649  -5.683  -4.769  0.00  0.00    -0.270 OA
ENDBRANCH  18  19
ENDBRANCH  17  18
ENDBRANCH  12  17
TORSDOF 3
