REMARK  Name = ZINC00938444
REMARK  9 active torsions:
REMARK  status: ('A' for Active; 'I' for Inactive)
REMARK    1  A    between atoms: C_1  and  C_2
REMARK    2  A    between atoms: C_7  and  C_8
REMARK    3  A    between atoms: C_12  and  C_15
REMARK    4  A    between atoms: C_15  and  C_16
REMARK    5  A    between atoms: N_18  and  C_19
REMARK    6  A    between atoms: C_20  and  C_30
REMARK    7  A    between atoms: C_25  and  C_29
REMARK    8  A    between atoms: C_30  and  O_32
REMARK    9  A    between atoms: O_32  and  C_33
REMARK                            x       y       z     vdW  Elec       q    Type
REMARK                         _______ _______ _______ _____ _____    ______ ____
ROOT
ATOM      1  C   UNL     1       3.568   7.720   0.363  0.00  0.00    +0.220 C 
ATOM      2  O   UNL     1       4.282   6.845  -0.078  0.00  0.00    -0.275 OA
ATOM      3  N   UNL     1       2.315   7.429   0.765  0.00  0.00    -0.279 N 
ATOM      4  H   UNL     1       1.744   8.129   1.119  0.00  0.00    +0.155 HD
ENDROOT
BRANCH   3   5
ATOM      5  C   UNL     1       1.843   6.129   0.674  0.00  0.00    +0.086 A 
ATOM      6  C   UNL     1       0.595   5.638   1.034  0.00  0.00    +0.091 A 
ATOM      7  C   UNL     1       0.349   4.219   0.835  0.00  0.00    -0.021 A 
ATOM      8  C   UNL     1       1.383   3.524   0.313  0.00  0.00    -0.004 A 
ATOM      9  S   UNL     1       2.666   4.723   0.085  0.00  0.00    -0.077 S 
ATOM     10  C   UNL     1       1.421   2.060  -0.000  0.00  0.00    +0.046 C 
ATOM     11  C   UNL     1      -0.019   1.526   0.010  0.00  0.00    -0.009 C 
ATOM     12  C   UNL     1      -0.720   2.023   1.278  0.00  0.00    +0.008 C 
ATOM     13  C   UNL     1      -0.965   3.529   1.181  0.00  0.00    +0.037 C 
ATOM     14  C   UNL     1       0.002  -0.004   0.002  0.00  0.00    +0.008 C 
BRANCH   6  15
ATOM     15  C   UNL     1      -0.436   6.516   1.591  0.00  0.00    +0.342 C 
ATOM     16  O   UNL     1      -0.507   6.683   2.794  0.00  0.00    -0.245 OA
BRANCH  15  17
ATOM     17  O   UNL     1      -1.307   7.139   0.771  0.00  0.00    -0.464 OA
ATOM     18  C   UNL     1      -2.302   7.995   1.393  0.00  0.00    +0.280 C 
ENDBRANCH  15  17
ENDBRANCH   6  15
ENDBRANCH   3   5
BRANCH   1  19
ATOM     19  C   UNL     1       4.082   9.133   0.462  0.00  0.00    +0.127 C 
BRANCH  19  31
ATOM     20  C   UNL     1       7.841   7.928   5.512  0.00  0.00    +0.044 C 
ATOM     21  C   UNL     1       7.514   8.783   4.316  0.00  0.00    -0.046 A 
ATOM     22  C   UNL     1       7.096   8.191   3.137  0.00  0.00    +0.028 A 
ATOM     23  C   UNL     1       6.797   8.980   2.041  0.00  0.00    +0.049 A 
ATOM     24  C   UNL     1       6.907  10.369   2.124  0.00  0.00    +0.055 A 
ATOM     25  C   UNL     1       7.329  10.953   3.307  0.00  0.00    +0.028 A 
ATOM     26  C   UNL     1       7.632  10.158   4.399  0.00  0.00    -0.046 A 
ATOM     27  C   UNL     1       8.091  10.795   5.685  0.00  0.00    +0.044 C 
ATOM     28  N   UNL     1       6.588  11.159   1.014  0.00  0.00    -0.282 N 
ATOM     29  C   UNL     1       5.996  10.621  -0.068  0.00  0.00    +0.238 C 
ATOM     30  O   UNL     1       5.842  11.296  -1.065  0.00  0.00    -0.273 OA
ATOM     31  C   UNL     1       5.521   9.191  -0.056  0.00  0.00    +0.166 C 
ATOM     32  N   UNL     1       6.393   8.402   0.826  0.00  0.00    -0.331 N 
ATOM     33  H   UNL     1       6.797  12.106   1.024  0.00  0.00    +0.155 HD
ATOM     34  H   UNL     1       6.680   7.510   0.576  0.00  0.00    +0.147 HD
ENDBRANCH  19  31
ENDBRANCH   1  19
TORSDOF 5
