REMARK  Name = ZINC04682296
REMARK  7 active torsions:
REMARK  status: ('A' for Active; 'I' for Inactive)
REMARK    1  A    between atoms: C_1  and  C_2
REMARK    2  A    between atoms: C_7  and  N_8
REMARK    3  A    between atoms: C_9  and  C_11
REMARK    4  A    between atoms: C_11  and  C_13
REMARK    5  A    between atoms: C_11  and  N_14
REMARK    6  A    between atoms: N_14  and  S_15
REMARK    7  A    between atoms: S_15  and  C_18
REMARK                            x       y       z     vdW  Elec       q    Type
REMARK                         _______ _______ _______ _____ _____    ______ ____
ROOT
ATOM      1  C   UNL     1       2.370  -2.614  -2.464  0.00  0.00    +0.159 C 
ATOM      2  C   UNL     1       2.086  -1.318  -3.226  0.00  0.00    +0.035 C 
ENDROOT
BRANCH   1   4
ATOM      3  N   UNL     1       3.577  -3.667  -4.349  0.00  0.00    -0.284 N 
ATOM      4  C   UNL     1       2.580  -3.738  -3.445  0.00  0.00    +0.236 C 
ATOM      5  O   UNL     1       1.851  -4.707  -3.421  0.00  0.00    -0.274 OA
ATOM      6  H   UNL     1       4.109  -2.858  -4.422  0.00  0.00    +0.155 HD
BRANCH   3  13
ATOM      7  C   UNL     1       4.841  -3.168  -6.849  0.00  0.00    +0.046 C 
ATOM      8  C   UNL     1       4.461  -4.560  -6.412  0.00  0.00    -0.028 A 
ATOM      9  C   UNL     1       4.730  -5.639  -7.231  0.00  0.00    +0.025 A 
ATOM     10  C   UNL     1       4.375  -6.916  -6.832  0.00  0.00    +0.041 A 
ATOM     11  C   UNL     1       3.756  -7.116  -5.611  0.00  0.00    +0.022 A 
ATOM     12  C   UNL     1       3.491  -6.041  -4.786  0.00  0.00    +0.025 A 
ATOM     13  C   UNL     1       3.845  -4.758  -5.183  0.00  0.00    +0.036 A 
ATOM     14 CL   UNL     1       4.709  -8.270  -7.867  0.00  0.00    -0.084 Cl
ENDBRANCH   3  13
ENDBRANCH   1   4
BRANCH   1  15
ATOM     15  N   UNL     1       1.234  -2.929  -1.595  0.00  0.00    -0.178 NA
ATOM     16  H   UNL     1       0.472  -3.414  -1.950  0.00  0.00    +0.149 HD
BRANCH  15  17
ATOM     17  S   UNL     1       1.248  -2.457  -0.008  0.00  0.00    +0.059 S 
ATOM     18  O   UNL     1       2.504  -2.859   0.523  0.00  0.00    -0.153 OA
ATOM     19  O   UNL     1       0.013  -2.881   0.553  0.00  0.00    -0.153 OA
BRANCH  17  20
ATOM     20  C   UNL     1       1.233  -0.696   0.012  0.00  0.00    +0.105 A 
ATOM     21  C   UNL     1       0.030  -0.015   0.034  0.00  0.00    +0.030 A 
ATOM     22  C   UNL     1       0.017   1.367   0.050  0.00  0.00    +0.022 A 
ATOM     23  C   UNL     1       1.209   2.069   0.044  0.00  0.00    +0.041 A 
ATOM     24  C   UNL     1       2.413   1.388   0.021  0.00  0.00    +0.022 A 
ATOM     25  C   UNL     1       2.424   0.006   0.005  0.00  0.00    +0.030 A 
ATOM     26 CL   UNL     1       1.194   3.805   0.064  0.00  0.00    -0.084 Cl
ENDBRANCH  17  20
ENDBRANCH  15  17
ENDBRANCH   1  15
TORSDOF 5
