REMARK  Name = ZINC09420467
REMARK  5 active torsions:
REMARK  status: ('A' for Active; 'I' for Inactive)
REMARK    1  A    between atoms: C_12  and  C_13
REMARK    2  A    between atoms: N_17  and  C_21
REMARK    3  A    between atoms: C_21  and  C_22
REMARK    4  A    between atoms: C_22  and  C_23
REMARK    5  A    between atoms: C_23  and  C_24
REMARK                            x       y       z     vdW  Elec       q    Type
REMARK                         _______ _______ _______ _____ _____    ______ ____
ROOT
ATOM      1  C   UNL     1       1.522   3.487   0.362  0.00  0.00    +0.023 A 
ATOM      2  C   UNL     1       0.376   4.297   0.520  0.00  0.00    +0.003 A 
ATOM      3  C   UNL     1       0.512   5.679   0.734  0.00  0.00    +0.059 A 
ATOM      4  C   UNL     1      -0.600   6.462   0.885  0.00  0.00    +0.163 A 
ATOM      5  C   UNL     1      -1.876   5.893   0.828  0.00  0.00    +0.164 A 
ATOM      6  C   UNL     1      -2.027   4.532   0.619  0.00  0.00    +0.075 A 
ATOM      7  C   UNL     1      -0.909   3.721   0.463  0.00  0.00    +0.053 A 
ATOM      8  N   UNL     1      -1.064   2.366   0.248  0.00  0.00    -0.322 N 
ATOM      9  H   UNL     1      -1.956   1.987   0.209  0.00  0.00    +0.169 HD
ATOM     10  C   UNL     1       0.006   1.563   0.099  0.00  0.00    +0.256 A 
ATOM     11  O   UNL     1      -0.151   0.369  -0.085  0.00  0.00    -0.267 OA
ATOM     12  C   UNL     1       1.362   2.124   0.152  0.00  0.00    +0.041 A 
ATOM     13  O   UNL     1      -2.986   6.666   0.974  0.00  0.00    -0.485 OA
ATOM     14  C   UNL     1      -2.798   7.960   1.554  0.00  0.00    +0.270 C 
ATOM     15  C   UNL     1      -1.593   8.623   0.873  0.00  0.00    +0.270 C 
ATOM     16  O   UNL     1      -0.444   7.799   1.095  0.00  0.00    -0.485 OA
ENDROOT
BRANCH  12  17
ATOM     17  C   UNL     1       2.530   1.258  -0.014  0.00  0.00    +0.033 C 
ATOM     18  C   UNL     1       3.443   1.526  -0.986  0.00  0.00    +0.077 C 
ATOM     19  C   UNL     1       3.408   2.542  -2.054  0.00  0.00    +0.258 C 
ATOM     20  O   UNL     1       2.469   3.307  -2.178  0.00  0.00    -0.269 OA
ATOM     21  N   UNL     1       4.446   2.581  -2.872  0.00  0.00    -0.255 N 
ATOM     22  C   UNL     1       5.484   1.731  -2.732  0.00  0.00    +0.121 C 
ATOM     23  S   UNL     1       6.906   1.624  -3.680  0.00  0.00    -0.027 S 
ATOM     24  S   UNL     1       5.020   0.750  -1.315  0.00  0.00    -0.061 S 
BRANCH  21  25
ATOM     25  C   UNL     1       4.470   3.568  -3.954  0.00  0.00    +0.115 C 
BRANCH  25  26
ATOM     26  C   UNL     1       5.131   4.855  -3.457  0.00  0.00    +0.031 C 
BRANCH  26  27
ATOM     27  C   UNL     1       5.156   5.886  -4.587  0.00  0.00    +0.126 C 
BRANCH  27  28
ATOM     28  C   UNL     1       5.808   7.153  -4.096  0.00  0.00    +0.356 C 
ATOM     29  O   UNL     1       6.211   7.224  -2.960  0.00  0.00    -0.246 OA
ATOM     30  O   UNL     1       5.940   8.203  -4.923  0.00  0.00    -0.246 OA
ENDBRANCH  27  28
ENDBRANCH  26  27
ENDBRANCH  25  26
ENDBRANCH  21  25
ENDBRANCH  12  17
TORSDOF 5
