REMARK  Name = ZINC59409188
REMARK  15 active torsions:
REMARK  status: ('A' for Active; 'I' for Inactive)
REMARK    1  A    between atoms: C_1  and  C_2
REMARK    2  A    between atoms: C_2  and  C_3
REMARK    3  A    between atoms: C_3  and  C_4
REMARK    4  A    between atoms: C_4  and  N_5
REMARK    5  A    between atoms: N_5  and  C_6
REMARK    6  A    between atoms: C_7  and  N_19
REMARK    7  A    between atoms: N_8  and  C_15
REMARK    8  A    between atoms: C_15  and  C_16
REMARK    9  A    between atoms: C_16  and  C_17
REMARK   10  A    between atoms: C_16  and  C_18
REMARK   11  A    between atoms: C_20  and  C_22
REMARK   12  A    between atoms: C_22  and  N_23
REMARK   13  A    between atoms: N_23  and  C_24
REMARK   14  A    between atoms: N_23  and  C_31
REMARK   15  A    between atoms: C_24  and  C_25
REMARK                            x       y       z     vdW  Elec       q    Type
REMARK                         _______ _______ _______ _____ _____    ______ ____
ROOT
ATOM      1  N   UNL     1       1.177  -2.297   2.128  0.00  0.00    -0.266 N 
ATOM      2  C   UNL     1       2.478  -2.655   2.162  0.00  0.00    +0.203 C 
ATOM      3  O   UNL     1       2.939  -3.169   3.159  0.00  0.00    -0.277 OA
ENDROOT
BRANCH   1   4
ATOM      4  C   UNL     1       0.381  -2.421   3.286  0.00  0.00    +0.140 A 
ATOM      5  C   UNL     1      -0.668  -3.317   3.323  0.00  0.00    +0.127 A 
ATOM      6  N   UNL     1      -1.427  -3.416   4.467  0.00  0.00    -0.280 N 
ATOM      7  C   UNL     1      -1.150  -2.647   5.536  0.00  0.00    +0.331 A 
ATOM      8  O   UNL     1      -1.832  -2.749   6.537  0.00  0.00    -0.246 OA
ATOM      9  N   UNL     1      -0.131  -1.769   5.518  0.00  0.00    -0.273 N 
ATOM     10  H   UNL     1       0.048  -1.227   6.302  0.00  0.00    +0.173 HD
ATOM     11  C   UNL     1       0.646  -1.638   4.425  0.00  0.00    +0.277 A 
ATOM     12  O   UNL     1       1.570  -0.842   4.421  0.00  0.00    -0.266 OA
BRANCH   5  13
ATOM     13  N   UNL     1      -0.952  -4.101   2.231  0.00  0.00    -0.343 N 
ATOM     14  H   UNL     1      -0.461  -3.977   1.404  0.00  0.00    +0.144 HD
ATOM     15  H   UNL     1      -1.643  -4.779   2.287  0.00  0.00    +0.144 HD
ENDBRANCH   5  13
BRANCH   6  16
ATOM     16  C   UNL     1      -2.543  -4.362   4.520  0.00  0.00    +0.131 C 
BRANCH  16  17
ATOM     17  C   UNL     1      -2.043  -5.712   5.040  0.00  0.00    +0.003 C 
ATOM     18  C   UNL     1      -1.574  -5.558   6.488  0.00  0.00    +0.009 C 
ATOM     19  C   UNL     1      -3.179  -6.735   4.979  0.00  0.00    +0.009 C 
ENDBRANCH  16  17
ENDBRANCH   6  16
ENDBRANCH   1   4
BRANCH   1  20
ATOM     20  C   UNL     1       0.593  -1.778   0.889  0.00  0.00    +0.114 C 
BRANCH  20  21
ATOM     21  C   UNL     1       0.646  -0.249   0.901  0.00  0.00    +0.019 C 
BRANCH  21  23
ATOM     22  C   UNL     1       0.089   1.822  -0.381  0.00  0.00    +0.004 C 
ATOM     23  C   UNL     1       0.035   0.292  -0.393  0.00  0.00    -0.002 C 
ENDBRANCH  21  23
ENDBRANCH  20  21
ENDBRANCH   1  20
BRANCH   2  24
ATOM     24  C   UNL     1       3.356  -2.418   0.961  0.00  0.00    +0.019 C 
BRANCH  24  25
ATOM     25  N   UNL     1       4.678  -3.016   1.195  0.00  0.00    +0.387 N 
ATOM     26  H   UNL     1       5.051  -2.676   2.068  0.00  0.00    -0.081 HD
BRANCH  25  27
ATOM     27  C   UNL     1       5.583  -2.647   0.098  0.00  0.00    -0.068 C 
ATOM     28  C   UNL     1       6.984  -2.159   0.473  0.00  0.00    -0.017 C 
ATOM     29  C   UNL     1       5.944  -1.168  -0.053  0.00  0.00    -0.017 C 
ENDBRANCH  25  27
BRANCH  25  30
ATOM     30  C   UNL     1       4.549  -4.479   1.253  0.00  0.00    -0.074 C 
BRANCH  30  31
ATOM     31  C   UNL     1       5.899  -5.094   1.630  0.00  0.00    -0.028 C 
ATOM     32  C   UNL     1       5.802  -6.619   1.555  0.00  0.00    +0.002 C 
ATOM     33  C   UNL     1       7.151  -7.235   1.931  0.00  0.00    +0.000 C 
ATOM     34  C   UNL     1       7.523  -6.817   3.356  0.00  0.00    +0.000 C 
ATOM     35  C   UNL     1       7.619  -5.292   3.431  0.00  0.00    +0.000 C 
ATOM     36  C   UNL     1       6.270  -4.676   3.054  0.00  0.00    +0.002 C 
ENDBRANCH  30  31
ENDBRANCH  25  30
ENDBRANCH  24  25
ENDBRANCH   2  24
TORSDOF 12
