REMARK  Name = ZINC42351270
REMARK  3 active torsions:
REMARK  status: ('A' for Active; 'I' for Inactive)
REMARK    1  A    between atoms: C_6  and  N_7
REMARK    2  A    between atoms: C_8  and  C_10
REMARK    3  A    between atoms: C_13  and  N_16
REMARK                            x       y       z     vdW  Elec       q    Type
REMARK                         _______ _______ _______ _____ _____    ______ ____
ROOT
ATOM      1  N   UNL     1      -1.199  -0.721   0.010  0.00  0.00    -0.280 N 
ATOM      2  C   UNL     1      -1.182  -2.064  -0.099  0.00  0.00    +0.265 C 
ATOM      3  O   UNL     1      -0.121  -2.661  -0.113  0.00  0.00    -0.268 OA
ATOM      4  H   UNL     1      -2.043  -0.252   0.098  0.00  0.00    +0.155 HD
ENDROOT
BRANCH   1  10
ATOM      5  C   UNL     1       1.072  -0.452  -0.767  0.00  0.00    +0.024 A 
ATOM      6  C   UNL     1       2.256   0.259  -0.779  0.00  0.00    +0.016 A 
ATOM      7  C   UNL     1       2.377   1.416  -0.032  0.00  0.00    +0.013 A 
ATOM      8  C   UNL     1       1.313   1.866   0.730  0.00  0.00    +0.016 A 
ATOM      9  C   UNL     1       0.126   1.159   0.746  0.00  0.00    +0.024 A 
ATOM     10  C   UNL     1       0.002  -0.004  -0.004  0.00  0.00    +0.034 A 
ATOM     11  I   UNL     1       4.175   2.491  -0.052  0.00  0.00    -0.044 I 
ENDBRANCH   1  10
BRANCH   2  12
ATOM     12  C   UNL     1      -2.442  -2.807  -0.201  0.00  0.00    +0.104 A 
ATOM     13  C   UNL     1      -2.575  -4.175  -0.311  0.00  0.00    +0.034 A 
ATOM     14  C   UNL     1      -3.945  -4.451  -0.381  0.00  0.00    +0.053 A 
ATOM     15  C   UNL     1      -4.609  -3.272  -0.314  0.00  0.00    +0.194 A 
ATOM     16  N   UNL     1      -3.708  -2.267  -0.198  0.00  0.00    -0.332 N 
ATOM     17  H   UNL     1      -3.920  -1.323  -0.128  0.00  0.00    +0.168 HD
BRANCH  15  18
ATOM     18  N   UNL     1      -6.080  -3.110  -0.354  0.00  0.00    +0.073 N 
ATOM     19  O   UNL     1      -6.569  -2.006  -0.286  0.00  0.00    -0.125 OA
ATOM     20  O   UNL     1      -6.793  -4.082  -0.453  0.00  0.00    -0.125 OA
ENDBRANCH  15  18
ENDBRANCH   2  12
TORSDOF 3
