REMARK  Name = ZINC05765124
REMARK  5 active torsions:
REMARK  status: ('A' for Active; 'I' for Inactive)
REMARK    1  A    between atoms: C_1  and  C_2
REMARK    2  A    between atoms: C_4  and  N_12
REMARK    3  A    between atoms: C_5  and  S_9
REMARK    4  A    between atoms: N_13  and  C_14
REMARK    5  A    between atoms: C_23  and  O_24
REMARK                            x       y       z     vdW  Elec       q    Type
REMARK                         _______ _______ _______ _____ _____    ______ ____
ROOT
ATOM      1  N   UNL     1      -1.267   7.285   0.050  0.00  0.00    -0.147 NA
ATOM      2  N   UNL     1      -1.276   5.995   0.045  0.00  0.00    -0.145 NA
ENDROOT
BRANCH   2   3
ATOM      3  C   UNL     1      -0.104   5.308   0.030  0.00  0.00    +0.135 A 
ATOM      4  C   UNL     1      -0.095   3.845   0.023  0.00  0.00    +0.013 A 
ATOM      5  C   UNL     1      -1.285   3.108   0.031  0.00  0.00    +0.011 A 
ATOM      6  C   UNL     1      -1.234   1.745   0.017  0.00  0.00    +0.001 A 
ATOM      7  C   UNL     1      -0.013   1.076   0.008  0.00  0.00    +0.001 A 
ATOM      8  C   UNL     1       1.163   1.763   0.000  0.00  0.00    +0.008 A 
ATOM      9  C   UNL     1       1.148   3.168   0.008  0.00  0.00    -0.016 A 
ATOM     10  C   UNL     1       2.343   3.910  -0.000  0.00  0.00    +0.012 A 
ATOM     11  C   UNL     1       2.318   5.269   0.006  0.00  0.00    +0.048 A 
ATOM     12  C   UNL     1       1.120   5.982   0.020  0.00  0.00    +0.144 A 
BRANCH  12  13
ATOM     13  O   UNL     1       1.142   7.338   0.026  0.00  0.00    -0.505 OA
ATOM     14  H   UNL     1       1.140   7.735  -0.856  0.00  0.00    +0.292 HD
ENDBRANCH  12  13
ENDBRANCH   2   3
BRANCH   1  18
ATOM     15  C   UNL     1      -6.161   7.254   0.100  0.00  0.00    +0.045 C 
ATOM     16  C   UNL     1      -4.848   7.993   0.090  0.00  0.00    -0.030 A 
ATOM     17  C   UNL     1      -3.662   7.289   0.075  0.00  0.00    +0.036 A 
ATOM     18  C   UNL     1      -2.445   7.977   0.065  0.00  0.00    +0.114 A 
ATOM     19  C   UNL     1      -2.439   9.375   0.077  0.00  0.00    +0.148 A 
ATOM     20  C   UNL     1      -3.631  10.066   0.087  0.00  0.00    +0.052 A 
ATOM     21  C   UNL     1      -4.834   9.378   0.096  0.00  0.00    +0.046 A 
ATOM     22 CL   UNL     1      -6.331  10.257   0.115  0.00  0.00    -0.083 Cl
BRANCH  19  23
ATOM     23  S   UNL     1      -0.910  10.251   0.072  0.00  0.00    +0.142 S 
ATOM     24  O   UNL     1      -0.619  10.568   1.427  0.00  0.00    -0.140 OA
ATOM     25  O   UNL     1      -0.017   9.506  -0.744  0.00  0.00    -0.140 OA
ATOM     26  O   UNL     1      -1.152  11.573  -0.641  0.00  0.00    -0.043 OA
ENDBRANCH  19  23
ENDBRANCH   1  18
TORSDOF 4
