REMARK  Name = ZINC39672091
REMARK  6 active torsions:
REMARK  status: ('A' for Active; 'I' for Inactive)
REMARK    1  A    between atoms: C_1  and  C_2
REMARK    2  A    between atoms: C_5  and  C_12
REMARK    3  A    between atoms: N_9  and  C_11
REMARK    4  A    between atoms: C_16  and  C_25
REMARK    5  A    between atoms: N_27  and  C_28
REMARK    6  A    between atoms: C_28  and  C_29
REMARK                            x       y       z     vdW  Elec       q    Type
REMARK                         _______ _______ _______ _____ _____    ______ ____
ROOT
ATOM      1  C   UNL     1      -0.102  -1.393  -5.145  0.00  0.00    +0.250 C 
ATOM      2  O   UNL     1      -0.234  -0.321  -5.703  0.00  0.00    -0.270 OA
ATOM      3  N   UNL     1       0.048  -2.517  -5.873  0.00  0.00    -0.296 N 
ATOM      4  C   UNL     1       0.114  -3.914  -5.383  0.00  0.00    +0.121 C 
ATOM      5  C   UNL     1      -0.686  -4.731  -6.421  0.00  0.00    +0.100 C 
ATOM      6  C   UNL     1      -0.636  -3.888  -7.707  0.00  0.00    -0.004 C 
ATOM      7  C   UNL     1       0.177  -2.636  -7.345  0.00  0.00    +0.115 C 
ATOM      8  C   UNL     1      -2.046  -3.489  -8.133  0.00  0.00    -0.010 C 
ATOM      9  C   UNL     1      -1.974  -2.700  -9.443  0.00  0.00    -0.082 C 
ATOM     10  N   UNL     1      -1.343  -3.527 -10.480  0.00  0.00    +0.379 N 
ATOM     11  C   UNL     1       0.043  -3.829 -10.105  0.00  0.00    -0.082 C 
ATOM     12  C   UNL     1       0.057  -4.665  -8.822  0.00  0.00    -0.010 C 
ATOM     13  H   UNL     1      -1.858  -4.389 -10.580  0.00  0.00    -0.086 HD
ATOM     14  H   UNL     1      -1.352  -3.029 -11.357  0.00  0.00    -0.086 HD
ENDROOT
BRANCH   1  19
ATOM     15  C   UNL     1      -2.570   1.084  -0.577  0.00  0.00    +0.068 C 
ATOM     16  C   UNL     1      -1.564  -0.030  -0.438  0.00  0.00    +0.071 A 
ATOM     17  C   UNL     1      -0.885  -0.719  -1.531  0.00  0.00    +0.060 A 
ATOM     18  C   UNL     1      -0.921  -0.607  -2.924  0.00  0.00    +0.067 A 
ATOM     19  C   UNL     1      -0.107  -1.463  -3.671  0.00  0.00    +0.074 A 
ATOM     20  C   UNL     1       0.704  -2.389  -3.001  0.00  0.00    +0.127 A 
ATOM     21  N   UNL     1       0.715  -2.468  -1.692  0.00  0.00    -0.235 NA
ATOM     22  C   UNL     1      -0.040  -1.678  -0.934  0.00  0.00    +0.160 A 
ATOM     23  N   UNL     1      -0.211  -1.560   0.416  0.00  0.00    -0.249 N 
ATOM     24  N   UNL     1      -1.138  -0.547   0.678  0.00  0.00    -0.174 NA
ATOM     25  C   UNL     1       0.474  -2.365   1.430  0.00  0.00    +0.174 C 
ATOM     26 CL   UNL     1      -1.946   0.558  -3.702  0.00  0.00    -0.082 Cl
ENDBRANCH   1  19
BRANCH   5  27
ATOM     27  C   UNL     1      -2.111  -4.909  -5.963  0.00  0.00    +0.219 C 
ATOM     28  O   UNL     1      -2.635  -4.064  -5.269  0.00  0.00    -0.275 OA
ATOM     29  N   UNL     1      -2.803  -6.008  -6.325  0.00  0.00    -0.309 N 
ATOM     30  H   UNL     1      -2.384  -6.684  -6.881  0.00  0.00    +0.149 HD
BRANCH  29  31
ATOM     31  C   UNL     1      -4.188  -6.181  -5.880  0.00  0.00    +0.161 C 
BRANCH  31  32
ATOM     32  C   UNL     1      -4.729  -7.481  -6.418  0.00  0.00    +0.077 A 
ATOM     33  C   UNL     1      -4.748  -8.660  -5.758  0.00  0.00    +0.117 A 
ATOM     34  N   UNL     1      -5.319  -9.581  -6.593  0.00  0.00    -0.306 N 
ATOM     35  C   UNL     1      -5.590 -10.911  -6.452  0.00  0.00    +0.092 A 
ATOM     36  C   UNL     1      -6.174 -11.603  -7.453  0.00  0.00    +0.018 A 
ATOM     37  C   UNL     1      -6.511 -10.961  -8.656  0.00  0.00    +0.005 A 
ATOM     38  C   UNL     1      -6.246  -9.635  -8.809  0.00  0.00    +0.047 A 
ATOM     39  C   UNL     1      -5.637  -8.927  -7.755  0.00  0.00    +0.138 A 
ATOM     40  N   UNL     1      -5.275  -7.658  -7.623  0.00  0.00    -0.231 NA
ENDBRANCH  31  32
ENDBRANCH  29  31
ENDBRANCH   5  27
TORSDOF 4
