REMARK  Name = ZINC13424433
REMARK  5 active torsions:
REMARK  status: ('A' for Active; 'I' for Inactive)
REMARK    1  A    between atoms: C_2  and  C_3
REMARK    2  A    between atoms: C_3  and  O_4
REMARK    3  A    between atoms: O_4  and  C_5
REMARK    4  A    between atoms: C_8  and  C_11
REMARK    5  A    between atoms: N_17  and  C_18
REMARK                            x       y       z     vdW  Elec       q    Type
REMARK                         _______ _______ _______ _____ _____    ______ ____
ROOT
ATOM      1  C   UNL     1       1.981   7.522   0.024  0.00  0.00    +0.028 C 
ATOM      2  C   UNL     1       3.225   8.058   0.112  0.00  0.00    +0.078 C 
ATOM      3  C   UNL     1       3.628   9.471   0.240  0.00  0.00    +0.256 C 
ATOM      4  O   UNL     1       2.805  10.366   0.283  0.00  0.00    -0.269 OA
ATOM      5  N   UNL     1       4.925   9.721   0.307  0.00  0.00    -0.260 N 
ATOM      6  C   UNL     1       5.842   8.693   0.258  0.00  0.00    +0.166 C 
ATOM      7  N   UNL     1       7.153   8.764   0.311  0.00  0.00    -0.226 NA
ATOM      8  S   UNL     1       4.814   7.240   0.112  0.00  0.00    -0.049 S 
ATOM      9  H   UNL     1       5.234  10.636   0.392  0.00  0.00    +0.157 HD
ENDROOT
BRANCH   7  10
ATOM     10  C   UNL     1       7.904   7.621   0.246  0.00  0.00    +0.067 A 
ATOM     11  C   UNL     1       7.540   6.500   0.996  0.00  0.00    +0.030 A 
ATOM     12  C   UNL     1       8.300   5.351   0.926  0.00  0.00    +0.040 A 
ATOM     13  C   UNL     1       9.422   5.308   0.114  0.00  0.00    +0.124 A 
ATOM     14  C   UNL     1       9.788   6.417  -0.631  0.00  0.00    +0.040 A 
ATOM     15  C   UNL     1       9.032   7.569  -0.574  0.00  0.00    +0.030 A 
ATOM     16  F   UNL     1      10.163   4.180   0.050  0.00  0.00    -0.205 F 
ENDBRANCH   7  10
BRANCH   1  20
ATOM     17  C   UNL     1       1.506   3.387  -0.788  0.00  0.00    +0.122 A 
ATOM     18  C   UNL     1       0.444   4.117  -0.266  0.00  0.00    +0.046 A 
ATOM     19  C   UNL     1       0.593   5.459  -0.001  0.00  0.00    +0.011 A 
ATOM     20  C   UNL     1       1.816   6.090  -0.257  0.00  0.00    -0.024 A 
ATOM     21  C   UNL     1       2.883   5.349  -0.782  0.00  0.00    +0.011 A 
ATOM     22  C   UNL     1       2.724   4.006  -1.039  0.00  0.00    +0.046 A 
BRANCH  17  23
ATOM     23  O   UNL     1       1.353   2.063  -1.048  0.00  0.00    -0.480 OA
BRANCH  23  24
ATOM     24  C   UNL     1       0.075   1.489  -0.766  0.00  0.00    +0.317 C 
BRANCH  24  26
ATOM     25  C   UNL     1       0.109  -1.085  -1.379  0.00  0.00    +0.007 C 
ATOM     26  C   UNL     1       0.094   0.057  -1.107  0.00  0.00    -0.065 C 
ENDBRANCH  24  26
ENDBRANCH  23  24
ENDBRANCH  17  23
ENDBRANCH   1  20
TORSDOF 5
