REMARK  Name = ZINC39578396
REMARK  7 active torsions:
REMARK  status: ('A' for Active; 'I' for Inactive)
REMARK    1  A    between atoms: C_1  and  C_2
REMARK    2  A    between atoms: C_5  and  C_26
REMARK    3  A    between atoms: C_10  and  C_12
REMARK    4  A    between atoms: C_12  and  S_13
REMARK    5  A    between atoms: S_13  and  C_14
REMARK    6  A    between atoms: C_17  and  C_20
REMARK    7  A    between atoms: N_18  and  N_19
REMARK                            x       y       z     vdW  Elec       q    Type
REMARK                         _______ _______ _______ _____ _____    ______ ____
ROOT
ATOM      1  C   UNL     1       5.888  -2.465   1.683  0.00  0.00    +0.209 A 
ATOM      2  N   UNL     1       6.016  -1.159   1.651  0.00  0.00    -0.121 NA
ATOM      3  N   UNL     1       7.259  -0.840   1.727  0.00  0.00    -0.132 NA
ATOM      4  C   UNL     1       7.992  -1.913   1.811  0.00  0.00    +0.154 A 
ATOM      5  N   UNL     1       7.145  -2.987   1.792  0.00  0.00    -0.228 N 
ENDROOT
BRANCH   4   6
ATOM      6  C   UNL     1       9.495  -1.963   1.916  0.00  0.00    +0.059 C 
ATOM      7  C   UNL     1       9.942  -1.221   3.178  0.00  0.00    +0.011 C 
ATOM      8  C   UNL     1      11.468  -1.272   3.284  0.00  0.00    +0.001 C 
ATOM      9  C   UNL     1      12.087  -0.606   2.054  0.00  0.00    +0.000 C 
ATOM     10  C   UNL     1      11.640  -1.347   0.793  0.00  0.00    +0.001 C 
ATOM     11  C   UNL     1      10.114  -1.297   0.686  0.00  0.00    +0.011 C 
ENDBRANCH   4   6
BRANCH   5  12
ATOM     12  N   UNL     1       7.486  -4.308   1.863  0.00  0.00    -0.295 N 
ATOM     13  H   UNL     1       7.644  -4.691   0.943  0.00  0.00    +0.163 HD
ATOM     14  H   UNL     1       8.293  -4.442   2.454  0.00  0.00    +0.163 HD
ENDBRANCH   5  12
BRANCH   1  15
ATOM     15  S   UNL     1       4.380  -3.372   1.607  0.00  0.00    -0.075 S 
BRANCH  15  16
ATOM     16  C   UNL     1       3.103  -2.090   1.470  0.00  0.00    +0.173 C 
BRANCH  16  24
ATOM     17  C   UNL     1      -0.019   1.526   0.010  0.00  0.00    +0.009 C 
ATOM     18  C   UNL     1       0.002  -0.004   0.002  0.00  0.00    +0.004 C 
ATOM     19  C   UNL     1      -1.433  -0.534   0.015  0.00  0.00    +0.009 C 
ATOM     20  C   UNL     1      -1.414  -2.064  -0.027  0.00  0.00    +0.004 C 
ATOM     21  C   UNL     1      -0.692  -2.596   1.215  0.00  0.00    +0.111 C 
ATOM     22  N   UNL     1       0.639  -1.977   1.288  0.00  0.00    -0.300 N 
ATOM     23  C   UNL     1       0.742  -0.512   1.244  0.00  0.00    +0.111 C 
ATOM     24  C   UNL     1       1.746  -2.740   1.395  0.00  0.00    +0.226 C 
ATOM     25  O   UNL     1       1.648  -3.948   1.431  0.00  0.00    -0.275 OA
ATOM     26  C   UNL     1      -2.850  -2.592  -0.049  0.00  0.00    +0.009 C 
ENDBRANCH  16  24
ENDBRANCH  15  16
ENDBRANCH   1  15
TORSDOF 5
