REMARK  Name = ZINC21232934
REMARK  8 active torsions:
REMARK  status: ('A' for Active; 'I' for Inactive)
REMARK    1  A    between atoms: C_1  and  C_2
REMARK    2  A    between atoms: C_2  and  C_4
REMARK    3  A    between atoms: C_2  and  S_24
REMARK    4  A    between atoms: C_7  and  C_19
REMARK    5  A    between atoms: C_10  and  C_12
REMARK    6  A    between atoms: S_24  and  C_25
REMARK    7  A    between atoms: C_28  and  C_31
REMARK    8  A    between atoms: N_29  and  N_30
REMARK                            x       y       z     vdW  Elec       q    Type
REMARK                         _______ _______ _______ _____ _____    ______ ____
ROOT
ATOM      1  C   UNL     1       3.506   0.432  -0.029  0.00  0.00    +0.249 C 
ATOM      2  O   UNL     1       4.241   1.397  -0.031  0.00  0.00    -0.273 OA
ATOM      3  N   UNL     1       2.170   0.604  -0.015  0.00  0.00    -0.181 N 
ATOM      4  C   UNL     1       1.472   1.899  -0.002  0.00  0.00    +0.173 C 
ATOM      5  C   UNL     1      -0.018   1.508   0.010  0.00  0.00    +0.090 C 
ATOM      6  C   UNL     1       0.002  -0.004   0.002  0.00  0.00    +0.069 C 
ATOM      7  N   UNL     1       1.222  -0.418  -0.012  0.00  0.00    -0.181 NA
ENDROOT
BRANCH   6   8
ATOM      8  C   UNL     1      -1.191  -0.871   0.008  0.00  0.00    -0.002 A 
ATOM      9  C   UNL     1      -2.468  -0.307   0.029  0.00  0.00    +0.011 A 
ATOM     10  C   UNL     1      -3.580  -1.123   0.029  0.00  0.00    +0.020 A 
ATOM     11  C   UNL     1      -3.431  -2.500   0.020  0.00  0.00    +0.041 A 
ATOM     12  C   UNL     1      -2.167  -3.066   0.005  0.00  0.00    +0.020 A 
ATOM     13  C   UNL     1      -1.048  -2.261  -0.001  0.00  0.00    +0.011 A 
ATOM     14 CL   UNL     1      -4.835  -3.521   0.027  0.00  0.00    -0.084 Cl
ENDBRANCH   6   8
BRANCH   4  15
ATOM     15  C   UNL     1       1.826   2.679   1.238  0.00  0.00    +0.128 A 
ATOM     16  C   UNL     1       1.945   4.016   1.320  0.00  0.00    +0.046 A 
ATOM     17  C   UNL     1       2.287   4.316   2.659  0.00  0.00    +0.041 A 
ATOM     18  C   UNL     1       2.356   3.144   3.315  0.00  0.00    +0.195 A 
ATOM     19  O   UNL     1       2.070   2.156   2.451  0.00  0.00    -0.466 OA
ENDBRANCH   4  15
BRANCH   1  21
ATOM     20  C   UNL     1       4.067  -1.532   1.377  0.00  0.00    +0.029 C 
ATOM     21  C   UNL     1       4.088  -0.958  -0.042  0.00  0.00    +0.139 C 
BRANCH  21  22
ATOM     22  S   UNL     1       5.795  -0.892  -0.641  0.00  0.00    -0.072 S 
BRANCH  22  23
ATOM     23  C   UNL     1       6.165  -2.614  -0.697  0.00  0.00    +0.209 A 
ATOM     24  N   UNL     1       5.358  -3.597  -0.373  0.00  0.00    -0.121 NA
ATOM     25  N   UNL     1       5.956  -4.724  -0.533  0.00  0.00    -0.123 NA
ATOM     26  C   UNL     1       7.170  -4.529  -0.966  0.00  0.00    +0.255 A 
ATOM     27  N   UNL     1       7.345  -3.178  -1.091  0.00  0.00    -0.220 N 
BRANCH  26  28
ATOM     28  C   UNL     1       8.189  -5.594  -1.276  0.00  0.00    +0.454 C 
ATOM     29  F   UNL     1       7.553  -6.837  -1.363  0.00  0.00    -0.163 F 
ATOM     30  F   UNL     1       8.812  -5.303  -2.495  0.00  0.00    -0.163 F 
ATOM     31  F   UNL     1       9.149  -5.631  -0.259  0.00  0.00    -0.163 F 
ENDBRANCH  26  28
BRANCH  27  32
ATOM     32  N   UNL     1       8.468  -2.528  -1.519  0.00  0.00    -0.295 N 
ATOM     33  H   UNL     1       9.359  -3.103  -1.810  0.00  0.00    +0.163 HD
ATOM     34  H   UNL     1       8.481  -1.429  -1.572  0.00  0.00    +0.163 HD
ENDBRANCH  27  32
ENDBRANCH  22  23
ENDBRANCH  21  22
ENDBRANCH   1  21
TORSDOF 7
