REMARK  Name = ZINC13033619
REMARK  14 active torsions:
REMARK  status: ('A' for Active; 'I' for Inactive)
REMARK    1  A    between atoms: C_1  and  C_2
REMARK    2  A    between atoms: C_5  and  C_8
REMARK    3  A    between atoms: C_8  and  N_71
REMARK    4  A    between atoms: C_9  and  C_10
REMARK    5  A    between atoms: C_9  and  N_71
REMARK    6  A    between atoms: C_14  and  O_24
REMARK    7  A    between atoms: C_15  and  O_22
REMARK    8  A    between atoms: O_22  and  C_23
REMARK    9  A    between atoms: O_24  and  C_25
REMARK   10  A    between atoms: C_26  and  C_27
REMARK   11  A    between atoms: C_26  and  N_71
REMARK   12  A    between atoms: N_31  and  C_32
REMARK   13  A    between atoms: C_32  and  C_33
REMARK   14  A    between atoms: C_33  and  C_34
REMARK                            x       y       z     vdW  Elec       q    Type
REMARK                         _______ _______ _______ _____ _____    ______ ____
ROOT
ATOM      1  N   UNL     1      -5.408   3.840  -1.389  0.00  0.00    +0.390 N 
ATOM      2  H   UNL     1      -5.376   2.883  -1.760  0.00  0.00    -0.080 HD
ENDROOT
BRANCH   1   3
ATOM      3  C   UNL     1      -4.463   4.682  -2.152  0.00  0.00    -0.042 C 
BRANCH   3   8
ATOM      4  C   UNL     1       0.406   1.691  -3.013  0.00  0.00    +0.044 C 
ATOM      5  C   UNL     1      -0.864   2.471  -2.788  0.00  0.00    -0.050 A 
ATOM      6  C   UNL     1      -1.941   2.298  -3.637  0.00  0.00    +0.003 A 
ATOM      7  C   UNL     1      -3.105   3.013  -3.432  0.00  0.00    +0.002 A 
ATOM      8  C   UNL     1      -3.193   3.902  -2.377  0.00  0.00    -0.064 A 
ATOM      9  C   UNL     1      -2.115   4.079  -1.530  0.00  0.00    +0.002 A 
ATOM     10  C   UNL     1      -0.952   3.360  -1.733  0.00  0.00    +0.003 A 
ENDBRANCH   3   8
ENDBRANCH   1   3
BRANCH   1  11
ATOM     11  C   UNL     1      -5.023   3.815   0.038  0.00  0.00    -0.036 C 
BRANCH  11  12
ATOM     12  C   UNL     1      -5.639   2.600   0.682  0.00  0.00    +0.001 A 
ATOM     13  C   UNL     1      -4.936   1.441   0.752  0.00  0.00    +0.017 A 
ATOM     14  C   UNL     1      -5.564   0.278   1.377  0.00  0.00    +0.002 A 
ATOM     15  C   UNL     1      -4.892  -0.948   1.461  0.00  0.00    +0.059 A 
ATOM     16  C   UNL     1      -5.511  -2.025   2.056  0.00  0.00    +0.162 A 
ATOM     17  C   UNL     1      -6.803  -1.898   2.575  0.00  0.00    +0.163 A 
ATOM     18  C   UNL     1      -7.475  -0.692   2.498  0.00  0.00    +0.075 A 
ATOM     19  C   UNL     1      -6.868   0.403   1.895  0.00  0.00    +0.053 A 
ATOM     20  N   UNL     1      -7.525   1.613   1.803  0.00  0.00    -0.322 N 
ATOM     21  H   UNL     1      -8.421   1.699   2.163  0.00  0.00    +0.169 HD
ATOM     22  C   UNL     1      -6.940   2.674   1.220  0.00  0.00    +0.251 A 
ATOM     23  O   UNL     1      -7.550   3.728   1.156  0.00  0.00    -0.268 OA
BRANCH  17  24
ATOM     24  O   UNL     1      -7.403  -2.967   3.160  0.00  0.00    -0.491 OA
ATOM     25  C   UNL     1      -8.724  -2.771   3.670  0.00  0.00    +0.277 C 
ENDBRANCH  17  24
BRANCH  16  26
ATOM     26  O   UNL     1      -4.862  -3.218   2.140  0.00  0.00    -0.491 OA
ATOM     27  C   UNL     1      -3.545  -3.280   1.590  0.00  0.00    +0.277 C 
ENDBRANCH  16  26
ENDBRANCH  11  12
ENDBRANCH   1  11
BRANCH   1  28
ATOM     28  C   UNL     1      -6.782   4.365  -1.532  0.00  0.00    +0.001 C 
BRANCH  28  29
ATOM     29  C   UNL     1      -7.229   4.176  -2.959  0.00  0.00    +0.135 A 
ATOM     30  N   UNL     1      -7.093   5.032  -3.942  0.00  0.00    -0.115 NA
ATOM     31  N   UNL     1      -7.597   4.503  -5.003  0.00  0.00    -0.023 NA
ATOM     32  N   UNL     1      -8.058   3.335  -4.721  0.00  0.00    -0.044 NA
ATOM     33  N   UNL     1      -7.850   3.096  -3.470  0.00  0.00    -0.231 N 
BRANCH  33  34
ATOM     34  C   UNL     1      -8.221   1.880  -2.742  0.00  0.00    +0.152 C 
BRANCH  34  35
ATOM     35  C   UNL     1      -9.629   2.040  -2.166  0.00  0.00    +0.058 C 
BRANCH  35  36
ATOM     36  C   UNL     1     -10.010   0.789  -1.417  0.00  0.00    -0.046 A 
ATOM     37  C   UNL     1     -10.653  -0.242  -2.076  0.00  0.00    +0.004 A 
ATOM     38  C   UNL     1     -10.998  -1.392  -1.391  0.00  0.00    +0.000 A 
ATOM     39  C   UNL     1     -10.710  -1.506  -0.044  0.00  0.00    +0.000 A 
ATOM     40  C   UNL     1     -10.072  -0.473   0.617  0.00  0.00    +0.000 A 
ATOM     41  C   UNL     1      -9.722   0.674  -0.070  0.00  0.00    +0.004 A 
ENDBRANCH  35  36
ENDBRANCH  34  35
ENDBRANCH  33  34
ENDBRANCH  28  29
ENDBRANCH   1  28
TORSDOF 11
