REMARK  Name = ZINC59397726
REMARK  8 active torsions:
REMARK  status: ('A' for Active; 'I' for Inactive)
REMARK    1  A    between atoms: C_1  and  O_2
REMARK    2  A    between atoms: O_2  and  C_3
REMARK    3  A    between atoms: C_5  and  C_12
REMARK    4  A    between atoms: C_7  and  O_10
REMARK    5  A    between atoms: C_8  and  O_9
REMARK    6  A    between atoms: O_10  and  C_11
REMARK    7  A    between atoms: N_16  and  C_20
REMARK    8  A    between atoms: C_24  and  N_26
REMARK                            x       y       z     vdW  Elec       q    Type
REMARK                         _______ _______ _______ _____ _____    ______ ____
ROOT
ATOM      1  C   UNL     1      -4.861   0.225   0.139  0.00  0.00    +0.028 C 
ATOM      2  C   UNL     1      -6.054  -0.406  -0.004  0.00  0.00    +0.078 C 
ATOM      3  C   UNL     1      -7.412   0.163  -0.116  0.00  0.00    +0.263 C 
ATOM      4  O   UNL     1      -7.606   1.364  -0.088  0.00  0.00    -0.269 OA
ATOM      5  N   UNL     1      -8.407  -0.699  -0.248  0.00  0.00    -0.224 N 
ATOM      6  C   UNL     1      -8.187  -2.029  -0.279  0.00  0.00    +0.125 C 
ATOM      7  S   UNL     1      -9.332  -3.292  -0.443  0.00  0.00    -0.027 S 
ATOM      8  S   UNL     1      -6.414  -2.154  -0.116  0.00  0.00    -0.061 S 
ENDROOT
BRANCH   1  11
ATOM      9  C   UNL     1      -2.432  -2.543  -0.579  0.00  0.00    +0.166 A 
ATOM     10  C   UNL     1      -3.611  -1.826  -0.502  0.00  0.00    +0.057 A 
ATOM     11  C   UNL     1      -3.611  -0.542   0.056  0.00  0.00    -0.017 A 
ATOM     12  C   UNL     1      -2.416   0.010   0.534  0.00  0.00    +0.057 A 
ATOM     13  C   UNL     1      -1.242  -0.714   0.454  0.00  0.00    +0.166 A 
ATOM     14  C   UNL     1      -1.247  -1.993  -0.097  0.00  0.00    +0.201 A 
BRANCH   9  16
ATOM     15  C   UNL     1      -3.681  -4.293  -1.596  0.00  0.00    +0.277 C 
ATOM     16  O   UNL     1      -2.431  -3.790  -1.121  0.00  0.00    -0.491 OA
ENDBRANCH   9  16
BRANCH  14  17
ATOM     17  O   UNL     1      -0.091  -2.705  -0.169  0.00  0.00    -0.501 OA
ATOM     18  H   UNL     1       0.407  -2.564  -0.986  0.00  0.00    +0.292 HD
ENDBRANCH  14  17
BRANCH  13  19
ATOM     19  O   UNL     1      -0.081  -0.179   0.918  0.00  0.00    -0.491 OA
ATOM     20  C   UNL     1      -0.150   1.135   1.476  0.00  0.00    +0.277 C 
ENDBRANCH  13  19
ENDBRANCH   1  11
BRANCH   5  21
ATOM     21  C   UNL     1      -9.718  -0.218  -0.359  0.00  0.00    +0.045 A 
ATOM     22  C   UNL     1     -10.631  -0.445   0.662  0.00  0.00    +0.024 A 
ATOM     23  C   UNL     1     -11.923   0.030   0.551  0.00  0.00    +0.004 A 
ATOM     24  C   UNL     1     -12.308   0.731  -0.577  0.00  0.00    +0.033 A 
ATOM     25  C   UNL     1     -11.402   0.959  -1.596  0.00  0.00    +0.128 A 
ATOM     26  C   UNL     1     -10.107   0.491  -1.488  0.00  0.00    +0.056 A 
BRANCH  25  27
ATOM     27  N   UNL     1     -11.818   1.709  -2.802  0.00  0.00    +0.056 N 
ATOM     28  O   UNL     1     -12.951   2.123  -2.896  0.00  0.00    -0.126 OA
ATOM     29  O   UNL     1     -11.027   1.908  -3.694  0.00  0.00    -0.126 OA
ENDBRANCH  25  27
ENDBRANCH   5  21
TORSDOF 6
