REMARK  Name = ZINC43526793
REMARK  11 active torsions:
REMARK  status: ('A' for Active; 'I' for Inactive)
REMARK    1  A    between atoms: C_1  and  N_2
REMARK    2  A    between atoms: N_2  and  C_3
REMARK    3  A    between atoms: N_2  and  C_6
REMARK    4  A    between atoms: C_3  and  C_4
REMARK    5  A    between atoms: C_6  and  C_7
REMARK    6  A    between atoms: C_16  and  C_18
REMARK    7  A    between atoms: C_18  and  N_19
REMARK    8  A    between atoms: N_19  and  C_20
REMARK    9  A    between atoms: C_20  and  N_22
REMARK   10  A    between atoms: N_22  and  C_23
REMARK   11  A    between atoms: C_26  and  N_29
REMARK                            x       y       z     vdW  Elec       q    Type
REMARK                         _______ _______ _______ _____ _____    ______ ____
ROOT
ATOM      1  C   UNL     1      -1.397  -2.181   5.741  0.00  0.00    +0.088 C 
ENDROOT
BRANCH   1   9
ATOM      2  C   UNL     1      -0.201  -0.565   1.952  0.00  0.00    -0.041 C 
ATOM      3  C   UNL     1      -1.625  -1.085   2.155  0.00  0.00    -0.076 C 
ATOM      4  N   UNL     1      -1.675  -1.969   3.322  0.00  0.00    +0.383 N 
ATOM      5  C   UNL     1      -0.807  -3.133   3.124  0.00  0.00    -0.078 C 
ATOM      6  C   UNL     1       0.645  -2.680   2.953  0.00  0.00    -0.015 C 
ATOM      7  C   UNL     1       0.703  -1.147   3.047  0.00  0.00    -0.015 C 
ATOM      8  C   UNL     1       0.142  -0.726   4.412  0.00  0.00    -0.010 C 
ATOM      9  C   UNL     1      -1.296  -1.243   4.536  0.00  0.00    -0.051 C 
ATOM     10  H   UNL     1      -2.622  -2.301   3.430  0.00  0.00    -0.081 HD
BRANCH   2  11
ATOM     11  C   UNL     1       0.313  -0.999   0.578  0.00  0.00    -0.077 C 
BRANCH  11  13
ATOM     12  C   UNL     1      -0.271   1.103  -0.418  0.00  0.00    -0.096 C 
ATOM     13  N   UNL     1      -0.483  -0.349  -0.471  0.00  0.00    +0.380 N 
ATOM     14  H   UNL     1      -1.461  -0.552  -0.325  0.00  0.00    -0.082 HD
BRANCH  13  15
ATOM     15  C   UNL     1      -0.070  -0.858  -1.786  0.00  0.00    -0.052 C 
BRANCH  15  16
ATOM     16  C   UNL     1      -0.968  -0.284  -2.851  0.00  0.00    -0.053 C 
ATOM     17  C   UNL     1      -0.450   0.361  -3.867  0.00  0.00    +0.002 C 
ENDBRANCH  15  16
ENDBRANCH  13  15
ENDBRANCH  11  13
ENDBRANCH   2  11
ENDBRANCH   1   9
BRANCH   1  18
ATOM     18  N   UNL     1      -2.743  -2.757   5.799  0.00  0.00    -0.328 N 
ATOM     19  H   UNL     1      -3.402  -2.518   5.129  0.00  0.00    +0.148 HD
BRANCH  18  20
ATOM     20  C   UNL     1      -3.065  -3.618   6.785  0.00  0.00    +0.134 C 
ATOM     21  S   UNL     1      -1.901  -4.039   7.968  0.00  0.00    -0.019 S 
BRANCH  20  22
ATOM     22  N   UNL     1      -4.303  -4.148   6.839  0.00  0.00    -0.297 N 
ATOM     23  H   UNL     1      -4.986  -3.850   6.218  0.00  0.00    +0.154 HD
BRANCH  22  24
ATOM     24  C   UNL     1      -4.603  -5.130   7.791  0.00  0.00    +0.033 A 
ATOM     25  C   UNL     1      -5.815  -5.092   8.468  0.00  0.00    +0.025 A 
ATOM     26  C   UNL     1      -6.111  -6.060   9.407  0.00  0.00    +0.029 A 
ATOM     27  C   UNL     1      -5.197  -7.071   9.674  0.00  0.00    +0.065 A 
ATOM     28  C   UNL     1      -3.986  -7.108   8.997  0.00  0.00    +0.029 A 
ATOM     29  C   UNL     1      -3.692  -6.144   8.054  0.00  0.00    +0.025 A 
BRANCH  27  30
ATOM     30  N   UNL     1      -5.498  -8.054  10.628  0.00  0.00    -0.240 N 
ATOM     31  C   UNL     1      -4.701  -9.085  10.987  0.00  0.00    +0.114 A 
ATOM     32  C   UNL     1      -5.353  -9.801  11.932  0.00  0.00    +0.041 A 
ATOM     33  C   UNL     1      -6.590  -9.188  12.160  0.00  0.00    +0.135 A 
ATOM     34  N   UNL     1      -6.676  -8.138  11.383  0.00  0.00    -0.175 NA
ENDBRANCH  27  30
ENDBRANCH  22  24
ENDBRANCH  20  22
ENDBRANCH  18  20
ENDBRANCH   1  18
TORSDOF 10
