REMARK  Name = ZINC15223479
REMARK  5 active torsions:
REMARK  status: ('A' for Active; 'I' for Inactive)
REMARK    1  A    between atoms: C_3  and  O_13
REMARK    2  A    between atoms: C_6  and  C_7
REMARK    3  A    between atoms: N_8  and  N_9
REMARK    4  A    between atoms: O_13  and  C_14
REMARK    5  A    between atoms: C_14  and  C_16
REMARK                            x       y       z     vdW  Elec       q    Type
REMARK                         _______ _______ _______ _____ _____    ______ ____
ROOT
ATOM      1  C   UNL     1      -0.042   1.054  -0.102  0.00  0.00    +0.013 A 
ATOM      2  C   UNL     1      -1.236   1.741  -0.086  0.00  0.00    +0.047 A 
ATOM      3  C   UNL     1      -1.242   3.126   0.023  0.00  0.00    +0.132 A 
ATOM      4  C   UNL     1      -0.045   3.826   0.104  0.00  0.00    +0.047 A 
ATOM      5  C   UNL     1       1.155   3.149   0.083  0.00  0.00    +0.013 A 
ATOM      6  C   UNL     1       1.166   1.754  -0.021  0.00  0.00    -0.005 A 
ENDROOT
BRANCH   6   7
ATOM      7  C   UNL     1       2.445   1.026  -0.043  0.00  0.00    +0.143 C 
ATOM      8  N   UNL     1       3.571   1.681   0.033  0.00  0.00    -0.154 NA
BRANCH   8   9
ATOM      9  N   UNL     1       4.691   1.043   0.013  0.00  0.00    -0.114 NA
ATOM     10  C   UNL     1       5.828   1.704   0.090  0.00  0.00    +0.213 C 
ATOM     11  N   UNL     1       5.819   3.072   0.192  0.00  0.00    -0.369 N 
ATOM     12  N   UNL     1       7.020   1.025   0.069  0.00  0.00    -0.369 N 
ATOM     13  H   UNL     1       4.977   3.553   0.206  0.00  0.00    +0.159 HD
ATOM     14  H   UNL     1       6.656   3.560   0.248  0.00  0.00    +0.159 HD
ATOM     15  H   UNL     1       7.026   0.058  -0.003  0.00  0.00    +0.159 HD
ATOM     16  H   UNL     1       7.857   1.512   0.126  0.00  0.00    +0.159 HD
ENDBRANCH   8   9
ENDBRANCH   6   7
BRANCH   3  17
ATOM     17  O   UNL     1      -2.422   3.798   0.044  0.00  0.00    -0.422 OA
BRANCH  17  18
ATOM     18  C   UNL     1      -3.193   3.646   1.139  0.00  0.00    +0.344 C 
ATOM     19  O   UNL     1      -2.777   3.019   2.092  0.00  0.00    -0.245 OA
BRANCH  18  20
ATOM     20  C   UNL     1      -4.543   4.242   1.179  0.00  0.00    +0.059 A 
ATOM     21  C   UNL     1      -5.022   4.969   0.087  0.00  0.00    +0.016 A 
ATOM     22  C   UNL     1      -6.287   5.518   0.129  0.00  0.00    +0.016 A 
ATOM     23  C   UNL     1      -7.076   5.360   1.255  0.00  0.00    +0.018 A 
ATOM     24  C   UNL     1      -6.605   4.646   2.344  0.00  0.00    +0.016 A 
ATOM     25  C   UNL     1      -5.345   4.087   2.312  0.00  0.00    +0.016 A 
ATOM     26 BR   UNL     1      -8.806   6.124   1.307  0.00  0.00    -0.050 Br
ENDBRANCH  18  20
ENDBRANCH  17  18
ENDBRANCH   3  17
TORSDOF 5
