REMARK  Name = ZINC63363067
REMARK  4 active torsions:
REMARK  status: ('A' for Active; 'I' for Inactive)
REMARK    1  A    between atoms: C_1  and  O_2
REMARK    2  A    between atoms: O_2  and  C_3
REMARK    3  A    between atoms: C_10  and  C_18
REMARK    4  A    between atoms: N_24  and  C_27
REMARK                            x       y       z     vdW  Elec       q    Type
REMARK                         _______ _______ _______ _____ _____    ______ ____
ROOT
ATOM      1  C   UNL     1      -4.641  -4.210  -2.334  0.00  0.00    +0.101 A 
ATOM      2  C   UNL     1      -5.680  -4.062  -3.271  0.00  0.00    +0.263 A 
ATOM      3  N   UNL     1      -5.437  -3.437  -4.440  0.00  0.00    -0.274 N 
ATOM      4  H   UNL     1      -6.151  -3.333  -5.088  0.00  0.00    +0.173 HD
ATOM      5  C   UNL     1      -4.211  -2.956  -4.715  0.00  0.00    +0.337 A 
ATOM      6  O   UNL     1      -4.012  -2.394  -5.776  0.00  0.00    -0.246 OA
ATOM      7  N   UNL     1      -3.202  -3.086  -3.835  0.00  0.00    -0.228 N 
ATOM      8  C   UNL     1      -3.407  -3.712  -2.629  0.00  0.00    +0.270 A 
ATOM      9  O   UNL     1      -2.394  -3.836  -1.745  0.00  0.00    -0.267 OA
ATOM     10  O   UNL     1      -6.792  -4.497  -3.027  0.00  0.00    -0.267 OA
ENDROOT
BRANCH   1  17
ATOM     11  C   UNL     1      -1.575  -0.358   0.087  0.00  0.00    +0.121 A 
ATOM     12  C   UNL     1      -2.803   0.324   0.038  0.00  0.00    +0.047 A 
ATOM     13  C   UNL     1      -3.990  -0.320   0.011  0.00  0.00    +0.029 A 
ATOM     14  C   UNL     1      -4.027  -1.784   0.033  0.00  0.00    +0.043 A 
ATOM     15  N   UNL     1      -5.025  -2.636  -0.007  0.00  0.00    -0.376 N 
ATOM     16  C   UNL     1      -4.487  -3.985   0.135  0.00  0.00    +0.128 C 
ATOM     17  C   UNL     1      -4.890  -4.905  -1.021  0.00  0.00    +0.121 C 
ATOM     18  N   UNL     1      -4.076  -6.129  -0.944  0.00  0.00    -0.307 NA
ATOM     19  C   UNL     1      -2.653  -5.893  -1.203  0.00  0.00    +0.086 C 
ATOM     20  C   UNL     1      -2.053  -5.010  -0.094  0.00  0.00    +0.048 C 
ATOM     21  C   UNL     1      -2.976  -3.823   0.073  0.00  0.00    -0.035 C 
ATOM     22  C   UNL     1      -2.731  -2.508   0.074  0.00  0.00    +0.003 A 
ATOM     23  C   UNL     1      -1.499  -1.710   0.100  0.00  0.00    +0.055 A 
ATOM     24  H   UNL     1      -4.210  -6.597  -0.060  0.00  0.00    +0.123 HD
ATOM     25  H   UNL     1      -5.962  -2.408  -0.113  0.00  0.00    +0.160 HD
BRANCH  11  27
ATOM     26  C   UNL     1      -0.551   1.787   0.100  0.00  0.00    +0.277 C 
ATOM     27  O   UNL     1      -0.424   0.364   0.116  0.00  0.00    -0.495 OA
ENDBRANCH  11  27
ENDBRANCH   1  17
BRANCH   7  28
ATOM     28  C   UNL     1      -1.937  -2.576  -4.146  0.00  0.00    +0.062 A 
ATOM     29  C   UNL     1      -1.604  -1.284  -3.802  0.00  0.00    +0.027 A 
ATOM     30  C   UNL     1      -0.349  -0.767  -4.107  0.00  0.00    +0.003 A 
ATOM     31  C   UNL     1       0.583  -1.521  -4.753  0.00  0.00    +0.008 A 
ATOM     32  C   UNL     1       0.284  -2.843  -5.121  0.00  0.00    -0.016 A 
ATOM     33  C   UNL     1      -0.989  -3.382  -4.811  0.00  0.00    +0.006 A 
ATOM     34  C   UNL     1      -1.286  -4.705  -5.176  0.00  0.00    +0.010 A 
ATOM     35  C   UNL     1      -0.346  -5.454  -5.817  0.00  0.00    +0.001 A 
ATOM     36  C   UNL     1       0.908  -4.926  -6.118  0.00  0.00    +0.001 A 
ATOM     37  C   UNL     1       1.226  -3.644  -5.790  0.00  0.00    +0.008 A 
ENDBRANCH   7  28
TORSDOF 3
