REMARK  Name = ZINC63111116
REMARK  6 active torsions:
REMARK  status: ('A' for Active; 'I' for Inactive)
REMARK    1  A    between atoms: C_1  and  C_2
REMARK    2  A    between atoms: C_5  and  C_8
REMARK    3  A    between atoms: C_12  and  C_22
REMARK    4  A    between atoms: C_16  and  C_18
REMARK    5  A    between atoms: N_24  and  C_25
REMARK    6  A    between atoms: C_25  and  C_26
REMARK                            x       y       z     vdW  Elec       q    Type
REMARK                         _______ _______ _______ _____ _____    ______ ____
ROOT
ATOM      1  C   UNL     1       0.060  -4.254  -0.021  0.00  0.00    +0.050 C 
ATOM      2  N   UNL     1       0.069  -4.916   1.116  0.00  0.00    -0.342 N 
ATOM      3  C   UNL     1       0.087  -6.272   1.134  0.00  0.00    +0.116 C 
ATOM      4  C   UNL     1       0.098  -7.110   2.191  0.00  0.00    +0.045 C 
ATOM      5  C   UNL     1       0.116  -8.515   1.634  0.00  0.00    +0.185 C 
ATOM      6  N   UNL     1       0.113  -8.331   0.172  0.00  0.00    -0.218 NA
ATOM      7  N   UNL     1       0.095  -6.981  -0.059  0.00  0.00    -0.215 N 
ATOM      8  C   UNL     1       0.086  -6.301  -1.254  0.00  0.00    +0.133 C 
ATOM      9  C   UNL     1       0.062  -4.953  -1.254  0.00  0.00    +0.055 C 
ATOM     10  H   UNL     1       0.924  -8.759  -0.248  0.00  0.00    +0.146 HD
ATOM     11  H   UNL     1       0.063  -4.427   1.954  0.00  0.00    +0.167 HD
ENDROOT
BRANCH   1  16
ATOM     12  C   UNL     1      -0.018   1.503   0.010  0.00  0.00    +0.044 C 
ATOM     13  C   UNL     1       0.002  -0.004   0.002  0.00  0.00    -0.050 A 
ATOM     14  C   UNL     1       0.006  -0.686  -1.202  0.00  0.00    +0.004 A 
ATOM     15  C   UNL     1       0.024  -2.066  -1.216  0.00  0.00    +0.010 A 
ATOM     16  C   UNL     1       0.040  -2.773  -0.013  0.00  0.00    -0.002 A 
ATOM     17  C   UNL     1       0.037  -2.079   1.197  0.00  0.00    +0.010 A 
ATOM     18  C   UNL     1       0.023  -0.699   1.198  0.00  0.00    +0.004 A 
ENDBRANCH   1  16
BRANCH   8  19
ATOM     19  C   UNL     1       0.095  -7.058  -2.557  0.00  0.00    +0.432 C 
ATOM     20  F   UNL     1       0.083  -6.152  -3.623  0.00  0.00    -0.165 F 
ATOM     21  F   UNL     1       1.248  -7.848  -2.629  0.00  0.00    -0.165 F 
ATOM     22  F   UNL     1      -1.037  -7.877  -2.628  0.00  0.00    -0.165 F 
ENDBRANCH   8  19
BRANCH   5  23
ATOM     23  C   UNL     1      -1.111  -9.271   2.074  0.00  0.00    +0.236 C 
ATOM     24  O   UNL     1      -1.895  -9.687   1.248  0.00  0.00    -0.274 OA
ATOM     25  N   UNL     1      -1.335  -9.485   3.385  0.00  0.00    -0.311 N 
ATOM     26  H   UNL     1      -0.708  -9.152   4.046  0.00  0.00    +0.149 HD
BRANCH  25  27
ATOM     27  C   UNL     1      -2.528 -10.221   3.814  0.00  0.00    +0.133 C 
BRANCH  27  28
ATOM     28  C   UNL     1      -2.543 -10.323   5.340  0.00  0.00    +0.120 C 
ATOM     29  C   UNL     1      -3.665 -11.232   5.790  0.00  0.00    +0.009 C 
ATOM     30  C   UNL     1      -3.077 -12.255   6.452  0.00  0.00    -0.003 A 
ATOM     31  C   UNL     1      -3.614 -13.446   7.120  0.00  0.00    +0.029 A 
ATOM     32  C   UNL     1      -2.756 -14.310   7.710  0.00  0.00    +0.042 A 
ATOM     33  C   UNL     1      -1.370 -14.097   7.697  0.00  0.00    +0.022 A 
ATOM     34  C   UNL     1      -0.803 -13.025   7.104  0.00  0.00    +0.027 A 
ATOM     35  C   UNL     1      -1.611 -12.052   6.453  0.00  0.00    +0.043 A 
ATOM     36  N   UNL     1      -1.303 -10.946   5.817  0.00  0.00    -0.376 N 
ATOM     37 CL   UNL     1      -3.387 -15.720   8.502  0.00  0.00    -0.084 Cl
ATOM     38  H   UNL     1      -0.408 -10.598   5.685  0.00  0.00    +0.160 HD
ENDBRANCH  27  28
ENDBRANCH  25  27
ENDBRANCH   5  23
TORSDOF 5
