REMARK  Name = ZINC36894135
REMARK  6 active torsions:
REMARK  status: ('A' for Active; 'I' for Inactive)
REMARK    1  A    between atoms: C_4  and  S_10
REMARK    2  A    between atoms: C_6  and  C_7
REMARK    3  A    between atoms: S_10  and  C_13
REMARK    4  A    between atoms: C_13  and  C_14
REMARK    5  A    between atoms: N_16  and  C_17
REMARK    6  A    between atoms: C_17  and  C_18
REMARK                            x       y       z     vdW  Elec       q    Type
REMARK                         _______ _______ _______ _____ _____    ______ ____
ROOT
ATOM      1  S   UNL     1       3.947  -0.816  -0.042  0.00  0.00    +0.006 S 
ATOM      2  O   UNL     1       4.693  -0.240   1.022  0.00  0.00    -0.169 OA
ATOM      3  O   UNL     1       3.602  -2.194  -0.022  0.00  0.00    -0.169 OA
ENDROOT
BRANCH   1   7
ATOM      4  C   UNL     1      -0.017   1.393   0.010  0.00  0.00    +0.016 A 
ATOM      5  C   UNL     1       1.170   2.096   0.002  0.00  0.00    +0.018 A 
ATOM      6  C   UNL     1       2.378   1.419  -0.013  0.00  0.00    +0.043 A 
ATOM      7  C   UNL     1       2.404   0.035  -0.022  0.00  0.00    +0.103 A 
ATOM      8  C   UNL     1       1.225  -0.680  -0.014  0.00  0.00    +0.043 A 
ATOM      9  C   UNL     1       0.002  -0.004   0.002  0.00  0.00    +0.065 A 
ATOM     10 BR   UNL     1       4.000   2.391  -0.024  0.00  0.00    -0.048 Br
BRANCH   9  11
ATOM     11  C   UNL     1      -1.263  -0.762   0.011  0.00  0.00    +0.387 C 
ATOM     12  O   UNL     1      -2.332  -0.168   0.024  0.00  0.00    -0.241 OA
ATOM     13  O   UNL     1      -1.243  -1.985   0.004  0.00  0.00    -0.241 OA
ENDBRANCH   9  11
ENDBRANCH   1   7
BRANCH   1  14
ATOM     14  C   UNL     1       4.697  -0.383  -1.636  0.00  0.00    +0.267 C 
BRANCH  14  15
ATOM     15  C   UNL     1       6.036  -1.062  -1.763  0.00  0.00    +0.235 C 
ATOM     16  O   UNL     1       6.444  -1.769  -0.866  0.00  0.00    -0.274 OA
ATOM     17  N   UNL     1       6.780  -0.884  -2.873  0.00  0.00    -0.314 N 
ATOM     18  H   UNL     1       6.453  -0.319  -3.590  0.00  0.00    +0.149 HD
BRANCH  17  19
ATOM     19  C   UNL     1       8.082  -1.545  -2.995  0.00  0.00    +0.107 C 
BRANCH  19  20
ATOM     20  C   UNL     1       8.714  -1.180  -4.340  0.00  0.00    +0.006 C 
ATOM     21  C   UNL     1       8.949  -2.313  -5.341  0.00  0.00    +0.005 C 
ATOM     22  C   UNL     1      10.135  -1.679  -4.611  0.00  0.00    +0.005 C 
ENDBRANCH  19  20
ENDBRANCH  17  19
ENDBRANCH  14  15
ENDBRANCH   1  14
TORSDOF 6
