REMARK  Name = ZINC39698678
REMARK  8 active torsions:
REMARK  status: ('A' for Active; 'I' for Inactive)
REMARK    1  A    between atoms: C_1  and  C_2
REMARK    2  A    between atoms: C_2  and  C_14
REMARK    3  A    between atoms: N_3  and  N_4
REMARK    4  A    between atoms: N_4  and  C_5
REMARK    5  A    between atoms: C_17  and  S_20
REMARK    6  A    between atoms: S_20  and  N_23
REMARK    7  A    between atoms: N_23  and  C_24
REMARK    8  A    between atoms: C_27  and  C_30
REMARK                            x       y       z     vdW  Elec       q    Type
REMARK                         _______ _______ _______ _____ _____    ______ ____
ROOT
ATOM      1  C   UNL     1       2.714  -2.698  -0.597  0.00  0.00    -0.002 A 
ATOM      2  C   UNL     1       2.155  -1.574  -1.211  0.00  0.00    +0.011 A 
ATOM      3  C   UNL     1       1.468  -1.711  -2.399  0.00  0.00    +0.029 A 
ATOM      4  C   UNL     1       1.330  -2.958  -2.982  0.00  0.00    +0.109 A 
ATOM      5  C   UNL     1       1.881  -4.075  -2.380  0.00  0.00    +0.029 A 
ATOM      6  C   UNL     1       2.576  -3.953  -1.195  0.00  0.00    +0.011 A 
ENDROOT
BRANCH   1   8
ATOM      7  C   UNL     1       3.598  -1.204   1.315  0.00  0.00    +0.068 C 
ATOM      8  C   UNL     1       3.451  -2.559   0.673  0.00  0.00    +0.063 C 
ATOM      9  N   UNL     1       3.973  -3.604   1.237  0.00  0.00    -0.188 NA
BRANCH   9  10
ATOM     10  N   UNL     1       4.673  -3.473   2.443  0.00  0.00    -0.229 N 
ATOM     11  H   UNL     1       4.768  -2.600   2.857  0.00  0.00    +0.172 HD
BRANCH  10  12
ATOM     12  C   UNL     1       5.262  -4.653   3.081  0.00  0.00    +0.283 C 
ATOM     13  N   UNL     1       4.322  -5.222   4.055  0.00  0.00    -0.347 N 
ATOM     14  C   UNL     1       4.896  -5.178   5.223  0.00  0.00    +0.061 A 
ATOM     15  C   UNL     1       4.464  -5.594   6.564  0.00  0.00    +0.027 A 
ATOM     16  C   UNL     1       5.293  -5.421   7.613  0.00  0.00    +0.002 A 
ATOM     17  C   UNL     1       6.572  -4.852   7.483  0.00  0.00    +0.002 A 
ATOM     18  C   UNL     1       7.066  -4.436   6.299  0.00  0.00    +0.027 A 
ATOM     19  C   UNL     1       6.250  -4.576   5.085  0.00  0.00    +0.061 A 
ATOM     20  N   UNL     1       6.462  -4.271   3.837  0.00  0.00    -0.347 N 
ATOM     21  H   UNL     1       3.436  -5.567   3.863  0.00  0.00    +0.163 HD
ATOM     22  H   UNL     1       7.265  -3.866   3.473  0.00  0.00    +0.163 HD
ENDBRANCH  10  12
ENDBRANCH   9  10
ENDBRANCH   1   8
BRANCH   4  23
ATOM     23  S   UNL     1       0.450  -3.123  -4.500  0.00  0.00    +0.072 S 
ATOM     24  O   UNL     1      -0.112  -4.428  -4.503  0.00  0.00    -0.150 OA
ATOM     25  O   UNL     1      -0.343  -1.952  -4.639  0.00  0.00    -0.150 OA
BRANCH  23  26
ATOM     26  N   UNL     1       1.568  -3.086  -5.721  0.00  0.00    -0.216 N 
ATOM     27  H   UNL     1       1.709  -3.872  -6.272  0.00  0.00    +0.174 HD
BRANCH  26  28
ATOM     28  C   UNL     1       2.302  -1.931  -5.956  0.00  0.00    +0.048 A 
ATOM     29  C   UNL     1       1.698  -0.837  -6.572  0.00  0.00    +0.025 A 
ATOM     30  C   UNL     1       2.417   0.300  -6.804  0.00  0.00    +0.017 A 
ATOM     31  C   UNL     1       3.762   0.366  -6.423  0.00  0.00    +0.063 A 
ATOM     32  C   UNL     1       4.366  -0.735  -5.804  0.00  0.00    +0.017 A 
ATOM     33  C   UNL     1       3.639  -1.867  -5.570  0.00  0.00    +0.025 A 
BRANCH  31  34
ATOM     34  C   UNL     1       4.540   1.590  -6.673  0.00  0.00    +0.387 C 
ATOM     35  O   UNL     1       4.011   2.552  -7.214  0.00  0.00    -0.241 OA
ATOM     36  O   UNL     1       5.716   1.646  -6.339  0.00  0.00    -0.241 OA
ENDBRANCH  31  34
ENDBRANCH  26  28
ENDBRANCH  23  26
ENDBRANCH   4  23
TORSDOF 7
