REMARK  Name = ZINC39164372
REMARK  7 active torsions:
REMARK  status: ('A' for Active; 'I' for Inactive)
REMARK    1  A    between atoms: C_1  and  C_2
REMARK    2  A    between atoms: C_2  and  C_3
REMARK    3  A    between atoms: C_9  and  C_21
REMARK    4  A    between atoms: C_11  and  S_12
REMARK    5  A    between atoms: S_12  and  C_13
REMARK    6  A    between atoms: C_14  and  C_20
REMARK    7  A    between atoms: C_17  and  O_19
REMARK                            x       y       z     vdW  Elec       q    Type
REMARK                         _______ _______ _______ _____ _____    ______ ____
ROOT
ATOM      1  C   UNL     1       0.739  -0.336  -1.255  0.00  0.00    -0.008 A 
ATOM      2  C   UNL     1       2.034  -0.648  -1.413  0.00  0.00    +0.024 A 
ATOM      3  C   UNL     1       2.511  -1.054  -2.724  0.00  0.00    +0.040 A 
ATOM      4  C   UNL     1       1.523  -1.078  -3.734  0.00  0.00    +0.113 A 
ATOM      5  S   UNL     1       0.051  -0.575  -2.882  0.00  0.00    -0.074 S 
ATOM      6  N   UNL     1       1.814  -1.427  -4.971  0.00  0.00    -0.225 NA
ATOM      7  C   UNL     1       3.047  -1.766  -5.296  0.00  0.00    +0.128 A 
ATOM      8  N   UNL     1       4.020  -1.766  -4.404  0.00  0.00    -0.225 NA
ATOM      9  C   UNL     1       3.817  -1.429  -3.140  0.00  0.00    +0.113 A 
ATOM     10  C   UNL     1       3.351  -2.161  -6.718  0.00  0.00    +0.088 C 
ENDROOT
BRANCH   1  12
ATOM     11  C   UNL     1       0.080   1.632   0.102  0.00  0.00    +0.009 C 
ATOM     12  C   UNL     1       0.033   0.106   0.000  0.00  0.00    +0.039 C 
ENDBRANCH   1  12
BRANCH   9  13
ATOM     13  S   UNL     1       5.151  -1.445  -1.988  0.00  0.00    -0.067 S 
BRANCH  13  14
ATOM     14  C   UNL     1       6.562  -1.815  -2.975  0.00  0.00    +0.066 C 
ATOM     15  C   UNL     1       7.348  -2.917  -2.934  0.00  0.00    +0.074 C 
ATOM     16  N   UNL     1       8.324  -2.833  -3.841  0.00  0.00    -0.155 NA
ATOM     17  N   UNL     1       8.321  -1.802  -4.517  0.00  0.00    -0.150 NA
ATOM     18  C   UNL     1       7.183  -0.975  -4.079  0.00  0.00    +0.294 C 
ATOM     19  C   UNL     1       7.148  -4.077  -1.994  0.00  0.00    +0.068 C 
BRANCH  18  20
ATOM     20  O   UNL     1       7.639   0.278  -3.566  0.00  0.00    -0.365 OA
ATOM     21  H   UNL     1       8.044   0.852  -4.231  0.00  0.00    +0.212 HD
ENDBRANCH  18  20
ENDBRANCH  13  14
ENDBRANCH   9  13
TORSDOF 4
