REMARK  Name = ZINC05626003
REMARK  5 active torsions:
REMARK  status: ('A' for Active; 'I' for Inactive)
REMARK    1  A    between atoms: C_1  and  C_2
REMARK    2  A    between atoms: C_5  and  N_8
REMARK    3  A    between atoms: C_12  and  N_13
REMARK    4  A    between atoms: N_13  and  C_14
REMARK    5  A    between atoms: C_14  and  C_15
REMARK                            x       y       z     vdW  Elec       q    Type
REMARK                         _______ _______ _______ _____ _____    ______ ____
ROOT
ATOM      1  N   UNL     1       0.159  -4.168  -0.025  0.00  0.00    -0.217 N 
ATOM      2  C   UNL     1       0.251  -4.834   1.144  0.00  0.00    +0.263 C 
ATOM      3  O   UNL     1       0.367  -4.235   2.197  0.00  0.00    -0.269 OA
ATOM      4  C   UNL     1       0.208  -6.307   1.113  0.00  0.00    +0.113 C 
ATOM      5  C   UNL     1       0.296  -7.056   2.271  0.00  0.00    +0.086 C 
ATOM      6  C   UNL     1       0.065  -6.946  -0.208  0.00  0.00    +0.256 C 
ATOM      7  O   UNL     1       0.021  -8.157  -0.315  0.00  0.00    -0.270 OA
ATOM      8  N   UNL     1      -0.016  -6.151  -1.295  0.00  0.00    -0.263 N 
ATOM      9  C   UNL     1       0.026  -4.816  -1.192  0.00  0.00    +0.150 C 
ATOM     10  S   UNL     1      -0.091  -3.887  -2.625  0.00  0.00    -0.018 S 
ATOM     11  H   UNL     1      -0.110  -6.556  -2.172  0.00  0.00    +0.157 HD
ENDROOT
BRANCH   1  16
ATOM     12  C   UNL     1       0.316   1.504  -0.003  0.00  0.00    +0.044 C 
ATOM     13  C   UNL     1       0.275  -0.002  -0.009  0.00  0.00    -0.050 A 
ATOM     14  C   UNL     1      -0.924  -0.660   0.199  0.00  0.00    +0.005 A 
ATOM     15  C   UNL     1      -0.965  -2.041   0.195  0.00  0.00    +0.024 A 
ATOM     16  C   UNL     1       0.198  -2.768  -0.020  0.00  0.00    +0.043 A 
ATOM     17  C   UNL     1       1.399  -2.104  -0.230  0.00  0.00    +0.024 A 
ATOM     18  C   UNL     1       1.433  -0.724  -0.230  0.00  0.00    +0.005 A 
ENDBRANCH   1  16
BRANCH   5  19
ATOM     19  N   UNL     1       0.291  -6.444   3.472  0.00  0.00    -0.345 N 
ATOM     20  H   UNL     1       0.137  -5.488   3.528  0.00  0.00    +0.146 HD
BRANCH  19  21
ATOM     21  C   UNL     1       0.519  -7.223   4.692  0.00  0.00    +0.136 C 
BRANCH  21  22
ATOM     22  C   UNL     1       0.464  -6.308   5.889  0.00  0.00    -0.027 A 
ATOM     23  C   UNL     1       1.615  -5.690   6.338  0.00  0.00    +0.009 A 
ATOM     24  C   UNL     1       1.570  -4.850   7.435  0.00  0.00    +0.050 A 
ATOM     25  C   UNL     1       0.368  -4.627   8.088  0.00  0.00    +0.166 A 
ATOM     26  C   UNL     1      -0.792  -5.250   7.635  0.00  0.00    +0.167 A 
ATOM     27  C   UNL     1      -0.740  -6.086   6.531  0.00  0.00    +0.054 A 
ATOM     28  O   UNL     1      -1.831  -4.873   8.437  0.00  0.00    -0.453 OA
ATOM     29  C   UNL     1      -1.223  -4.338   9.627  0.00  0.00    +0.466 C 
ATOM     30  O   UNL     1       0.057  -3.859   9.173  0.00  0.00    -0.453 OA
ENDBRANCH  21  22
ENDBRANCH  19  21
ENDBRANCH   5  19
TORSDOF 4
