REMARK  Name = ZINC04030702
REMARK  8 active torsions:
REMARK  status: ('A' for Active; 'I' for Inactive)
REMARK    1  A    between atoms: C_1  and  C_2
REMARK    2  A    between atoms: C_2  and  C_5
REMARK    3  A    between atoms: N_3  and  O_4
REMARK    4  A    between atoms: C_10  and  C_32
REMARK    5  A    between atoms: C_21  and  C_31
REMARK    6  A    between atoms: C_24  and  O_27
REMARK    7  A    between atoms: O_27  and  C_28
REMARK    8  A    between atoms: C_28  and  C_30
REMARK                            x       y       z     vdW  Elec       q    Type
REMARK                         _______ _______ _______ _____ _____    ______ ____
ROOT
ATOM      1  C   UNL     1       0.001  -0.746  -1.266  0.00  0.00    -0.021 C 
ATOM      2  C   UNL     1       0.074  -0.197  -2.481  0.00  0.00    -0.021 C 
ATOM      3  C   UNL     1       0.044  -1.281  -3.543  0.00  0.00    +0.032 C 
ATOM      4  C   UNL     1      -0.655  -2.472  -2.812  0.00  0.00    +0.006 C 
ATOM      5  C   UNL     1      -0.077  -2.244  -1.399  0.00  0.00    -0.002 C 
ATOM      6  C   UNL     1      -0.881  -2.904  -0.306  0.00  0.00    +0.012 C 
ATOM      7  C   UNL     1      -2.359  -2.526  -0.394  0.00  0.00    +0.005 C 
ATOM      8  C   UNL     1      -2.890  -2.968  -1.764  0.00  0.00    -0.001 C 
ATOM      9  C   UNL     1      -2.157  -2.183  -2.869  0.00  0.00    -0.003 C 
ATOM     10  C   UNL     1      -2.689  -2.567  -4.252  0.00  0.00    +0.004 C 
ATOM     11  C   UNL     1      -4.180  -2.241  -4.338  0.00  0.00    +0.004 C 
ATOM     12  C   UNL     1      -4.651  -1.649  -3.008  0.00  0.00    -0.001 C 
ATOM     13  C   UNL     1      -4.393  -2.680  -1.826  0.00  0.00    -0.026 C 
ATOM     14  C   UNL     1      -4.853  -2.113  -0.481  0.00  0.00    +0.011 C 
ATOM     15  C   UNL     1      -6.352  -1.813  -0.538  0.00  0.00    +0.045 C 
ATOM     16  C   UNL     1      -6.626  -0.791  -1.643  0.00  0.00    +0.177 C 
ATOM     17  C   UNL     1      -6.146  -1.333  -3.094  0.00  0.00    +0.048 C 
ATOM     18  C   UNL     1      -5.149  -3.976  -2.125  0.00  0.00    +0.012 C 
ATOM     19  C   UNL     1       1.344  -2.810  -1.354  0.00  0.00    +0.016 C 
ENDROOT
BRANCH   1  21
ATOM     20  C   UNL     1       1.234   0.001   0.871  0.00  0.00    +0.069 C 
ATOM     21  C   UNL     1       0.002  -0.004   0.002  0.00  0.00    +0.080 C 
ATOM     22  N   UNL     1      -1.056   0.645   0.373  0.00  0.00    -0.092 NA
BRANCH  22  23
ATOM     23  O   UNL     1      -2.168   0.744  -0.497  0.00  0.00    -0.409 OA
ATOM     24  H   UNL     1      -2.878   1.310  -0.165  0.00  0.00    +0.328 HD
ENDBRANCH  22  23
ENDBRANCH   1  21
BRANCH  16  25
ATOM     25  O   UNL     1      -8.026  -0.509  -1.695  0.00  0.00    -0.462 OA
BRANCH  25  26
ATOM     26  C   UNL     1      -8.473   0.500  -0.932  0.00  0.00    +0.304 C 
ATOM     27  O   UNL     1      -7.702   1.124  -0.242  0.00  0.00    -0.251 OA
ATOM     28  C   UNL     1      -9.938   0.856  -0.935  0.00  0.00    +0.136 C 
ENDBRANCH  25  26
ENDBRANCH  16  25
TORSDOF 4
