REMARK  Name = ZINC36903756
REMARK  3 active torsions:
REMARK  status: ('A' for Active; 'I' for Inactive)
REMARK    1  A    between atoms: C_4  and  O_17
REMARK    2  A    between atoms: C_5  and  C_7
REMARK    3  A    between atoms: O_17  and  C_18
REMARK                            x       y       z     vdW  Elec       q    Type
REMARK                         _______ _______ _______ _____ _____    ______ ____
ROOT
ATOM      1  C   UNL     1      -0.017   1.375   0.010  0.00  0.00    +0.001 A 
ATOM      2  C   UNL     1       1.169   2.089   0.002  0.00  0.00    +0.004 A 
ATOM      3  C   UNL     1       2.383   1.427  -0.013  0.00  0.00    +0.046 A 
ATOM      4  C   UNL     1       2.419   0.043  -0.021  0.00  0.00    +0.138 A 
ATOM      5  C   UNL     1       1.221  -0.683  -0.014  0.00  0.00    +0.063 A 
ATOM      6  C   UNL     1       0.002  -0.004   0.002  0.00  0.00    +0.015 A 
ENDROOT
BRANCH   5   7
ATOM      7  C   UNL     1       1.248  -2.160  -0.023  0.00  0.00    +0.189 A 
ATOM      8  N   UNL     1       2.325  -2.923  -0.032  0.00  0.00    -0.127 NA
ATOM      9  N   UNL     1       1.988  -4.165  -0.037  0.00  0.00    -0.128 NA
ATOM     10  C   UNL     1       0.668  -4.268  -0.032  0.00  0.00    +0.178 A 
ATOM     11  N   UNL     1       0.165  -2.989  -0.017  0.00  0.00    -0.191 N 
ATOM     12  N   UNL     1      -1.216  -2.780  -0.003  0.00  0.00    -0.151 NA
ATOM     13  C   UNL     1      -2.041  -3.795  -0.001  0.00  0.00    +0.150 A 
ATOM     14  C   UNL     1      -1.563  -5.113  -0.013  0.00  0.00    +0.045 A 
ATOM     15  C   UNL     1      -0.224  -5.356  -0.034  0.00  0.00    +0.053 A 
ATOM     16 CL   UNL     1      -3.753  -3.505   0.017  0.00  0.00    -0.060 Cl
ENDBRANCH   5   7
BRANCH   4  17
ATOM     17  O   UNL     1       3.611  -0.609  -0.037  0.00  0.00    -0.434 OA
BRANCH  17  18
ATOM     18  C   UNL     1       4.790   0.198  -0.044  0.00  0.00    +0.541 C 
ATOM     19  F   UNL     1       4.792   1.012  -1.182  0.00  0.00    -0.166 F 
ATOM     20  F   UNL     1       4.815   0.999   1.102  0.00  0.00    -0.166 F 
ENDBRANCH  17  18
ENDBRANCH   4  17
TORSDOF 3
