REMARK  Name = ZINC08763149
REMARK  4 active torsions:
REMARK  status: ('A' for Active; 'I' for Inactive)
REMARK    1  A    between atoms: C_4  and  C_7
REMARK    2  A    between atoms: C_7  and  N_8
REMARK    3  A    between atoms: C_19  and  N_21
REMARK    4  A    between atoms: N_24  and  C_25
REMARK                            x       y       z     vdW  Elec       q    Type
REMARK                         _______ _______ _______ _____ _____    ______ ____
ROOT
ATOM      1  N   UNL     1       3.934  -0.727   1.525  0.00  0.00    -0.295 N 
ATOM      2  C   UNL     1       5.061  -1.449   1.685  0.00  0.00    +0.303 C 
ATOM      3  O   UNL     1       5.660  -1.865   0.712  0.00  0.00    -0.253 OA
ATOM      4  N   UNL     1       5.525  -1.710   2.923  0.00  0.00    -0.279 N 
ATOM      5  C   UNL     1       4.943  -1.302   4.225  0.00  0.00    +0.080 C 
ATOM      6  C   UNL     1       5.095  -2.555   5.119  0.00  0.00    +0.024 C 
ATOM      7  C   UNL     1       6.283  -3.330   4.511  0.00  0.00    +0.024 C 
ATOM      8  C   UNL     1       6.734  -2.478   3.307  0.00  0.00    +0.080 C 
ATOM      9  C   UNL     1       7.775  -1.467   3.813  0.00  0.00    +0.045 C 
ATOM     10  C   UNL     1       7.237  -0.794   5.080  0.00  0.00    +0.078 C 
ATOM     11  C   UNL     1       5.836  -0.189   4.796  0.00  0.00    +0.045 C 
ATOM     12  H   UNL     1       3.457  -0.395   2.302  0.00  0.00    +0.151 HD
ENDROOT
BRANCH  10  13
ATOM     13  N   UNL     1       7.133  -1.786   6.152  0.00  0.00    -0.296 N 
ATOM     14  C   UNL     1       7.827  -1.619   7.295  0.00  0.00    +0.300 C 
ATOM     15  O   UNL     1       8.541  -0.645   7.436  0.00  0.00    -0.253 OA
ATOM     16  N   UNL     1       7.731  -2.532   8.282  0.00  0.00    -0.294 N 
ATOM     17  H   UNL     1       6.563  -2.563   6.040  0.00  0.00    +0.151 HD
ATOM     18  H   UNL     1       7.162  -3.309   8.169  0.00  0.00    +0.151 HD
BRANCH  16  19
ATOM     19  C   UNL     1       8.486  -2.351   9.524  0.00  0.00    +0.037 C 
ATOM     20  C   UNL     1       8.065  -1.040  10.190  0.00  0.00    +0.029 C 
ATOM     21  C   UNL     1       8.853  -0.850  11.488  0.00  0.00    -0.008 C 
ATOM     22  C   UNL     1       8.568  -2.019  12.433  0.00  0.00    +0.007 C 
ATOM     23  C   UNL     1       8.990  -3.329  11.767  0.00  0.00    -0.008 C 
ATOM     24  C   UNL     1       8.201  -3.519  10.470  0.00  0.00    +0.029 C 
ATOM     25  C   UNL     1      10.486  -3.283  11.451  0.00  0.00    +0.007 C 
ATOM     26  C   UNL     1      10.772  -2.115  10.506  0.00  0.00    -0.008 C 
ATOM     27  C   UNL     1      10.350  -0.804  11.172  0.00  0.00    +0.007 C 
ATOM     28  C   UNL     1       9.983  -2.304   9.208  0.00  0.00    +0.029 C 
ENDBRANCH  16  19
ENDBRANCH  10  13
BRANCH   1  29
ATOM     29  C   UNL     1       3.431  -0.443   0.179  0.00  0.00    +0.141 C 
BRANCH  29  33
ATOM     30  C   UNL     1      -0.148   1.873   0.455  0.00  0.00    +0.000 A 
ATOM     31  C   UNL     1       1.080   2.504   0.381  0.00  0.00    +0.000 A 
ATOM     32  C   UNL     1       2.238   1.755   0.292  0.00  0.00    +0.005 A 
ATOM     33  C   UNL     1       2.168   0.374   0.277  0.00  0.00    -0.030 A 
ATOM     34  C   UNL     1       0.941  -0.257   0.353  0.00  0.00    +0.005 A 
ATOM     35  C   UNL     1      -0.218   0.493   0.440  0.00  0.00    +0.000 A 
ENDBRANCH  29  33
ENDBRANCH   1  29
TORSDOF 4
