REMARK  Name = ZINC13495973
REMARK  15 active torsions:
REMARK  status: ('A' for Active; 'I' for Inactive)
REMARK    1  A    between atoms: C_1  and  C_2
REMARK    2  A    between atoms: C_2  and  C_3
REMARK    3  A    between atoms: C_3  and  C_5
REMARK    4  A    between atoms: C_3  and  N_77
REMARK    5  A    between atoms: N_9  and  C_10
REMARK    6  A    between atoms: C_15  and  C_16
REMARK    7  A    between atoms: C_15  and  N_77
REMARK    8  A    between atoms: C_16  and  C_17
REMARK    9  A    between atoms: C_20  and  O_25
REMARK   10  A    between atoms: C_21  and  O_23
REMARK   11  A    between atoms: O_23  and  C_24
REMARK   12  A    between atoms: O_25  and  C_26
REMARK   13  A    between atoms: C_27  and  C_28
REMARK   14  A    between atoms: C_27  and  N_77
REMARK   15  A    between atoms: C_32  and  C_40
REMARK                            x       y       z     vdW  Elec       q    Type
REMARK                         _______ _______ _______ _____ _____    ______ ____
ROOT
ATOM      1  N   UNL     1       0.157  -0.347   1.033  0.00  0.00    +0.389 N 
ATOM      2  H   UNL     1      -0.846  -0.340   1.250  0.00  0.00    -0.080 HD
ENDROOT
BRANCH   1   3
ATOM      3  C   UNL     1       0.884   0.377   2.097  0.00  0.00    +0.003 C 
BRANCH   3   4
ATOM      4  C   UNL     1       2.283  -0.164   2.239  0.00  0.00    +0.138 A 
ATOM      5  N   UNL     1       2.619  -1.384   2.581  0.00  0.00    -0.115 NA
ATOM      6  N   UNL     1       3.906  -1.454   2.590  0.00  0.00    -0.023 NA
ATOM      7  N   UNL     1       4.399  -0.311   2.264  0.00  0.00    -0.044 NA
ATOM      8  N   UNL     1       3.430   0.510   2.034  0.00  0.00    -0.228 N 
BRANCH   8   9
ATOM      9  C   UNL     1       3.555   1.912   1.629  0.00  0.00    +0.111 C 
ATOM     10  C   UNL     1       4.356   2.014   0.315  0.00  0.00    +0.027 C 
ATOM     11  C   UNL     1       5.205   3.299   0.486  0.00  0.00    +0.002 C 
ATOM     12  C   UNL     1       5.602   3.250   1.982  0.00  0.00    +0.002 C 
ATOM     13  C   UNL     1       4.347   2.698   2.689  0.00  0.00    +0.027 C 
ENDBRANCH   8   9
ENDBRANCH   3   4
BRANCH   3  15
ATOM     14  C   UNL     1      -1.221   0.908   3.334  0.00  0.00    +0.002 C 
ATOM     15  C   UNL     1       0.129   0.193   3.415  0.00  0.00    -0.011 C 
ENDBRANCH   3  15
ENDBRANCH   1   3
BRANCH   1  16
ATOM     16  C   UNL     1       0.623  -1.748   0.966  0.00  0.00    -0.073 C 
BRANCH  16  17
ATOM     17  C   UNL     1       0.116  -2.495   2.201  0.00  0.00    +0.017 C 
BRANCH  17  18
ATOM     18  C   UNL     1       0.429  -3.963   2.065  0.00  0.00    -0.045 A 
ATOM     19  C   UNL     1      -0.485  -4.811   1.468  0.00  0.00    +0.007 A 
ATOM     20  C   UNL     1      -0.200  -6.157   1.336  0.00  0.00    +0.049 A 
ATOM     21  C   UNL     1       1.000  -6.661   1.811  0.00  0.00    +0.161 A 
ATOM     22  C   UNL     1       1.918  -5.809   2.417  0.00  0.00    +0.162 A 
ATOM     23  C   UNL     1       1.628  -4.459   2.542  0.00  0.00    +0.053 A 
BRANCH  22  24
ATOM     24  O   UNL     1       3.097  -6.299   2.885  0.00  0.00    -0.491 OA
ATOM     25  C   UNL     1       3.991  -5.365   3.495  0.00  0.00    +0.277 C 
ENDBRANCH  22  24
BRANCH  21  26
ATOM     26  O   UNL     1       1.280  -7.986   1.686  0.00  0.00    -0.491 OA
ATOM     27  C   UNL     1       0.290  -8.801   1.054  0.00  0.00    +0.277 C 
ENDBRANCH  21  26
ENDBRANCH  17  18
ENDBRANCH  16  17
ENDBRANCH   1  16
BRANCH   1  28
ATOM     28  C   UNL     1       0.372   0.319  -0.269  0.00  0.00    -0.037 C 
BRANCH  28  29
ATOM     29  C   UNL     1      -0.419   1.602  -0.293  0.00  0.00    +0.001 A 
ATOM     30  C   UNL     1       0.177   2.769   0.053  0.00  0.00    +0.017 A 
ATOM     31  C   UNL     1      -0.619   3.998   0.020  0.00  0.00    -0.001 A 
ATOM     32  C   UNL     1      -0.059   5.232   0.366  0.00  0.00    +0.013 A 
ATOM     33  C   UNL     1      -0.828   6.360   0.324  0.00  0.00    -0.050 A 
ATOM     34  C   UNL     1      -2.161   6.292  -0.059  0.00  0.00    +0.005 A 
ATOM     35  C   UNL     1      -2.733   5.087  -0.405  0.00  0.00    +0.026 A 
ATOM     36  C   UNL     1      -1.969   3.925  -0.369  0.00  0.00    +0.049 A 
ATOM     37  N   UNL     1      -2.516   2.706  -0.710  0.00  0.00    -0.322 N 
ATOM     38  H   UNL     1      -3.447   2.658  -0.977  0.00  0.00    +0.169 HD
ATOM     39  C   UNL     1      -1.776   1.584  -0.681  0.00  0.00    +0.251 A 
ATOM     40  O   UNL     1      -2.291   0.524  -0.993  0.00  0.00    -0.268 OA
ATOM     41  C   UNL     1      -0.225   7.690   0.697  0.00  0.00    +0.044 C 
ENDBRANCH  28  29
ENDBRANCH   1  28
TORSDOF 11
