REMARK  Name = ZINC33636229
REMARK  10 active torsions:
REMARK  status: ('A' for Active; 'I' for Inactive)
REMARK    1  A    between atoms: C_1  and  C_2
REMARK    2  A    between atoms: C_2  and  C_3
REMARK    3  A    between atoms: C_6  and  N_9
REMARK    4  A    between atoms: C_14  and  C_33
REMARK    5  A    between atoms: C_17  and  C_22
REMARK    6  A    between atoms: C_17  and  C_30
REMARK    7  A    between atoms: C_22  and  C_23
REMARK    8  A    between atoms: C_26  and  O_29
REMARK    9  A    between atoms: C_35  and  C_40
REMARK   10  A    between atoms: C_38  and  C_39
REMARK                            x       y       z     vdW  Elec       q    Type
REMARK                         _______ _______ _______ _____ _____    ______ ____
ROOT
ATOM      1  N   UNL     1      -6.196  -1.730   0.972  0.00  0.00    -0.210 N 
ATOM      2  C   UNL     1      -6.636  -1.985  -0.300  0.00  0.00    +0.229 C 
ATOM      3  O   UNL     1      -5.978  -1.992  -1.319  0.00  0.00    -0.275 OA
ATOM      4  C   UNL     1      -8.084  -2.252  -0.168  0.00  0.00    +0.077 C 
ATOM      5  C   UNL     1      -8.882  -3.285  -0.926  0.00  0.00    -0.026 C 
ATOM      6  N   UNL     1      -9.981  -3.619   0.043  0.00  0.00    +0.396 N 
ATOM      7  C   UNL     1      -9.469  -3.328   1.422  0.00  0.00    +0.052 C 
ATOM      8  C   UNL     1      -8.035  -2.995   1.225  0.00  0.00    +0.086 C 
ATOM      9  C   UNL     1      -7.096  -2.125   1.930  0.00  0.00    +0.229 C 
ATOM     10  O   UNL     1      -7.110  -1.819   3.103  0.00  0.00    -0.275 OA
ATOM     11  H   UNL     1     -10.864  -3.001  -0.177  0.00  0.00    -0.083 HD
ATOM     12  H   UNL     1     -10.245  -4.682  -0.054  0.00  0.00    -0.083 HD
ENDROOT
BRANCH   5  13
ATOM     13  C   UNL     1      -9.446  -2.701  -2.196  0.00  0.00    -0.057 A 
ATOM     14  C   UNL     1      -9.468  -1.331  -2.376  0.00  0.00    +0.005 A 
ATOM     15  C   UNL     1      -9.985  -0.795  -3.541  0.00  0.00    -0.050 A 
ATOM     16  C   UNL     1     -10.481  -1.630  -4.525  0.00  0.00    +0.003 A 
ATOM     17  C   UNL     1     -10.458  -3.001  -4.345  0.00  0.00    +0.004 A 
ATOM     18  C   UNL     1      -9.937  -3.536  -3.182  0.00  0.00    -0.049 A 
ATOM     19  C   UNL     1      -9.908  -5.030  -2.987  0.00  0.00    +0.044 C 
ATOM     20  C   UNL     1     -10.010   0.698  -3.737  0.00  0.00    +0.044 C 
ENDBRANCH   5  13
BRANCH   1  24
ATOM     21  C   UNL     1      -2.533   0.062   1.839  0.00  0.00    -0.048 A 
ATOM     22  C   UNL     1      -3.380  -0.309   2.867  0.00  0.00    +0.005 A 
ATOM     23  C   UNL     1      -4.596  -0.899   2.583  0.00  0.00    +0.024 A 
ATOM     24  C   UNL     1      -4.964  -1.128   1.263  0.00  0.00    +0.044 A 
ATOM     25  C   UNL     1      -4.109  -0.758   0.234  0.00  0.00    +0.024 A 
ATOM     26  C   UNL     1      -2.897  -0.164   0.524  0.00  0.00    +0.005 A 
BRANCH  21  28
ATOM     27  C   UNL     1      -1.385   2.229   2.206  0.00  0.00    +0.009 C 
ATOM     28  C   UNL     1      -1.209   0.711   2.152  0.00  0.00    +0.032 C 
ENDBRANCH  21  28
ENDBRANCH   1  24
BRANCH   7  29
ATOM     29  C   UNL     1      -9.610  -4.544   2.302  0.00  0.00    +0.347 C 
ATOM     30  O   UNL     1      -8.734  -4.828   3.084  0.00  0.00    -0.248 OA
ATOM     31  O   UNL     1     -10.709  -5.310   2.216  0.00  0.00    -0.248 OA
ENDBRANCH   7  29
BRANCH   7  32
ATOM     32  C   UNL     1     -10.215  -2.139   2.029  0.00  0.00    +0.035 C 
BRANCH  32  33
ATOM     33  C   UNL     1     -11.665  -2.499   2.219  0.00  0.00    -0.048 A 
ATOM     34  C   UNL     1     -12.576  -2.252   1.209  0.00  0.00    +0.007 A 
ATOM     35  C   UNL     1     -13.906  -2.587   1.378  0.00  0.00    +0.045 A 
ATOM     36  C   UNL     1     -14.329  -3.162   2.568  0.00  0.00    +0.117 A 
ATOM     37  C   UNL     1     -13.414  -3.404   3.583  0.00  0.00    +0.045 A 
ATOM     38  C   UNL     1     -12.085  -3.072   3.406  0.00  0.00    +0.007 A 
BRANCH  36  39
ATOM     39  O   UNL     1     -15.637  -3.488   2.740  0.00  0.00    -0.507 OA
ATOM     40  H   UNL     1     -15.971  -3.943   3.683  0.00  0.00    +0.292 HD
ENDBRANCH  36  39
ENDBRANCH  32  33
ENDBRANCH   7  32
TORSDOF 7
