REMARK  Name = ZINC53630148
REMARK  10 active torsions:
REMARK  status: ('A' for Active; 'I' for Inactive)
REMARK    1  A    between atoms: C_1  and  C_2
REMARK    2  A    between atoms: C_13  and  C_15
REMARK    3  A    between atoms: C_15  and  C_16
REMARK    4  A    between atoms: N_18  and  C_19
REMARK    5  A    between atoms: C_19  and  C_20
REMARK    6  A    between atoms: C_20  and  C_21
REMARK    7  A    between atoms: C_28  and  C_29
REMARK    8  A    between atoms: C_29  and  C_30
REMARK    9  A    between atoms: C_29  and  C_31
REMARK   10  A    between atoms: C_29  and  C_32
REMARK                            x       y       z     vdW  Elec       q    Type
REMARK                         _______ _______ _______ _____ _____    ______ ____
ROOT
ATOM      1  C   UNL     1      -0.019   1.526   0.010  0.00  0.00    +0.013 C 
ATOM      2  C   UNL     1       0.002  -0.004   0.002  0.00  0.00    +0.034 C 
ATOM      3  C   UNL     1      -1.414  -0.524   0.009  0.00  0.00    -0.001 A 
ATOM      4  C   UNL     1      -2.347   0.130  -0.755  0.00  0.00    +0.019 A 
ATOM      5  C   UNL     1      -3.665  -0.318  -0.786  0.00  0.00    +0.024 A 
ATOM      6  C   UNL     1      -4.044  -1.443  -0.035  0.00  0.00    +0.139 A 
ATOM      7  C   UNL     1      -3.092  -2.094   0.735  0.00  0.00    +0.093 A 
ATOM      8  C   UNL     1      -1.782  -1.634   0.758  0.00  0.00    +0.139 A 
ATOM      9  O   UNL     1      -0.887  -2.296   1.544  0.00  0.00    -0.425 OA
ATOM     10  C   UNL     1       0.415  -1.979   1.408  0.00  0.00    +0.316 C 
ATOM     11  O   UNL     1       1.277  -2.826   1.418  0.00  0.00    -0.250 OA
ATOM     12  C   UNL     1       0.747  -0.510   1.241  0.00  0.00    +0.114 C 
ATOM     13  O   UNL     1      -5.359  -1.647  -0.255  0.00  0.00    -0.463 OA
ATOM     14  C   UNL     1      -5.853  -0.723  -1.098  0.00  0.00    +0.200 A 
ATOM     15  C   UNL     1      -4.886   0.127  -1.470  0.00  0.00    +0.003 A 
ENDROOT
BRANCH  15  16
ATOM     16  C   UNL     1      -5.023   1.302  -2.403  0.00  0.00    -0.009 C 
ATOM     17  C   UNL     1      -6.471   1.401  -2.889  0.00  0.00    +0.015 C 
ATOM     18  C   UNL     1      -4.644   2.587  -1.664  0.00  0.00    +0.015 C 
ATOM     19  C   UNL     1      -4.094   1.111  -3.604  0.00  0.00    +0.015 C 
ENDBRANCH  15  16
BRANCH  12  20
ATOM     20  C   UNL     1       0.289   0.270   2.476  0.00  0.00    +0.111 C 
BRANCH  20  21
ATOM     21  C   UNL     1       1.113  -0.147   3.667  0.00  0.00    +0.214 C 
ATOM     22  O   UNL     1       1.980  -0.986   3.541  0.00  0.00    -0.276 OA
ATOM     23  N   UNL     1       0.885   0.411   4.872  0.00  0.00    -0.315 N 
ATOM     24  H   UNL     1       0.192   1.082   4.973  0.00  0.00    +0.149 HD
BRANCH  23  25
ATOM     25  C   UNL     1       1.686   0.005   6.030  0.00  0.00    +0.110 C 
BRANCH  25  26
ATOM     26  C   UNL     1       1.228   0.785   7.265  0.00  0.00    +0.073 C 
BRANCH  26  27
ATOM     27  C   UNL     1       2.052   0.367   8.456  0.00  0.00    +0.035 A 
ATOM     28  N   UNL     1       3.176   0.989   8.929  0.00  0.00    -0.350 N 
ATOM     29  C   UNL     1       3.595   0.291  10.006  0.00  0.00    +0.171 A 
ATOM     30  N   UNL     1       2.781  -0.711  10.198  0.00  0.00    -0.352 N 
ATOM     31  C   UNL     1       1.819  -0.685   9.263  0.00  0.00    +0.105 A 
ATOM     32  H   UNL     1       3.594   1.782   8.559  0.00  0.00    +0.166 HD
ATOM     33  H   UNL     1       2.857  -1.368  10.908  0.00  0.00    +0.166 HD
ENDBRANCH  26  27
ENDBRANCH  25  26
ENDBRANCH  23  25
ENDBRANCH  20  21
ENDBRANCH  12  20
TORSDOF 6
