REMARK  Name = ZINC22610098
REMARK  4 active torsions:
REMARK  status: ('A' for Active; 'I' for Inactive)
REMARK    1  A    between atoms: C_4  and  N_7
REMARK    2  A    between atoms: N_10  and  C_13
REMARK    3  A    between atoms: C_13  and  C_15
REMARK    4  A    between atoms: C_13  and  C_20
REMARK                            x       y       z     vdW  Elec       q    Type
REMARK                         _______ _______ _______ _____ _____    ______ ____
ROOT
ATOM      1  C   UNL     1       0.320   5.460   0.030  0.00  0.00    +0.042 C 
ENDROOT
BRANCH   1   2
ATOM      2  C   UNL     1       1.624   5.947   0.610  0.00  0.00    +0.053 A 
ATOM      3  C   UNL     1       2.655   6.535  -0.006  0.00  0.00    +0.282 A 
ATOM      4  N   UNL     1       3.771   6.912   0.701  0.00  0.00    -0.170 N 
ATOM      5  C   UNL     1       3.775   6.661   2.039  0.00  0.00    +0.199 A 
ATOM      6  S   UNL     1       2.194   5.894   2.302  0.00  0.00    -0.050 S 
ATOM      7  N   UNL     1       4.898   7.076   2.560  0.00  0.00    -0.208 NA
ATOM      8  C   UNL     1       5.657   7.605   1.603  0.00  0.00    +0.246 A 
ATOM      9  N   UNL     1       5.026   7.531   0.462  0.00  0.00    -0.150 NA
ATOM     10  O   UNL     1       2.599   6.763  -1.346  0.00  0.00    -0.265 OA
ENDBRANCH   1   2
BRANCH   1  14
ATOM     11  N   UNL     1      -3.219   7.295   1.428  0.00  0.00    -0.333 N 
ATOM     12  C   UNL     1      -1.935   7.806   1.928  0.00  0.00    +0.086 C 
ATOM     13  C   UNL     1      -0.814   7.379   0.977  0.00  0.00    -0.058 C 
ATOM     14  N   UNL     1      -0.791   5.913   0.876  0.00  0.00    +0.392 N 
ATOM     15  C   UNL     1      -2.076   5.402   0.377  0.00  0.00    -0.058 C 
ATOM     16  C   UNL     1      -3.196   5.829   1.328  0.00  0.00    +0.086 C 
ATOM     17  H   UNL     1      -0.633   5.506   1.886  0.00  0.00    -0.080 HD
BRANCH  11  21
ATOM     18  C   UNL     1      -6.370   8.578   3.828  0.00  0.00    +0.000 A 
ATOM     19  C   UNL     1      -6.622   7.777   2.729  0.00  0.00    +0.002 A 
ATOM     20  C   UNL     1      -5.579   7.350   1.931  0.00  0.00    +0.023 A 
ATOM     21  C   UNL     1      -4.276   7.726   2.233  0.00  0.00    +0.030 A 
ATOM     22  C   UNL     1      -4.026   8.525   3.341  0.00  0.00    +0.023 A 
ATOM     23  C   UNL     1      -5.074   8.953   4.132  0.00  0.00    +0.002 A 
ENDBRANCH  11  21
ENDBRANCH   1  14
BRANCH   1  24
ATOM     24  C   UNL     1       0.327   3.955  -0.028  0.00  0.00    +0.096 A 
ATOM     25  C   UNL     1       0.491   3.211  -1.136  0.00  0.00    +0.043 A 
ATOM     26  C   UNL     1       0.429   1.857  -0.734  0.00  0.00    +0.041 A 
ATOM     27  C   UNL     1       0.231   1.854   0.597  0.00  0.00    +0.195 A 
ATOM     28  O   UNL     1       0.175   3.128   1.020  0.00  0.00    -0.469 OA
ENDBRANCH   1  24
TORSDOF 4
