REMARK  Name = ZINC39668803
REMARK  9 active torsions:
REMARK  status: ('A' for Active; 'I' for Inactive)
REMARK    1  A    between atoms: C_1  and  C_2
REMARK    2  A    between atoms: C_7  and  C_8
REMARK    3  A    between atoms: C_8  and  C_9
REMARK    4  A    between atoms: C_13  and  C_22
REMARK    5  A    between atoms: N_24  and  C_25
REMARK    6  A    between atoms: C_25  and  C_26
REMARK    7  A    between atoms: C_26  and  C_28
REMARK    8  A    between atoms: C_26  and  O_29
REMARK    9  A    between atoms: O_29  and  C_30
REMARK                            x       y       z     vdW  Elec       q    Type
REMARK                         _______ _______ _______ _____ _____    ______ ____
ROOT
ATOM      1  C   UNL     1       0.654   0.122   2.717  0.00  0.00    +0.220 C 
ATOM      2  O   UNL     1      -0.131  -0.471   2.008  0.00  0.00    -0.275 OA
ATOM      3  N   UNL     1       0.238   0.657   3.882  0.00  0.00    -0.300 N 
ATOM      4  C   UNL     1       1.040   1.416   4.871  0.00  0.00    +0.121 C 
ATOM      5  C   UNL     1       0.101   2.545   5.352  0.00  0.00    +0.100 C 
ATOM      6  C   UNL     1      -1.318   2.015   5.084  0.00  0.00    -0.004 C 
ATOM      7  C   UNL     1      -1.126   0.624   4.462  0.00  0.00    +0.115 C 
ATOM      8  C   UNL     1      -2.048   2.928   4.104  0.00  0.00    -0.010 C 
ATOM      9  C   UNL     1      -3.475   2.413   3.898  0.00  0.00    -0.082 C 
ATOM     10  N   UNL     1      -4.177   2.384   5.187  0.00  0.00    +0.379 N 
ATOM     11  C   UNL     1      -3.522   1.432   6.093  0.00  0.00    -0.082 C 
ATOM     12  C   UNL     1      -2.097   1.906   6.391  0.00  0.00    -0.010 C 
ATOM     13  H   UNL     1      -4.160   3.304   5.599  0.00  0.00    -0.086 HD
ATOM     14  H   UNL     1      -5.135   2.102   5.040  0.00  0.00    -0.086 HD
ENDROOT
BRANCH   5  15
ATOM     15  C   UNL     1       0.349   3.805   4.565  0.00  0.00    +0.218 C 
ATOM     16  O   UNL     1       0.749   3.738   3.421  0.00  0.00    -0.275 OA
ATOM     17  N   UNL     1       0.128   5.008   5.131  0.00  0.00    -0.312 N 
ATOM     18  H   UNL     1      -0.192   5.062   6.045  0.00  0.00    +0.149 HD
BRANCH  17  19
ATOM     19  C   UNL     1       0.369   6.234   4.366  0.00  0.00    +0.148 C 
BRANCH  19  20
ATOM     20  C   UNL     1       0.043   7.450   5.235  0.00  0.00    +0.187 C 
ATOM     21  C   UNL     1       0.175   8.725   4.399  0.00  0.00    +0.053 C 
BRANCH  20  22
ATOM     22  O   UNL     1       0.951   7.507   6.336  0.00  0.00    -0.486 OA
BRANCH  22  23
ATOM     23  C   UNL     1       0.526   8.153   7.454  0.00  0.00    +0.139 A 
ATOM     24  C   UNL     1      -0.698   8.814   7.465  0.00  0.00    +0.049 A 
ATOM     25  C   UNL     1      -1.088   9.458   8.627  0.00  0.00    +0.023 A 
ATOM     26  C   UNL     1      -0.256   9.423   9.730  0.00  0.00    +0.111 A 
ATOM     27  N   UNL     1       0.899   8.788   9.687  0.00  0.00    -0.260 NA
ATOM     28  C   UNL     1       1.304   8.157   8.602  0.00  0.00    +0.156 A 
ENDBRANCH  22  23
ENDBRANCH  20  22
ENDBRANCH  19  20
ENDBRANCH  17  19
ENDBRANCH   5  15
BRANCH   1  29
ATOM     29  C   UNL     1       2.094   0.262   2.296  0.00  0.00    +0.131 C 
BRANCH  29  36
ATOM     30  C   UNL     1       1.528   1.683  -0.155  0.00  0.00    +0.044 C 
ATOM     31  C   UNL     1       2.026   0.261  -0.206  0.00  0.00    -0.047 A 
ATOM     32  C   UNL     1       2.217  -0.361  -1.426  0.00  0.00    +0.003 A 
ATOM     33  C   UNL     1       2.674  -1.665  -1.473  0.00  0.00    +0.000 A 
ATOM     34  C   UNL     1       2.939  -2.346  -0.300  0.00  0.00    +0.000 A 
ATOM     35  C   UNL     1       2.749  -1.724   0.920  0.00  0.00    +0.004 A 
ATOM     36  C   UNL     1       2.297  -0.419   0.966  0.00  0.00    -0.036 A 
ENDBRANCH  29  36
ENDBRANCH   1  29
TORSDOF 7
