REMARK  Name = ZINC14165095
REMARK  8 active torsions:
REMARK  status: ('A' for Active; 'I' for Inactive)
REMARK    1  A    between atoms: C_4  and  C_7
REMARK    2  A    between atoms: C_7  and  C_8
REMARK    3  A    between atoms: C_8  and  C_10
REMARK    4  A    between atoms: C_8  and  N_26
REMARK    5  A    between atoms: N_12  and  C_13
REMARK    6  A    between atoms: C_13  and  C_14
REMARK    7  A    between atoms: C_14  and  C_16
REMARK    8  A    between atoms: C_14  and  N_64
REMARK                            x       y       z     vdW  Elec       q    Type
REMARK                         _______ _______ _______ _____ _____    ______ ____
ROOT
ATOM      1  C   UNL     1      -1.196   1.494  -0.954  0.00  0.00    +0.175 C 
ENDROOT
BRANCH   1   2
ATOM      2  N   UNL     1      -2.191   0.422  -0.879  0.00  0.00    -0.222 N 
ATOM      3  C   UNL     1      -2.282  -0.595  -1.755  0.00  0.00    +0.255 C 
ATOM      4  O   UNL     1      -1.563  -0.767  -2.718  0.00  0.00    -0.270 OA
ATOM      5  C   UNL     1      -3.401  -1.470  -1.346  0.00  0.00    +0.049 A 
ATOM      6  C   UNL     1      -3.950  -2.638  -1.851  0.00  0.00    +0.014 A 
ATOM      7  C   UNL     1      -5.035  -3.219  -1.212  0.00  0.00    +0.001 A 
ATOM      8  C   UNL     1      -5.571  -2.642  -0.076  0.00  0.00    +0.001 A 
ATOM      9  C   UNL     1      -5.032  -1.474   0.440  0.00  0.00    +0.014 A 
ATOM     10  C   UNL     1      -3.948  -0.881  -0.188  0.00  0.00    +0.049 A 
ATOM     11  C   UNL     1      -3.139   0.328   0.071  0.00  0.00    +0.255 C 
ATOM     12  O   UNL     1      -3.302   1.107   0.989  0.00  0.00    -0.270 OA
ENDBRANCH   1   2
BRANCH   1  13
ATOM     13  C   UNL     1       0.188   0.903  -0.865  0.00  0.00    +0.234 C 
ATOM     14  O   UNL     1       0.362  -0.272  -1.112  0.00  0.00    -0.274 OA
ATOM     15  N   UNL     1       1.232   1.680  -0.515  0.00  0.00    -0.315 N 
ATOM     16  H   UNL     1       1.092   2.619  -0.317  0.00  0.00    +0.149 HD
BRANCH  15  17
ATOM     17  C   UNL     1       2.577   1.106  -0.434  0.00  0.00    +0.096 C 
BRANCH  17  18
ATOM     18  C   UNL     1       3.571   2.193  -0.020  0.00  0.00    +0.016 C 
BRANCH  18  24
ATOM     19  C   UNL     1       3.701   2.894  -2.334  0.00  0.00    -0.078 C 
ATOM     20  C   UNL     1       3.448   4.066  -3.285  0.00  0.00    -0.019 C 
ATOM     21  C   UNL     1       4.391   5.218  -2.928  0.00  0.00    -0.004 C 
ATOM     22  C   UNL     1       4.167   5.618  -1.468  0.00  0.00    -0.019 C 
ATOM     23  C   UNL     1       4.399   4.401  -0.569  0.00  0.00    -0.078 C 
ATOM     24  N   UNL     1       3.445   3.337  -0.947  0.00  0.00    +0.387 N 
ATOM     25  H   UNL     1       2.490   3.710  -0.888  0.00  0.00    -0.081 HD
ENDBRANCH  18  24
BRANCH  18  26
ATOM     26  C   UNL     1       4.971   1.635  -0.056  0.00  0.00    +0.093 A 
ATOM     27  C   UNL     1       5.729   1.344   1.016  0.00  0.00    +0.043 A 
ATOM     28  C   UNL     1       6.958   0.846   0.525  0.00  0.00    +0.041 A 
ATOM     29  C   UNL     1       6.879   0.869  -0.818  0.00  0.00    +0.195 A 
ATOM     30  O   UNL     1       5.673   1.347  -1.164  0.00  0.00    -0.469 OA
ENDBRANCH  18  26
ENDBRANCH  17  18
ENDBRANCH  15  17
ENDBRANCH   1  13
BRANCH   1  31
ATOM     31  C   UNL     1      -1.347   2.239  -2.281  0.00  0.00    +0.067 C 
BRANCH  31  35
ATOM     32  C   UNL     1      -5.137   4.207  -2.386  0.00  0.00    +0.000 A 
ATOM     33  C   UNL     1      -4.031   4.863  -1.879  0.00  0.00    +0.000 A 
ATOM     34  C   UNL     1      -2.805   4.226  -1.845  0.00  0.00    +0.004 A 
ATOM     35  C   UNL     1      -2.684   2.933  -2.318  0.00  0.00    -0.045 A 
ATOM     36  C   UNL     1      -3.789   2.279  -2.831  0.00  0.00    +0.004 A 
ATOM     37  C   UNL     1      -5.016   2.914  -2.860  0.00  0.00    +0.000 A 
ENDBRANCH  31  35
ENDBRANCH   1  31
TORSDOF 8
