REMARK  Name = ZINC63521542
REMARK  5 active torsions:
REMARK  status: ('A' for Active; 'I' for Inactive)
REMARK    1  A    between atoms: C_1  and  O_2
REMARK    2  A    between atoms: O_2  and  C_3
REMARK    3  A    between atoms: C_10  and  C_18
REMARK    4  A    between atoms: C_21  and  O_24
REMARK    5  A    between atoms: O_24  and  C_25
REMARK                            x       y       z     vdW  Elec       q    Type
REMARK                         _______ _______ _______ _____ _____    ______ ____
ROOT
ATOM      1  C   UNL     1      -0.573  -1.950   0.951  0.00  0.00    +0.121 A 
ATOM      2  C   UNL     1      -1.619  -1.029   0.765  0.00  0.00    +0.047 A 
ATOM      3  C   UNL     1      -2.908  -1.412   0.635  0.00  0.00    +0.029 A 
ATOM      4  C   UNL     1      -3.255  -2.834   0.688  0.00  0.00    +0.043 A 
ATOM      5  N   UNL     1      -4.409  -3.458   0.613  0.00  0.00    -0.376 N 
ATOM      6  C   UNL     1      -4.159  -4.895   0.633  0.00  0.00    +0.128 C 
ATOM      7  C   UNL     1      -4.915  -5.610   1.757  0.00  0.00    +0.111 C 
ATOM      8  N   UNL     1      -4.381  -6.976   1.879  0.00  0.00    -0.307 NA
ATOM      9  C   UNL     1      -2.993  -7.014   2.350  0.00  0.00    +0.086 C 
ATOM     10  C   UNL     1      -2.062  -6.372   1.306  0.00  0.00    +0.048 C 
ATOM     11  C   UNL     1      -2.674  -5.041   0.928  0.00  0.00    -0.035 C 
ATOM     12  C   UNL     1      -2.153  -3.809   0.895  0.00  0.00    +0.003 A 
ATOM     13  C   UNL     1      -0.787  -3.285   1.014  0.00  0.00    +0.055 A 
ATOM     14  H   UNL     1      -4.976  -7.546   2.460  0.00  0.00    +0.123 HD
ATOM     15  H   UNL     1      -5.280  -3.034   0.555  0.00  0.00    +0.160 HD
ENDROOT
BRANCH   7  16
ATOM     16  C   UNL     1      -6.383  -5.666   1.425  0.00  0.00    -0.028 A 
ATOM     17  C   UNL     1      -6.858  -6.627   0.552  0.00  0.00    +0.009 A 
ATOM     18  C   UNL     1      -8.204  -6.680   0.246  0.00  0.00    +0.046 A 
ATOM     19  C   UNL     1      -9.080  -5.768   0.816  0.00  0.00    +0.121 A 
ATOM     20  C   UNL     1      -8.602  -4.804   1.692  0.00  0.00    +0.046 A 
ATOM     21  C   UNL     1      -7.256  -4.759   1.999  0.00  0.00    +0.009 A 
BRANCH  19  22
ATOM     22  O   UNL     1     -10.405  -5.818   0.516  0.00  0.00    -0.489 OA
BRANCH  22  23
ATOM     23  C   UNL     1     -10.809  -6.756  -0.483  0.00  0.00    +0.173 C 
ATOM     24  C   UNL     1     -11.134  -8.127   0.161  0.00  0.00    +0.044 C 
ATOM     25  C   UNL     1     -12.086  -8.774  -0.876  0.00  0.00    +0.004 C 
ATOM     26  C   UNL     1     -12.951  -7.599  -1.380  0.00  0.00    +0.004 C 
ATOM     27  C   UNL     1     -12.139  -6.317  -1.130  0.00  0.00    +0.044 C 
ENDBRANCH  22  23
ENDBRANCH  19  22
ENDBRANCH   7  16
BRANCH   1  29
ATOM     28  C   UNL     1       0.878  -0.067   0.997  0.00  0.00    +0.277 C 
ATOM     29  O   UNL     1       0.698  -1.483   1.068  0.00  0.00    -0.495 OA
ENDBRANCH   1  29
TORSDOF 4
