REMARK  Name = ZINC12866269
REMARK  13 active torsions:
REMARK  status: ('A' for Active; 'I' for Inactive)
REMARK    1  A    between atoms: C_1  and  C_2
REMARK    2  A    between atoms: C_5  and  S_8
REMARK    3  A    between atoms: S_8  and  N_11
REMARK    4  A    between atoms: N_11  and  C_12
REMARK    5  A    between atoms: C_12  and  C_14
REMARK    6  A    between atoms: C_12  and  C_18
REMARK    7  A    between atoms: C_14  and  C_15
REMARK    8  A    between atoms: C_15  and  C_16
REMARK    9  A    between atoms: C_15  and  C_17
REMARK   10  A    between atoms: C_23  and  C_26
REMARK   11  A    between atoms: N_28  and  CA_29
REMARK   12  A    between atoms: CA_29  and  C_31
REMARK   13  A    between atoms: CA_29  and  C_37
REMARK                            x       y       z     vdW  Elec       q    Type
REMARK                         _______ _______ _______ _____ _____    ______ ____
ROOT
ATOM      1  C   UNL     1       5.612   9.216   3.721  0.00  0.00    +0.234 C 
ATOM      2  O   UNL     1       6.739   9.243   4.169  0.00  0.00    -0.274 OA
ATOM      3  N   UNL     1       4.710   8.346   4.218  0.00  0.00    -0.300 N 
ATOM      4  C   UNL     1       5.094   7.383   5.259  0.00  0.00    +0.108 C 
ATOM      5  C   UNL     1       4.712   5.975   4.793  0.00  0.00    +0.032 C 
ATOM      6  C   UNL     1       3.225   5.948   4.428  0.00  0.00    +0.078 C 
ATOM      7  C   UNL     1       2.962   6.925   3.280  0.00  0.00    +0.032 C 
ATOM      8  C   UNL     1       3.324   8.344   3.730  0.00  0.00    +0.108 C 
ENDROOT
BRANCH   6   9
ATOM      9  C   UNL     1       2.838   4.556   4.002  0.00  0.00    +0.217 C 
ATOM     10  O   UNL     1       3.668   3.672   3.990  0.00  0.00    -0.275 OA
ATOM     11  N   UNL     1       1.568   4.293   3.633  0.00  0.00    -0.298 N 
ATOM     12  H   UNL     1       0.904   4.999   3.643  0.00  0.00    +0.150 HD
BRANCH  11  13
ATOM     13  CA  UNL     1       1.192   2.939   3.218  0.00  0.00    +0.217 C 
BRANCH  13  14
ATOM     14  C   UNL     1      -0.284   2.735   3.448  0.00  0.00    -0.016 A 
ATOM     15  C   UNL     1      -1.174   3.756   3.171  0.00  0.00    +0.006 A 
ATOM     16  C   UNL     1      -2.527   3.568   3.381  0.00  0.00    +0.000 A 
ATOM     17  C   UNL     1      -2.990   2.361   3.871  0.00  0.00    +0.000 A 
ATOM     18  C   UNL     1      -2.100   1.342   4.150  0.00  0.00    +0.000 A 
ATOM     19  C   UNL     1      -0.746   1.529   3.939  0.00  0.00    +0.006 A 
ENDBRANCH  13  14
BRANCH  13  20
ATOM     20  C   UNL     1       1.501   2.758   1.754  0.00  0.00    +0.380 C 
ATOM     21  O   UNL     1       1.987   3.666   1.123  0.00  0.00    -0.244 OA
ATOM     22  OXT UNL     1       1.238   1.588   1.152  0.00  0.00    -0.244 OA
ENDBRANCH  13  20
ENDBRANCH  11  13
ENDBRANCH   6   9
BRANCH   1  23
ATOM     23  C   UNL     1       5.221  10.154   2.609  0.00  0.00    +0.162 C 
BRANCH  23  24
ATOM     24  N   UNL     1       6.319  11.087   2.347  0.00  0.00    -0.178 NA
ATOM     25  H   UNL     1       7.231  10.760   2.296  0.00  0.00    +0.149 HD
BRANCH  24  26
ATOM     26  S   UNL     1       6.005  12.699   2.139  0.00  0.00    +0.059 S 
ATOM     27  O   UNL     1       7.262  13.339   1.968  0.00  0.00    -0.153 OA
ATOM     28  O   UNL     1       4.967  12.789   1.173  0.00  0.00    -0.153 OA
BRANCH  26  33
ATOM     29  C   UNL     1       3.714  14.755   7.328  0.00  0.00    +0.044 C 
ATOM     30  C   UNL     1       4.286  14.242   6.032  0.00  0.00    -0.050 A 
ATOM     31  C   UNL     1       5.652  14.270   5.820  0.00  0.00    +0.005 A 
ATOM     32  C   UNL     1       6.177  13.799   4.631  0.00  0.00    +0.029 A 
ATOM     33  C   UNL     1       5.336  13.299   3.655  0.00  0.00    +0.105 A 
ATOM     34  C   UNL     1       3.970  13.275   3.864  0.00  0.00    +0.029 A 
ATOM     35  C   UNL     1       3.445  13.742   5.055  0.00  0.00    +0.005 A 
ENDBRANCH  26  33
ENDBRANCH  24  26
ENDBRANCH  23  24
BRANCH  23  36
ATOM     36  C   UNL     1       4.923   9.348   1.342  0.00  0.00    +0.032 C 
BRANCH  36  37
ATOM     37  C   UNL     1       4.442  10.292   0.238  0.00  0.00    -0.015 C 
ATOM     38  C   UNL     1       4.287   9.511  -1.068  0.00  0.00    +0.007 C 
ATOM     39  C   UNL     1       3.094  10.896   0.635  0.00  0.00    +0.007 C 
ENDBRANCH  36  37
ENDBRANCH  23  36
ENDBRANCH   1  23
TORSDOF 10
