REMARK  Name = ZINC01505910
REMARK  14 active torsions:
REMARK  status: ('A' for Active; 'I' for Inactive)
REMARK    1  A    between atoms: C_2  and  C_3
REMARK    2  A    between atoms: C_3  and  N_57
REMARK    3  A    between atoms: C_4  and  C_5
REMARK    4  A    between atoms: C_4  and  N_57
REMARK    5  A    between atoms: C_7  and  C_8
REMARK    6  A    between atoms: C_7  and  N_57
REMARK    7  A    between atoms: C_12  and  O_26
REMARK    8  A    between atoms: C_13  and  C_19
REMARK    9  A    between atoms: C_17  and  O_18
REMARK   10  A    between atoms: C_19  and  N_59
REMARK   11  A    between atoms: C_20  and  C_21
REMARK   12  A    between atoms: C_20  and  N_59
REMARK   13  A    between atoms: C_23  and  C_24
REMARK   14  A    between atoms: C_23  and  N_59
REMARK                            x       y       z     vdW  Elec       q    Type
REMARK                         _______ _______ _______ _____ _____    ______ ____
ROOT
ATOM      1  C   UNL     1      -0.841   3.102  -1.080  0.00  0.00    -0.015 A 
ATOM      2  C   UNL     1       0.402   2.450  -1.119  0.00  0.00    -0.013 A 
ATOM      3  C   UNL     1       1.605   3.179  -1.149  0.00  0.00    +0.012 A 
ATOM      4  C   UNL     1       2.793   2.518  -1.181  0.00  0.00    +0.046 A 
ATOM      5  C   UNL     1       2.838   1.120  -1.186  0.00  0.00    +0.119 A 
ATOM      6  C   UNL     1       1.689   0.382  -1.157  0.00  0.00    -0.015 A 
ATOM      7  C   UNL     1       0.446   1.034  -1.123  0.00  0.00    -0.013 A 
ATOM      8  C   UNL     1      -0.757   0.306  -1.093  0.00  0.00    +0.012 A 
ATOM      9  C   UNL     1      -1.945   0.967  -1.060  0.00  0.00    +0.046 A 
ATOM     10  C   UNL     1      -1.990   2.364  -1.056  0.00  0.00    +0.119 A 
ENDROOT
BRANCH  10  11
ATOM     11  O   UNL     1      -3.193   2.997  -1.023  0.00  0.00    -0.507 OA
ATOM     12  H   UNL     1      -3.518   3.178  -0.130  0.00  0.00    +0.292 HD
ENDBRANCH  10  11
BRANCH   5  13
ATOM     13  O   UNL     1       4.041   0.488  -1.219  0.00  0.00    -0.507 OA
ATOM     14  H   UNL     1       4.405   0.381  -2.108  0.00  0.00    +0.292 HD
ENDBRANCH   5  13
BRANCH   1  15
ATOM     15  C   UNL     1      -0.908   4.608  -1.074  0.00  0.00    -0.038 C 
BRANCH  15  16
ATOM     16  N   UNL     1      -0.770   5.093  -2.463  0.00  0.00    +0.387 N 
ATOM     17  H   UNL     1      -0.029   4.559  -2.932  0.00  0.00    -0.080 HD
BRANCH  16  18
ATOM     18  C   UNL     1      -2.039   4.897  -3.195  0.00  0.00    -0.051 C 
BRANCH  18  20
ATOM     19  C   UNL     1      -2.096   4.287  -5.559  0.00  0.00    +0.002 C 
ATOM     20  C   UNL     1      -1.809   5.191  -4.655  0.00  0.00    -0.053 C 
ENDBRANCH  18  20
ENDBRANCH  16  18
BRANCH  16  21
ATOM     21  C   UNL     1      -0.403   6.525  -2.464  0.00  0.00    -0.051 C 
BRANCH  21  22
ATOM     22  C   UNL     1       1.063   6.647  -2.137  0.00  0.00    -0.053 C 
ATOM     23  C   UNL     1       1.868   7.271  -2.962  0.00  0.00    +0.002 C 
ENDBRANCH  21  22
ENDBRANCH  16  21
ENDBRANCH  15  16
ENDBRANCH   1  15
BRANCH   6  24
ATOM     24  C   UNL     1       1.756  -1.124  -1.162  0.00  0.00    -0.038 C 
BRANCH  24  25
ATOM     25  N   UNL     1       1.545  -1.603  -2.544  0.00  0.00    +0.387 N 
ATOM     26  H   UNL     1       0.787  -1.059  -2.973  0.00  0.00    -0.080 HD
BRANCH  25  27
ATOM     27  C   UNL     1       2.778  -1.417  -3.337  0.00  0.00    -0.051 C 
BRANCH  27  28
ATOM     28  C   UNL     1       3.907  -2.230  -2.758  0.00  0.00    -0.053 C 
ATOM     29  C   UNL     1       4.550  -3.088  -3.510  0.00  0.00    +0.002 C 
ENDBRANCH  27  28
ENDBRANCH  25  27
BRANCH  25  30
ATOM     30  C   UNL     1       1.163  -3.031  -2.531  0.00  0.00    -0.051 C 
BRANCH  30  31
ATOM     31  C   UNL     1       0.777  -3.445  -3.927  0.00  0.00    -0.053 C 
ATOM     32  C   UNL     1       1.358  -4.476  -4.489  0.00  0.00    +0.002 C 
ENDBRANCH  30  31
ENDBRANCH  25  30
ENDBRANCH  24  25
ENDBRANCH   6  24
TORSDOF 14
