REMARK  Name = ZINC66379660
REMARK  6 active torsions:
REMARK  status: ('A' for Active; 'I' for Inactive)
REMARK    1  A    between atoms: C_1  and  C_2
REMARK    2  A    between atoms: C_4  and  C_29
REMARK    3  A    between atoms: C_9  and  N_14
REMARK    4  A    between atoms: C_11  and  C_13
REMARK    5  A    between atoms: C_15  and  C_17
REMARK    6  A    between atoms: C_24  and  C_26
REMARK                            x       y       z     vdW  Elec       q    Type
REMARK                         _______ _______ _______ _____ _____    ______ ____
ROOT
ATOM      1  N   UNL     1       0.019  -0.747   3.874  0.00  0.00    -0.270 N 
ATOM      2  C   UNL     1       0.014  -0.322   5.153  0.00  0.00    +0.223 C 
ATOM      3  O   UNL     1       0.029  -1.126   6.061  0.00  0.00    -0.275 OA
ATOM      4  H   UNL     1       0.007  -0.104   3.149  0.00  0.00    +0.156 HD
ENDROOT
BRANCH   1  13
ATOM      5  C   UNL     1      -0.018   1.503   0.010  0.00  0.00    +0.066 C 
ATOM      6  C   UNL     1       0.002  -0.004   0.002  0.00  0.00    +0.044 A 
ATOM      7  C   UNL     1       0.006  -0.699  -1.197  0.00  0.00    +0.046 A 
ATOM      8  C   UNL     1       0.025  -2.085  -1.159  0.00  0.00    +0.044 A 
ATOM      9  N   UNL     1       0.039  -2.697   0.013  0.00  0.00    -0.216 NA
ATOM     10  C   UNL     1       0.035  -2.003   1.140  0.00  0.00    +0.253 A 
ATOM     11  N   UNL     1       0.022  -0.680   1.139  0.00  0.00    -0.216 NA
ATOM     12  N   UNL     1       0.049  -2.682   2.357  0.00  0.00    -0.183 N 
ATOM     13  C   UNL     1       0.042  -2.113   3.595  0.00  0.00    +0.132 A 
ATOM     14  C   UNL     1       0.061  -3.121   4.508  0.00  0.00    +0.068 A 
ATOM     15  C   UNL     1       0.081  -4.332   3.809  0.00  0.00    +0.062 A 
ATOM     16  N   UNL     1       0.069  -4.073   2.527  0.00  0.00    -0.167 NA
ATOM     17  C   UNL     1       0.107  -5.706   4.428  0.00  0.00    +0.067 C 
ATOM     18  C   UNL     1       0.029  -2.883  -2.437  0.00  0.00    +0.066 C 
ENDBRANCH   1  13
BRANCH   2  19
ATOM     19  C   UNL     1      -0.010   1.155   5.456  0.00  0.00    +0.093 C 
ATOM     20  C   UNL     1      -1.272   1.778   4.855  0.00  0.00    +0.016 C 
ATOM     21  C   UNL     1      -1.281   3.283   5.133  0.00  0.00    +0.020 C 
ATOM     22  C   UNL     1      -1.299   3.518   6.647  0.00  0.00    +0.108 C 
ATOM     23  N   UNL     1      -0.168   2.800   7.250  0.00  0.00    -0.301 N 
ATOM     24  C   UNL     1      -0.012   1.366   6.973  0.00  0.00    +0.120 C 
ATOM     25  C   UNL     1       0.710   3.445   8.044  0.00  0.00    +0.219 C 
ATOM     26  O   UNL     1       1.640   2.841   8.536  0.00  0.00    -0.275 OA
BRANCH  25  27
ATOM     27  C   UNL     1       0.538   4.916   8.319  0.00  0.00    +0.075 C 
ATOM     28  C   UNL     1       1.573   5.872   7.723  0.00  0.00    +0.013 C 
ATOM     29  C   UNL     1       1.568   5.591   9.227  0.00  0.00    +0.013 C 
ENDBRANCH  25  27
ENDBRANCH   2  19
TORSDOF 3
