REMARK  Name = ZINC39623467
REMARK  9 active torsions:
REMARK  status: ('A' for Active; 'I' for Inactive)
REMARK    1  A    between atoms: C_1  and  C_2
REMARK    2  A    between atoms: C_2  and  C_3
REMARK    3  A    between atoms: C_3  and  C_4
REMARK    4  A    between atoms: C_4  and  C_5
REMARK    5  A    between atoms: C_5  and  N_6
REMARK    6  A    between atoms: C_7  and  C_9
REMARK    7  A    between atoms: C_20  and  C_22
REMARK    8  A    between atoms: C_27  and  O_28
REMARK    9  A    between atoms: O_28  and  C_29
REMARK                            x       y       z     vdW  Elec       q    Type
REMARK                         _______ _______ _______ _____ _____    ______ ____
ROOT
ATOM      1  C   UNL     1      -4.202  -5.750   0.116  0.00  0.00    +0.100 C 
ATOM      2  C   UNL     1      -3.332  -6.425   1.200  0.00  0.00    +0.121 C 
ATOM      3  N   UNL     1      -4.297  -6.865   2.234  0.00  0.00    -0.296 N 
ATOM      4  C   UNL     1      -5.464  -7.359   1.464  0.00  0.00    +0.115 C 
ATOM      5  C   UNL     1      -5.599  -6.368   0.290  0.00  0.00    -0.004 C 
ATOM      6  C   UNL     1      -6.617  -5.284   0.631  0.00  0.00    -0.010 C 
ATOM      7  C   UNL     1      -8.008  -5.914   0.743  0.00  0.00    -0.082 C 
ATOM      8  N   UNL     1      -8.359  -6.561  -0.527  0.00  0.00    +0.379 N 
ATOM      9  C   UNL     1      -7.429  -7.663  -0.802  0.00  0.00    -0.082 C 
ATOM     10  C   UNL     1      -6.013  -7.107  -0.979  0.00  0.00    -0.010 C 
ATOM     11  C   UNL     1      -4.148  -6.826   3.573  0.00  0.00    +0.252 C 
ATOM     12  O   UNL     1      -4.997  -7.314   4.294  0.00  0.00    -0.270 OA
ATOM     13  H   UNL     1      -9.299  -6.922  -0.471  0.00  0.00    -0.086 HD
ATOM     14  H   UNL     1      -8.306  -5.884  -1.274  0.00  0.00    -0.086 HD
ENDROOT
BRANCH  11  15
ATOM     15  C   UNL     1      -2.955  -6.192   4.164  0.00  0.00    +0.099 A 
ATOM     16  C   UNL     1      -1.712  -6.275   3.524  0.00  0.00    +0.020 A 
ATOM     17  C   UNL     1      -0.624  -5.663   4.120  0.00  0.00    +0.021 A 
ATOM     18  C   UNL     1      -0.792  -4.992   5.318  0.00  0.00    +0.114 A 
ATOM     19  N   UNL     1      -1.972  -4.926   5.904  0.00  0.00    -0.220 NA
ATOM     20  C   UNL     1      -3.045  -5.489   5.375  0.00  0.00    +0.233 A 
BRANCH  20  21
ATOM     21  O   UNL     1      -4.238  -5.392   6.009  0.00  0.00    -0.437 OA
BRANCH  21  22
ATOM     22  C   UNL     1      -4.266  -4.789   7.227  0.00  0.00    +0.130 A 
ATOM     23  C   UNL     1      -4.215  -3.405   7.319  0.00  0.00    +0.048 A 
ATOM     24  C   UNL     1      -4.244  -2.795   8.557  0.00  0.00    +0.023 A 
ATOM     25  C   UNL     1      -4.324  -3.562   9.706  0.00  0.00    +0.041 A 
ATOM     26  C   UNL     1      -4.375  -4.942   9.617  0.00  0.00    +0.023 A 
ATOM     27  C   UNL     1      -4.352  -5.556   8.380  0.00  0.00    +0.048 A 
ATOM     28 CL   UNL     1      -4.359  -2.792  11.262  0.00  0.00    -0.084 Cl
ENDBRANCH  21  22
ENDBRANCH  20  21
ENDBRANCH  11  15
BRANCH   1  30
ATOM     29  N   UNL     1      -4.431  -3.429  -0.709  0.00  0.00    -0.315 N 
ATOM     30  C   UNL     1      -4.255  -4.261   0.337  0.00  0.00    +0.218 C 
ATOM     31  O   UNL     1      -4.140  -3.810   1.458  0.00  0.00    -0.275 OA
ATOM     32  H   UNL     1      -4.523  -3.790  -1.605  0.00  0.00    +0.149 HD
BRANCH  29  33
ATOM     33  C   UNL     1      -4.483  -1.981  -0.493  0.00  0.00    +0.104 C 
BRANCH  33  34
ATOM     34  C   UNL     1      -4.689  -1.273  -1.833  0.00  0.00    +0.019 C 
BRANCH  34  35
ATOM     35  C   UNL     1      -4.743   0.239  -1.608  0.00  0.00    +0.001 C 
BRANCH  35  37
ATOM     36  C   UNL     1      -5.003   2.460  -2.723  0.00  0.00    +0.004 C 
ATOM     37  C   UNL     1      -4.949   0.948  -2.949  0.00  0.00    -0.003 C 
ENDBRANCH  35  37
ENDBRANCH  34  35
ENDBRANCH  33  34
ENDBRANCH  29  33
ENDBRANCH   1  30
TORSDOF 8
