REMARK  Name = ZINC11690323
REMARK  3 active torsions:
REMARK  status: ('A' for Active; 'I' for Inactive)
REMARK    1  A    between atoms: C_1  and  C_2
REMARK    2  A    between atoms: C_7  and  C_8
REMARK    3  A    between atoms: N_14  and  C_15
REMARK                            x       y       z     vdW  Elec       q    Type
REMARK                         _______ _______ _______ _____ _____    ______ ____
ROOT
ATOM      1  C   UNL     1       0.059   0.104   0.974  0.00  0.00    +0.170 C 
ATOM      2  C   UNL     1       1.514  -0.197   0.656  0.00  0.00    +0.236 C 
ATOM      3  O   UNL     1       1.962  -1.324   0.691  0.00  0.00    -0.274 OA
ATOM      4  N   UNL     1       2.262   0.846   0.338  0.00  0.00    -0.264 N 
ATOM      5  C   UNL     1       1.758   2.129   0.295  0.00  0.00    +0.162 C 
ATOM      6  N   UNL     1       2.392   3.239  -0.004  0.00  0.00    -0.225 NA
ATOM      7  S   UNL     1       0.041   1.926   0.743  0.00  0.00    -0.073 S 
ATOM      8  H   UNL     1       3.198   0.703   0.126  0.00  0.00    +0.157 HD
ENDROOT
BRANCH   1  15
ATOM      9  C   UNL     1      -1.022  -2.510   1.562  0.00  0.00    +0.044 C 
ATOM     10  C   UNL     1      -0.796  -1.520   2.675  0.00  0.00    -0.046 A 
ATOM     11  C   UNL     1      -1.103  -1.864   3.979  0.00  0.00    +0.003 A 
ATOM     12  C   UNL     1      -0.901  -0.955   4.999  0.00  0.00    +0.000 A 
ATOM     13  C   UNL     1      -0.389   0.298   4.717  0.00  0.00    +0.000 A 
ATOM     14  C   UNL     1      -0.078   0.641   3.415  0.00  0.00    +0.005 A 
ATOM     15  C   UNL     1      -0.280  -0.270   2.394  0.00  0.00    -0.022 A 
ENDBRANCH   1  15
BRANCH   6  16
ATOM     16  C   UNL     1       1.701   4.418  -0.095  0.00  0.00    +0.085 A 
ATOM     17  C   UNL     1       0.542   4.495  -0.869  0.00  0.00    +0.029 A 
ATOM     18  C   UNL     1      -0.151   5.684  -0.953  0.00  0.00    +0.002 A 
ATOM     19  C   UNL     1       0.305   6.804  -0.279  0.00  0.00    +0.002 A 
ATOM     20  C   UNL     1       1.456   6.737   0.486  0.00  0.00    +0.022 A 
ATOM     21  C   UNL     1       2.157   5.552   0.583  0.00  0.00    +0.066 A 
ATOM     22 CL   UNL     1       3.602   5.471   1.542  0.00  0.00    -0.081 Cl
ENDBRANCH   6  16
TORSDOF 2
