REMARK  Name = ZINC18169455
REMARK  2 active torsions:
REMARK  status: ('A' for Active; 'I' for Inactive)
REMARK    1  A    between atoms: C_11  and  C_16
REMARK    2  A    between atoms: N_23  and  C_26
REMARK                            x       y       z     vdW  Elec       q    Type
REMARK                         _______ _______ _______ _____ _____    ______ ____
ROOT
ATOM      1  C   UNL     1       4.968  -3.988   1.170  0.00  0.00    +0.073 A 
ATOM      2  C   UNL     1       4.679  -3.165   2.274  0.00  0.00    +0.260 A 
ATOM      3  O   UNL     1       3.542  -3.100   2.710  0.00  0.00    -0.267 OA
ATOM      4  N   UNL     1       5.667  -2.449   2.846  0.00  0.00    -0.274 N 
ATOM      5  H   UNL     1       5.471  -1.881   3.607  0.00  0.00    +0.173 HD
ATOM      6  C   UNL     1       6.923  -2.517   2.369  0.00  0.00    +0.337 A 
ATOM      7  O   UNL     1       7.801  -1.864   2.900  0.00  0.00    -0.246 OA
ATOM      8  N   UNL     1       7.223  -3.298   1.315  0.00  0.00    -0.229 N 
ATOM      9  C   UNL     1       6.247  -4.048   0.705  0.00  0.00    +0.267 A 
ATOM     10  O   UNL     1       6.553  -4.834  -0.349  0.00  0.00    -0.267 OA
ENDROOT
BRANCH   1  21
ATOM     11  C   UNL     1      -0.750  -1.525  -1.704  0.00  0.00    +0.001 A 
ATOM     12  C   UNL     1       0.268  -0.714  -2.188  0.00  0.00    +0.002 A 
ATOM     13  C   UNL     1       1.588  -1.027  -1.950  0.00  0.00    +0.026 A 
ATOM     14  C   UNL     1       1.908  -2.166  -1.219  0.00  0.00    +0.047 A 
ATOM     15  C   UNL     1       0.873  -2.986  -0.730  0.00  0.00    +0.003 A 
ATOM     16  C   UNL     1      -0.459  -2.648  -0.984  0.00  0.00    +0.010 A 
ATOM     17  C   UNL     1       1.532  -4.074  -0.021  0.00  0.00    -0.022 A 
ATOM     18  C   UNL     1       2.862  -3.869  -0.110  0.00  0.00    +0.011 A 
ATOM     19  N   UNL     1       3.102  -2.732  -0.824  0.00  0.00    -0.359 N 
ATOM     20  H   UNL     1       3.981  -2.375  -1.025  0.00  0.00    +0.166 HD
ATOM     21  C   UNL     1       3.878  -4.797   0.515  0.00  0.00    +0.018 C 
ATOM     22  N   UNL     1       3.198  -5.625   1.523  0.00  0.00    +0.388 N 
ATOM     23  C   UNL     1       2.026  -6.285   0.933  0.00  0.00    -0.076 C 
ATOM     24  C   UNL     1       0.917  -5.248   0.699  0.00  0.00    +0.018 C 
ATOM     25  H   UNL     1       3.837  -6.325   1.867  0.00  0.00    -0.084 HD
ATOM     26  H   UNL     1       2.901  -5.041   2.290  0.00  0.00    -0.084 HD
ENDBRANCH   1  21
BRANCH   8  27
ATOM     27  C   UNL     1       8.541  -3.350   0.839  0.00  0.00    +0.055 A 
ATOM     28  C   UNL     1       9.426  -4.291   1.347  0.00  0.00    +0.029 A 
ATOM     29  C   UNL     1      10.724  -4.341   0.877  0.00  0.00    +0.040 A 
ATOM     30  C   UNL     1      11.142  -3.454  -0.100  0.00  0.00    +0.124 A 
ATOM     31  C   UNL     1      10.261  -2.514  -0.608  0.00  0.00    +0.040 A 
ATOM     32  C   UNL     1       8.961  -2.464  -0.144  0.00  0.00    +0.029 A 
ATOM     33  F   UNL     1      12.412  -3.504  -0.559  0.00  0.00    -0.205 F 
ENDBRANCH   8  27
TORSDOF 2
