REMARK  Name = ZINC63375702
REMARK  8 active torsions:
REMARK  status: ('A' for Active; 'I' for Inactive)
REMARK    1  A    between atoms: C_1  and  C_2
REMARK    2  A    between atoms: C_2  and  C_3
REMARK    3  A    between atoms: C_3  and  N_4
REMARK    4  A    between atoms: C_5  and  C_7
REMARK    5  A    between atoms: C_10  and  N_13
REMARK    6  A    between atoms: C_29  and  C_34
REMARK    7  A    between atoms: C_38  and  O_40
REMARK    8  A    between atoms: O_40  and  C_41
REMARK                            x       y       z     vdW  Elec       q    Type
REMARK                         _______ _______ _______ _____ _____    ______ ____
ROOT
ATOM      1  N   UNL     1       1.221  -8.275  -2.430  0.00  0.00    -0.193 N 
ATOM      2  C   UNL     1       1.717  -9.029  -3.433  0.00  0.00    +0.248 C 
ATOM      3  O   UNL     1       2.129  -8.642  -4.505  0.00  0.00    -0.273 OA
ATOM      4  C   UNL     1       1.653 -10.458  -2.939  0.00  0.00    +0.169 C 
ATOM      5  C   UNL     1       0.790 -11.305  -3.892  0.00  0.00    +0.065 C 
ATOM      6  C   UNL     1       0.287 -12.476  -3.082  0.00  0.00    -0.034 C 
ATOM      7  C   UNL     1       0.372 -13.783  -3.306  0.00  0.00    -0.001 A 
ATOM      8  C   UNL     1       0.890 -14.548  -4.452  0.00  0.00    +0.010 A 
ATOM      9  C   UNL     1       0.841 -15.902  -4.340  0.00  0.00    +0.001 A 
ATOM     10  C   UNL     1       0.333 -16.563  -3.217  0.00  0.00    +0.002 A 
ATOM     11  C   UNL     1      -0.172 -15.940  -2.123  0.00  0.00    +0.026 A 
ATOM     12  C   UNL     1      -0.179 -14.515  -2.125  0.00  0.00    +0.043 A 
ATOM     13  N   UNL     1      -0.613 -13.675  -1.233  0.00  0.00    -0.375 N 
ATOM     14  C   UNL     1      -0.444 -12.317  -1.755  0.00  0.00    +0.131 C 
ATOM     15  C   UNL     1       0.460 -11.471  -0.846  0.00  0.00    +0.135 C 
ATOM     16  N   UNL     1       0.957 -10.337  -1.642  0.00  0.00    -0.264 N 
ATOM     17  C   UNL     1       0.822  -9.028  -1.395  0.00  0.00    +0.317 C 
ATOM     18  O   UNL     1       0.386  -8.575  -0.356  0.00  0.00    -0.252 OA
ATOM     19  H   UNL     1      -0.986 -13.907  -0.368  0.00  0.00    +0.160 HD
ENDROOT
BRANCH   1  23
ATOM     20  C   UNL     1       0.976  -4.114  -2.529  0.00  0.00    +0.037 A 
ATOM     21  C   UNL     1       0.419  -4.824  -1.462  0.00  0.00    +0.015 A 
ATOM     22  C   UNL     1       0.502  -6.198  -1.432  0.00  0.00    +0.025 A 
ATOM     23  C   UNL     1       1.139  -6.880  -2.463  0.00  0.00    +0.045 A 
ATOM     24  C   UNL     1       1.695  -6.178  -3.527  0.00  0.00    +0.025 A 
ATOM     25  C   UNL     1       1.611  -4.804  -3.566  0.00  0.00    +0.015 A 
BRANCH  20  27
ATOM     26  N   UNL     1       0.276  -1.978  -1.564  0.00  0.00    -0.311 N 
ATOM     27  C   UNL     1       0.889  -2.641  -2.565  0.00  0.00    +0.244 C 
ATOM     28  O   UNL     1       1.369  -2.026  -3.497  0.00  0.00    -0.270 OA
ATOM     29  H   UNL     1      -0.107  -2.469  -0.820  0.00  0.00    +0.149 HD
BRANCH  26  30
ATOM     30  C   UNL     1       0.190  -0.516  -1.599  0.00  0.00    +0.104 C 
BRANCH  30  32
ATOM     31  C   UNL     1      -0.639   1.508  -0.391  0.00  0.00    +0.005 C 
ATOM     32  C   UNL     1      -0.548  -0.019  -0.354  0.00  0.00    +0.015 C 
ENDBRANCH  30  32
ENDBRANCH  26  30
ENDBRANCH  20  27
ENDBRANCH   1  23
BRANCH  15  33
ATOM     33  C   UNL     1      -0.327 -10.967   0.336  0.00  0.00    -0.021 A 
ATOM     34  C   UNL     1      -1.458 -10.196   0.135  0.00  0.00    +0.006 A 
ATOM     35  C   UNL     1      -2.182  -9.732   1.218  0.00  0.00    +0.004 A 
ATOM     36  C   UNL     1      -1.777 -10.036   2.503  0.00  0.00    +0.045 A 
ATOM     37  C   UNL     1      -0.643 -10.809   2.707  0.00  0.00    +0.120 A 
ATOM     38  C   UNL     1       0.078 -11.279   1.619  0.00  0.00    +0.051 A 
BRANCH  37  39
ATOM     39  O   UNL     1      -0.243 -11.109   3.971  0.00  0.00    -0.495 OA
ATOM     40  C   UNL     1      -1.037 -10.596   5.042  0.00  0.00    +0.277 C 
ENDBRANCH  37  39
ENDBRANCH  15  33
TORSDOF 6
