REMARK  Name = ZINC14669990
REMARK  13 active torsions:
REMARK  status: ('A' for Active; 'I' for Inactive)
REMARK    1  A    between atoms: C_1  and  C_2
REMARK    2  A    between atoms: C_2  and  C_3
REMARK    3  A    between atoms: C_3  and  C_4
REMARK    4  A    between atoms: C_4  and  N_5
REMARK    5  A    between atoms: C_6  and  N_33
REMARK    6  A    between atoms: C_7  and  N_14
REMARK    7  A    between atoms: N_14  and  C_15
REMARK    8  A    between atoms: C_15  and  C_16
REMARK    9  A    between atoms: C_16  and  C_17
REMARK   10  A    between atoms: C_16  and  C_18
REMARK   11  A    between atoms: C_19  and  C_21
REMARK   12  A    between atoms: C_21  and  C_22
REMARK   13  A    between atoms: C_22  and  C_23
REMARK                            x       y       z     vdW  Elec       q    Type
REMARK                         _______ _______ _______ _____ _____    ______ ____
ROOT
ATOM      1  N   UNL     1      -3.407  -2.494  -2.657  0.00  0.00    -0.264 N 
ATOM      2  C   UNL     1      -3.201  -1.722  -1.570  0.00  0.00    +0.220 C 
ATOM      3  O   UNL     1      -2.389  -0.821  -1.611  0.00  0.00    -0.275 OA
ENDROOT
BRANCH   1   6
ATOM      4  N   UNL     1      -6.481  -4.351  -3.435  0.00  0.00    -0.280 N 
ATOM      5  C   UNL     1      -5.513  -3.374  -3.473  0.00  0.00    +0.127 A 
ATOM      6  C   UNL     1      -4.418  -3.479  -2.641  0.00  0.00    +0.140 A 
ATOM      7  C   UNL     1      -4.322  -4.588  -1.780  0.00  0.00    +0.277 A 
ATOM      8  O   UNL     1      -3.363  -4.708  -1.037  0.00  0.00    -0.266 OA
ATOM      9  N   UNL     1      -5.301  -5.514  -1.778  0.00  0.00    -0.273 N 
ATOM     10  H   UNL     1      -5.238  -6.299  -1.161  0.00  0.00    +0.173 HD
ATOM     11  C   UNL     1      -6.362  -5.396  -2.596  0.00  0.00    +0.331 A 
ATOM     12  O   UNL     1      -7.229  -6.248  -2.577  0.00  0.00    -0.246 OA
BRANCH   5  13
ATOM     13  N   UNL     1      -5.636  -2.307  -4.330  0.00  0.00    -0.343 N 
ATOM     14  H   UNL     1      -4.923  -1.652  -4.394  0.00  0.00    +0.144 HD
ATOM     15  H   UNL     1      -6.435  -2.209  -4.871  0.00  0.00    +0.144 HD
ENDBRANCH   5  13
BRANCH   4  16
ATOM     16  C   UNL     1      -7.649  -4.253  -4.314  0.00  0.00    +0.128 C 
BRANCH  16  17
ATOM     17  C   UNL     1      -7.351  -4.957  -5.639  0.00  0.00    +0.021 C 
BRANCH  17  19
ATOM     18  C   UNL     1      -8.274  -5.559  -7.882  0.00  0.00    +0.004 C 
ATOM     19  C   UNL     1      -8.571  -4.854  -6.556  0.00  0.00    -0.002 C 
ENDBRANCH  17  19
ENDBRANCH  16  17
ENDBRANCH   4  16
ENDBRANCH   1   6
BRANCH   1  20
ATOM     20  C   UNL     1      -2.583  -2.310  -3.854  0.00  0.00    +0.117 C 
BRANCH  20  21
ATOM     21  C   UNL     1      -1.421  -3.305  -3.830  0.00  0.00    +0.001 C 
ATOM     22  C   UNL     1      -0.623  -3.188  -5.131  0.00  0.00    +0.009 C 
ATOM     23  C   UNL     1      -0.508  -2.995  -2.643  0.00  0.00    +0.009 C 
ENDBRANCH  20  21
ENDBRANCH   1  20
BRANCH   2  24
ATOM     24  C   UNL     1      -3.978  -1.979  -0.304  0.00  0.00    +0.101 C 
BRANCH  24  25
ATOM     25  C   UNL     1      -3.509  -1.014   0.787  0.00  0.00    +0.046 C 
BRANCH  25  26
ATOM     26  C   UNL     1      -4.286  -1.271   2.052  0.00  0.00    -0.022 A 
ATOM     27  C   UNL     1      -5.391  -0.625   2.455  0.00  0.00    +0.087 A 
ATOM     28  N   UNL     1      -5.816  -1.131   3.654  0.00  0.00    -0.360 N 
ATOM     29  H   UNL     1      -6.595  -0.824   4.143  0.00  0.00    +0.165 HD
ATOM     30  C   UNL     1      -4.973  -2.140   4.061  0.00  0.00    +0.047 A 
ATOM     31  C   UNL     1      -3.977  -2.272   3.076  0.00  0.00    +0.003 A 
ATOM     32  C   UNL     1      -2.970  -3.227   3.227  0.00  0.00    +0.010 A 
ATOM     33  C   UNL     1      -2.962  -4.036   4.329  0.00  0.00    +0.001 A 
ATOM     34  C   UNL     1      -3.942  -3.909   5.304  0.00  0.00    +0.002 A 
ATOM     35  C   UNL     1      -4.942  -2.971   5.177  0.00  0.00    +0.026 A 
ENDBRANCH  25  26
ENDBRANCH  24  25
ENDBRANCH   2  24
TORSDOF 10
