REMARK  Name = ZINC67162645
REMARK  10 active torsions:
REMARK  status: ('A' for Active; 'I' for Inactive)
REMARK    1  A    between atoms: C_1  and  C_2
REMARK    2  A    between atoms: C_2  and  C_4
REMARK    3  A    between atoms: C_2  and  N_17
REMARK    4  A    between atoms: N_14  and  C_15
REMARK    5  A    between atoms: N_14  and  C_16
REMARK    6  A    between atoms: C_18  and  O_20
REMARK    7  A    between atoms: O_20  and  C_21
REMARK    8  A    between atoms: C_21  and  C_22
REMARK    9  A    between atoms: C_21  and  C_23
REMARK   10  A    between atoms: C_21  and  C_24
REMARK                            x       y       z     vdW  Elec       q    Type
REMARK                         _______ _______ _______ _____ _____    ______ ____
ROOT
ATOM      1  C   UNL     1      -2.053   1.712  -1.172  0.00  0.00    +0.236 C 
ATOM      2  O   UNL     1      -2.184   0.688  -1.808  0.00  0.00    -0.274 OA
ATOM      3  N   UNL     1      -2.561   1.802   0.073  0.00  0.00    -0.297 N 
ATOM      4  C   UNL     1      -2.528   3.077   0.804  0.00  0.00    +0.127 C 
ATOM      5  C   UNL     1      -3.957   3.430   1.238  0.00  0.00    +0.128 C 
ATOM      6  N   UNL     1      -4.553   2.255   1.889  0.00  0.00    -0.283 N 
ATOM      7  C   UNL     1      -4.585   0.980   1.158  0.00  0.00    +0.128 C 
ATOM      8  C   UNL     1      -3.162   0.629   0.722  0.00  0.00    +0.127 C 
ATOM      9  C   UNL     1      -5.061   2.345   3.134  0.00  0.00    +0.304 C 
ATOM     10  O   UNL     1      -4.621   3.170   3.912  0.00  0.00    -0.252 OA
ATOM     11  N   UNL     1      -6.056   1.521   3.517  0.00  0.00    -0.292 N 
ATOM     12  C   UNL     1      -6.619   1.630   4.865  0.00  0.00    +0.133 C 
ATOM     13  C   UNL     1      -6.575   0.517   2.585  0.00  0.00    +0.133 C 
ENDROOT
BRANCH   1  15
ATOM     14  C   UNL     1      -2.329   3.828  -2.437  0.00  0.00    +0.038 C 
ATOM     15  C   UNL     1      -1.322   2.885  -1.774  0.00  0.00    +0.159 C 
BRANCH  15  16
ATOM     16  N   UNL     1      -0.370   2.403  -2.779  0.00  0.00    -0.270 N 
ATOM     17  C   UNL     1       0.716   3.139  -3.085  0.00  0.00    +0.401 C 
ATOM     18  O   UNL     1       0.907   4.202  -2.528  0.00  0.00    -0.226 OA
ATOM     19  H   UNL     1      -0.522   1.554  -3.223  0.00  0.00    +0.153 HD
BRANCH  17  20
ATOM     20  O   UNL     1       1.591   2.697  -4.008  0.00  0.00    -0.445 OA
BRANCH  20  21
ATOM     21  C   UNL     1       2.720   3.528  -4.283  0.00  0.00    +0.107 C 
ATOM     22  C   UNL     1       3.536   3.720  -3.002  0.00  0.00    +0.055 C 
ATOM     23  C   UNL     1       3.594   2.865  -5.349  0.00  0.00    +0.055 C 
ATOM     24  C   UNL     1       2.240   4.889  -4.791  0.00  0.00    +0.055 C 
ENDBRANCH  20  21
ENDBRANCH  17  20
ENDBRANCH  15  16
ENDBRANCH   1  15
TORSDOF 4
