REMARK  Name = ZINC15973377
REMARK  4 active torsions:
REMARK  status: ('A' for Active; 'I' for Inactive)
REMARK    1  A    between atoms: C_4  and  C_7
REMARK    2  A    between atoms: C_12  and  C_27
REMARK    3  A    between atoms: N_17  and  C_20
REMARK    4  A    between atoms: C_18  and  O_19
REMARK                            x       y       z     vdW  Elec       q    Type
REMARK                         _______ _______ _______ _____ _____    ______ ____
ROOT
ATOM      1  C   UNL     1       3.711  -0.707  -0.038  0.00  0.00    +0.032 C 
ATOM      2  C   UNL     1       3.791  -1.592  -1.282  0.00  0.00    +0.059 C 
ATOM      3  C   UNL     1       5.093  -2.361  -1.281  0.00  0.00    +0.017 C 
ATOM      4  C   UNL     1       5.676  -2.729  -0.120  0.00  0.00    +0.024 C 
ATOM      5  C   UNL     1       6.976  -3.504  -0.060  0.00  0.00    +0.092 C 
ATOM      6  C   UNL     1       7.295  -4.068  -1.415  0.00  0.00    +0.067 A 
ATOM      7  C   UNL     1       6.626  -3.634  -2.583  0.00  0.00    +0.153 A 
ATOM      8  N   UNL     1       7.108  -4.286  -3.599  0.00  0.00    -0.148 NA
ATOM      9  N   UNL     1       8.097  -5.164  -3.128  0.00  0.00    -0.199 N 
ATOM     10  C   UNL     1       8.190  -5.008  -1.776  0.00  0.00    +0.222 A 
ATOM     11  N   UNL     1       5.627  -2.659  -2.510  0.00  0.00    -0.301 N 
ATOM     12  C   UNL     1       5.093  -2.395   1.116  0.00  0.00    +0.162 C 
ATOM     13  O   UNL     1       5.636  -2.752   2.143  0.00  0.00    -0.292 OA
ATOM     14  C   UNL     1       3.817  -1.607   1.199  0.00  0.00    +0.088 C 
ATOM     15  H   UNL     1       5.317  -2.204  -3.309  0.00  0.00    +0.153 HD
ENDROOT
BRANCH   1  19
ATOM     16  C   UNL     1      -0.017   1.378   0.010  0.00  0.00    +0.000 A 
ATOM     17  C   UNL     1       1.171   2.086   0.002  0.00  0.00    +0.000 A 
ATOM     18  C   UNL     1       2.377   1.411  -0.013  0.00  0.00    +0.004 A 
ATOM     19  C   UNL     1       2.396   0.029  -0.020  0.00  0.00    -0.044 A 
ATOM     20  C   UNL     1       1.208  -0.679  -0.012  0.00  0.00    +0.004 A 
ATOM     21  C   UNL     1       0.002  -0.004   0.002  0.00  0.00    +0.000 A 
ENDBRANCH   1  19
BRANCH   9  22
ATOM     22  C   UNL     1       8.856  -6.046  -3.909  0.00  0.00    +0.069 A 
ATOM     23  C   UNL     1      10.178  -6.310  -3.575  0.00  0.00    +0.028 A 
ATOM     24  C   UNL     1      10.923  -7.180  -4.347  0.00  0.00    +0.002 A 
ATOM     25  C   UNL     1      10.354  -7.787  -5.451  0.00  0.00    +0.000 A 
ATOM     26  C   UNL     1       9.038  -7.527  -5.786  0.00  0.00    +0.002 A 
ATOM     27  C   UNL     1       8.286  -6.662  -5.015  0.00  0.00    +0.028 A 
ENDBRANCH   9  22
BRANCH   5  28
ATOM     28  C   UNL     1       8.088  -2.583   0.372  0.00  0.00    -0.035 A 
ATOM     29  C   UNL     1       8.394  -1.466  -0.382  0.00  0.00    +0.004 A 
ATOM     30  C   UNL     1       9.414  -0.622   0.014  0.00  0.00    +0.000 A 
ATOM     31  C   UNL     1      10.128  -0.895   1.166  0.00  0.00    +0.000 A 
ATOM     32  C   UNL     1       9.822  -2.012   1.921  0.00  0.00    +0.000 A 
ATOM     33  C   UNL     1       8.799  -2.853   1.527  0.00  0.00    +0.004 A 
ENDBRANCH   5  28
BRANCH  10  34
ATOM     34  O   UNL     1       9.031  -5.677  -0.947  0.00  0.00    -0.492 OA
ATOM     35  H   UNL     1       8.662  -6.497  -0.591  0.00  0.00    +0.294 HD
ENDBRANCH  10  34
TORSDOF 4
