REMARK  Name = ZINC11966426
REMARK  9 active torsions:
REMARK  status: ('A' for Active; 'I' for Inactive)
REMARK    1  A    between atoms: C_1  and  C_2
REMARK    2  A    between atoms: C_2  and  C_15
REMARK    3  A    between atoms: N_5  and  C_9
REMARK    4  A    between atoms: C_9  and  C_10
REMARK    5  A    between atoms: C_20  and  C_21
REMARK    6  A    between atoms: C_20  and  N_57
REMARK    7  A    between atoms: C_24  and  O_28
REMARK    8  A    between atoms: C_25  and  O_27
REMARK    9  A    between atoms: O_28  and  C_29
REMARK                            x       y       z     vdW  Elec       q    Type
REMARK                         _______ _______ _______ _____ _____    ______ ____
ROOT
ATOM      1  C   UNL     1      -3.771  -2.768  -4.501  0.00  0.00    +0.018 C 
ATOM      2  C   UNL     1      -2.860  -3.990  -4.646  0.00  0.00    -0.013 C 
ATOM      3  C   UNL     1      -1.423  -3.593  -4.303  0.00  0.00    -0.078 C 
ATOM      4  C   UNL     1      -2.200  -1.880  -2.776  0.00  0.00    -0.078 C 
ATOM      5  C   UNL     1      -3.660  -2.226  -3.073  0.00  0.00    -0.013 C 
ATOM      6  N   UNL     1      -1.380  -3.103  -2.909  0.00  0.00    +0.382 N 
ATOM      7  H   UNL     1      -1.761  -3.828  -2.290  0.00  0.00    -0.081 HD
ENDROOT
BRANCH   1   9
ATOM      8  C   UNL     1      -5.340  -3.789  -6.181  0.00  0.00    +0.042 C 
ATOM      9  C   UNL     1      -5.219  -3.172  -4.786  0.00  0.00    +0.112 C 
ATOM     10  C   UNL     1      -6.143  -1.978  -4.648  0.00  0.00    +0.247 C 
ATOM     11  O   UNL     1      -6.117  -0.955  -5.297  0.00  0.00    -0.273 OA
ATOM     12  N   UNL     1      -6.998  -2.292  -3.656  0.00  0.00    -0.220 N 
ATOM     13  C   UNL     1      -6.746  -3.506  -3.152  0.00  0.00    +0.310 C 
ATOM     14  O   UNL     1      -7.385  -4.008  -2.248  0.00  0.00    -0.252 OA
ATOM     15  N   UNL     1      -5.707  -4.108  -3.758  0.00  0.00    -0.285 N 
ATOM     16  H   UNL     1      -5.349  -4.987  -3.557  0.00  0.00    +0.151 HD
BRANCH  12  17
ATOM     17  C   UNL     1      -8.072  -1.413  -3.186  0.00  0.00    +0.153 C 
BRANCH  17  18
ATOM     18  C   UNL     1      -9.327  -1.688  -3.972  0.00  0.00    -0.023 A 
ATOM     19  C   UNL     1     -10.233  -2.637  -3.537  0.00  0.00    +0.013 A 
ATOM     20  C   UNL     1     -11.353  -2.861  -4.268  0.00  0.00    +0.045 A 
ATOM     21  S   UNL     1     -11.149  -1.710  -5.617  0.00  0.00    -0.105 S 
ATOM     22  C   UNL     1      -9.588  -1.005  -5.114  0.00  0.00    +0.050 A 
ENDBRANCH  17  18
ENDBRANCH  12  17
ENDBRANCH   1   9
BRANCH   6  23
ATOM     23  C   UNL     1       0.016  -2.821  -2.516  0.00  0.00    -0.043 C 
BRANCH  23  24
ATOM     24  C   UNL     1       0.018  -2.074  -1.207  0.00  0.00    -0.060 A 
ATOM     25  C   UNL     1       0.040  -2.773  -0.014  0.00  0.00    +0.005 A 
ATOM     26  C   UNL     1       0.042  -2.093   1.189  0.00  0.00    +0.049 A 
ATOM     27  C   UNL     1       0.023  -0.708   1.202  0.00  0.00    +0.161 A 
ATOM     28  C   UNL     1       0.002  -0.004   0.002  0.00  0.00    +0.159 A 
ATOM     29  C   UNL     1      -0.006  -0.692  -1.201  0.00  0.00    +0.051 A 
BRANCH  28  30
ATOM     30  O   UNL     1      -0.016   1.356   0.009  0.00  0.00    -0.503 OA
ATOM     31  H   UNL     1       0.862   1.761   0.003  0.00  0.00    +0.292 HD
ENDBRANCH  28  30
BRANCH  27  32
ATOM     32  O   UNL     1       0.025  -0.037   2.385  0.00  0.00    -0.491 OA
ATOM     33  C   UNL     1       0.047  -0.825   3.578  0.00  0.00    +0.277 C 
ENDBRANCH  27  32
ENDBRANCH  23  24
ENDBRANCH   6  23
TORSDOF 7
