REMARK  Name = ZINC44458094
REMARK  6 active torsions:
REMARK  status: ('A' for Active; 'I' for Inactive)
REMARK    1  A    between atoms: C_1  and  C_2
REMARK    2  A    between atoms: C_2  and  O_3
REMARK    3  A    between atoms: O_3  and  C_4
REMARK    4  A    between atoms: C_4  and  C_6
REMARK    5  A    between atoms: C_16  and  C_18
REMARK    6  A    between atoms: N_26  and  C_27
REMARK                            x       y       z     vdW  Elec       q    Type
REMARK                         _______ _______ _______ _____ _____    ______ ____
ROOT
ATOM      1  C   UNL     1       1.470  -2.359  -2.562  0.00  0.00    +0.147 C 
ATOM      2  C   UNL     1       1.488  -3.900  -2.505  0.00  0.00    +0.026 C 
ATOM      3  C   UNL     1       2.852  -4.227  -3.155  0.00  0.00    +0.045 C 
ATOM      4  C   UNL     1       3.687  -3.006  -2.916  0.00  0.00    +0.015 A 
ATOM      5  C   UNL     1       2.936  -1.931  -2.577  0.00  0.00    +0.067 A 
ATOM      6  N   UNL     1       3.630  -0.808  -2.349  0.00  0.00    -0.228 NA
ATOM      7  C   UNL     1       4.936  -0.765  -2.452  0.00  0.00    +0.165 A 
ATOM      8  S   UNL     1       5.335  -2.344  -2.890  0.00  0.00    -0.057 S 
ATOM      9  N   UNL     1       5.784   0.317  -2.248  0.00  0.00    -0.264 N 
ATOM     10  C   UNL     1       7.115   0.169  -2.402  0.00  0.00    +0.222 C 
ATOM     11  O   UNL     1       7.572  -0.909  -2.720  0.00  0.00    -0.275 OA
ATOM     12  H   UNL     1       5.419   1.179  -1.994  0.00  0.00    +0.157 HD
ENDROOT
BRANCH  10  13
ATOM     13  C   UNL     1       8.035   1.342  -2.181  0.00  0.00    +0.078 C 
ATOM     14  C   UNL     1       7.671   2.466  -3.154  0.00  0.00    +0.032 C 
ATOM     15  C   UNL     1       8.585   3.669  -2.903  0.00  0.00    +0.110 C 
ATOM     16  N   UNL     1       9.983   3.227  -2.988  0.00  0.00    -0.286 N 
ATOM     17  C   UNL     1      10.417   2.093  -2.160  0.00  0.00    +0.110 C 
ATOM     18  C   UNL     1       9.482   0.907  -2.420  0.00  0.00    +0.032 C 
ATOM     19  C   UNL     1      10.852   3.849  -3.809  0.00  0.00    +0.302 C 
ATOM     20  O   UNL     1      12.026   3.534  -3.804  0.00  0.00    -0.253 OA
ATOM     21  N   UNL     1      10.418   4.820  -4.637  0.00  0.00    -0.296 N 
ATOM     22  H   UNL     1       9.498   5.122  -4.590  0.00  0.00    +0.151 HD
BRANCH  21  23
ATOM     23  C   UNL     1      11.338   5.419  -5.608  0.00  0.00    +0.075 C 
ATOM     24  C   UNL     1      11.305   6.940  -5.767  0.00  0.00    +0.024 C 
ATOM     25  C   UNL     1      10.729   6.044  -6.865  0.00  0.00    +0.024 C 
ENDBRANCH  21  23
ENDBRANCH  10  13
BRANCH   1  26
ATOM     26  C   UNL     1       0.776  -1.801  -1.347  0.00  0.00    +0.316 C 
ATOM     27  O   UNL     1       0.315  -2.549  -0.517  0.00  0.00    -0.250 OA
BRANCH  26  28
ATOM     28  O   UNL     1       0.671  -0.472  -1.185  0.00  0.00    -0.464 OA
BRANCH  28  30
ATOM     29  C   UNL     1      -0.020   1.517   0.000  0.00  0.00    +0.048 C 
ATOM     30  C   UNL     1       0.001  -0.013  -0.009  0.00  0.00    +0.229 C 
ENDBRANCH  28  30
ENDBRANCH  26  28
ENDBRANCH   1  26
TORSDOF 5
