REMARK  Name = ZINC66925647
REMARK  6 active torsions:
REMARK  status: ('A' for Active; 'I' for Inactive)
REMARK    1  A    between atoms: C_1  and  N_2
REMARK    2  A    between atoms: C_3  and  C_5
REMARK    3  A    between atoms: C_8  and  N_11
REMARK    4  A    between atoms: N_14  and  C_15
REMARK    5  A    between atoms: C_15  and  C_16
REMARK    6  A    between atoms: C_16  and  O_26
REMARK                            x       y       z     vdW  Elec       q    Type
REMARK                         _______ _______ _______ _____ _____    ______ ____
ROOT
ATOM      1  N   UNL     1      -0.469  -6.227  -2.317  0.00  0.00    -0.297 N 
ATOM      2  C   UNL     1      -0.194  -6.875  -3.466  0.00  0.00    +0.300 C 
ATOM      3  O   UNL     1       0.011  -6.245  -4.486  0.00  0.00    -0.253 OA
ATOM      4  N   UNL     1      -0.146  -8.222  -3.485  0.00  0.00    -0.296 N 
ATOM      5  H   UNL     1      -0.632  -6.730  -1.504  0.00  0.00    +0.151 HD
ATOM      6  H   UNL     1      -0.309  -8.725  -2.672  0.00  0.00    +0.150 HD
ENDROOT
BRANCH   1  10
ATOM      7  C   UNL     1      -0.060  -2.214  -0.928  0.00  0.00    +0.075 C 
ATOM      8  C   UNL     1      -1.471  -2.772  -1.123  0.00  0.00    +0.014 C 
ATOM      9  C   UNL     1      -1.416  -4.301  -1.144  0.00  0.00    +0.023 C 
ATOM     10  C   UNL     1      -0.522  -4.763  -2.296  0.00  0.00    +0.074 C 
ATOM     11  C   UNL     1       0.889  -4.205  -2.102  0.00  0.00    +0.023 C 
ATOM     12  C   UNL     1       0.834  -2.676  -2.081  0.00  0.00    +0.014 C 
BRANCH   7  15
ATOM     13  C   UNL     1      -0.900   1.391   0.050  0.00  0.00    +0.128 C 
ATOM     14  N   UNL     1      -0.847  -0.073   0.029  0.00  0.00    -0.318 N 
ATOM     15  C   UNL     1      -0.114  -0.708  -0.907  0.00  0.00    +0.216 C 
ATOM     16  O   UNL     1       0.502  -0.068  -1.732  0.00  0.00    -0.276 OA
ATOM     17  H   UNL     1      -1.340  -0.586   0.689  0.00  0.00    +0.148 HD
ENDBRANCH   7  15
ENDBRANCH   1  10
BRANCH   4  18
ATOM     18  C   UNL     1       0.153  -8.927  -4.734  0.00  0.00    +0.145 C 
BRANCH  18  19
ATOM     19  C   UNL     1       0.278 -10.426  -4.457  0.00  0.00    +0.107 C 
ATOM     20  C   UNL     1       1.353 -10.655  -3.396  0.00  0.00    +0.041 C 
ATOM     21  C   UNL     1       1.615 -12.162  -3.291  0.00  0.00    +0.008 C 
ATOM     22  C   UNL     1       2.321 -12.618  -4.566  0.00  0.00    +0.035 C 
ATOM     23  C   UNL     1       1.569 -12.149  -5.784  0.00  0.00    -0.041 A 
ATOM     24  C   UNL     1       0.633 -11.140  -5.735  0.00  0.00    -0.011 A 
ATOM     25  C   UNL     1      -0.020 -10.751  -6.896  0.00  0.00    +0.007 A 
ATOM     26  C   UNL     1       0.258 -11.369  -8.098  0.00  0.00    +0.000 A 
ATOM     27  C   UNL     1       1.194 -12.385  -8.147  0.00  0.00    +0.000 A 
ATOM     28  C   UNL     1       1.846 -12.772  -6.994  0.00  0.00    +0.004 A 
BRANCH  19  29
ATOM     29  O   UNL     1      -0.973 -10.921  -3.973  0.00  0.00    -0.382 OA
ATOM     30  H   UNL     1      -1.708 -10.803  -4.590  0.00  0.00    +0.211 HD
ENDBRANCH  19  29
ENDBRANCH  18  19
ENDBRANCH   4  18
TORSDOF 5
