REMARK  Name = ZINC65538608
REMARK  5 active torsions:
REMARK  status: ('A' for Active; 'I' for Inactive)
REMARK    1  A    between atoms: C_1  and  C_2
REMARK    2  A    between atoms: C_2  and  N_3
REMARK    3  A    between atoms: C_6  and  N_9
REMARK    4  A    between atoms: N_12  and  C_13
REMARK    5  A    between atoms: C_15  and  C_21
REMARK                            x       y       z     vdW  Elec       q    Type
REMARK                         _______ _______ _______ _____ _____    ______ ____
ROOT
ATOM      1  N   UNL     1      -4.916  -2.603  -0.774  0.00  0.00    -0.296 N 
ATOM      2  C   UNL     1      -5.276  -3.853  -1.128  0.00  0.00    +0.304 C 
ATOM      3  O   UNL     1      -4.424  -4.676  -1.402  0.00  0.00    -0.252 OA
ATOM      4  N   UNL     1      -6.580  -4.191  -1.177  0.00  0.00    -0.265 N 
ATOM      5  H   UNL     1      -5.596  -1.947  -0.555  0.00  0.00    +0.151 HD
ATOM      6  H   UNL     1      -7.256  -3.558  -0.888  0.00  0.00    +0.157 HD
ENDROOT
BRANCH   4   7
ATOM      7  C   UNL     1      -6.959  -5.456  -1.648  0.00  0.00    +0.100 A 
ATOM      8  C   UNL     1      -7.682  -6.302  -0.852  0.00  0.00    +0.042 A 
ATOM      9  C   UNL     1      -8.048  -7.561  -1.347  0.00  0.00    +0.073 A 
ATOM     10  C   UNL     1      -7.688  -7.928  -2.598  0.00  0.00    +0.098 A 
ATOM     11  N   UNL     1      -6.969  -7.089  -3.390  0.00  0.00    -0.327 N 
ATOM     12  H   UNL     1      -6.720  -7.370  -4.285  0.00  0.00    +0.168 HD
ATOM     13  C   UNL     1      -6.605  -5.870  -2.950  0.00  0.00    +0.270 A 
ATOM     14  O   UNL     1      -5.964  -5.125  -3.675  0.00  0.00    -0.266 OA
BRANCH   9  15
ATOM     15  C   UNL     1      -8.844  -8.507  -0.485  0.00  0.00    +0.419 C 
ATOM     16  F   UNL     1      -9.087  -9.690  -1.191  0.00  0.00    -0.166 F 
ATOM     17  F   UNL     1      -8.122  -8.798   0.678  0.00  0.00    -0.166 F 
ATOM     18  F   UNL     1     -10.062  -7.911  -0.140  0.00  0.00    -0.166 F 
ENDBRANCH   9  15
ENDBRANCH   4   7
BRANCH   1  22
ATOM     19  N   UNL     1      -1.394  -0.708   0.555  0.00  0.00    +0.380 N 
ATOM     20  C   UNL     1      -1.879  -0.338  -0.780  0.00  0.00    -0.077 C 
ATOM     21  C   UNL     1      -3.353  -0.725  -0.917  0.00  0.00    +0.004 C 
ATOM     22  C   UNL     1      -3.499  -2.237  -0.720  0.00  0.00    +0.071 C 
ATOM     23  C   UNL     1      -2.922  -2.621   0.646  0.00  0.00    +0.004 C 
ATOM     24  C   UNL     1      -1.464  -2.164   0.725  0.00  0.00    -0.077 C 
ATOM     25  H   UNL     1      -1.968  -0.261   1.255  0.00  0.00    -0.082 HD
BRANCH  19  27
ATOM     26  C   UNL     1       0.055   1.264   0.657  0.00  0.00    -0.017 C 
ATOM     27  C   UNL     1      -0.002  -0.265   0.709  0.00  0.00    -0.082 C 
ENDBRANCH  19  27
ENDBRANCH   1  22
TORSDOF 4
