REMARK  Name = ZINC04028315
REMARK  7 active torsions:
REMARK  status: ('A' for Active; 'I' for Inactive)
REMARK    1  A    between atoms: C_1  and  N_45
REMARK    2  A    between atoms: C_8  and  O_21
REMARK    3  A    between atoms: C_10  and  C_12
REMARK    4  A    between atoms: C_12  and  C_13
REMARK    5  A    between atoms: C_13  and  C_16
REMARK    6  A    between atoms: N_14  and  O_15
REMARK    7  A    between atoms: O_21  and  C_22
REMARK                            x       y       z     vdW  Elec       q    Type
REMARK                         _______ _______ _______ _____ _____    ______ ____
ROOT
ATOM      1  C   UNL     1      -2.799   6.966   0.478  0.00  0.00    -0.095 C 
ATOM      2  C   UNL     1      -0.558   6.544  -0.340  0.00  0.00    -0.074 C 
ATOM      3  C   UNL     1       0.716   5.775   0.011  0.00  0.00    +0.017 C 
ATOM      4  C   UNL     1       0.443   4.293  -0.001  0.00  0.00    -0.040 A 
ATOM      5  C   UNL     1       1.523   3.424  -0.057  0.00  0.00    +0.053 A 
ATOM      6  C   UNL     1       1.323   2.054  -0.060  0.00  0.00    +0.170 A 
ATOM      7  C   UNL     1       0.029   1.546  -0.006  0.00  0.00    +0.208 A 
ATOM      8  C   UNL     1      -1.049   2.418   0.043  0.00  0.00    +0.167 A 
ATOM      9  C   UNL     1      -0.841   3.794   0.048  0.00  0.00    -0.012 A 
ATOM     10  C   UNL     1      -2.044   4.699   0.103  0.00  0.00    -0.028 C 
ATOM     11  O   UNL     1       0.094   0.182  -0.018  0.00  0.00    -0.449 OA
ATOM     12  C   UNL     1       1.453  -0.141   0.331  0.00  0.00    +0.467 C 
ATOM     13  O   UNL     1       2.200   1.009  -0.107  0.00  0.00    -0.452 OA
ATOM     14  N   UNL     1      -1.640   6.048   0.534  0.00  0.00    +0.383 N 
ATOM     15  H   UNL     1      -1.296   6.002   1.500  0.00  0.00    -0.081 HD
ENDROOT
BRANCH   8  16
ATOM     16  O   UNL     1      -2.316   1.925   0.089  0.00  0.00    -0.491 OA
ATOM     17  C   UNL     1      -3.006   1.793  -1.156  0.00  0.00    +0.277 C 
ENDBRANCH   8  16
BRANCH  10  18
ATOM     18  C   UNL     1      -3.053   4.139   1.107  0.00  0.00    +0.052 C 
BRANCH  18  19
ATOM     19  C   UNL     1      -2.373   3.923   2.434  0.00  0.00    +0.121 C 
ATOM     20  N   UNL     1      -1.146   4.306   2.605  0.00  0.00    -0.088 NA
BRANCH  19  21
ATOM     21  C   UNL     1      -3.100   3.279   3.534  0.00  0.00    +0.152 A 
ATOM     22  C   UNL     1      -2.606   3.023   4.780  0.00  0.00    +0.051 A 
ATOM     23  C   UNL     1      -3.639   2.401   5.504  0.00  0.00    +0.042 A 
ATOM     24  C   UNL     1      -4.701   2.306   4.678  0.00  0.00    +0.196 A 
ATOM     25  O   UNL     1      -4.375   2.841   3.492  0.00  0.00    -0.462 OA
ENDBRANCH  19  21
BRANCH  20  26
ATOM     26  O   UNL     1      -0.507   4.102   3.852  0.00  0.00    -0.409 OA
ATOM     27  H   UNL     1       0.406   4.420   3.883  0.00  0.00    +0.328 HD
ENDBRANCH  20  26
ENDBRANCH  18  19
ENDBRANCH  10  18
TORSDOF 5
