REMARK  Name = ZINC52426234
REMARK  8 active torsions:
REMARK  status: ('A' for Active; 'I' for Inactive)
REMARK    1  A    between atoms: C_1  and  C_2
REMARK    2  A    between atoms: C_2  and  C_3
REMARK    3  A    between atoms: C_2  and  C_4
REMARK    4  A    between atoms: C_2  and  N_37
REMARK    5  A    between atoms: N_6  and  C_7
REMARK    6  A    between atoms: C_7  and  C_9
REMARK    7  A    between atoms: C_7  and  C_19
REMARK    8  A    between atoms: C_9  and  C_10
REMARK                            x       y       z     vdW  Elec       q    Type
REMARK                         _______ _______ _______ _____ _____    ______ ____
ROOT
ATOM      1  C   UNL     1      -3.057  -2.256  -0.474  0.00  0.00    +0.163 C 
ENDROOT
BRANCH   1   2
ATOM      2  C   UNL     1      -3.939  -1.333  -1.276  0.00  0.00    +0.236 C 
ATOM      3  O   UNL     1      -3.584  -0.195  -1.495  0.00  0.00    -0.274 OA
ATOM      4  N   UNL     1      -5.122  -1.774  -1.749  0.00  0.00    -0.300 N 
ATOM      5  C   UNL     1      -5.567  -3.149  -1.486  0.00  0.00    +0.109 C 
ATOM      6  C   UNL     1      -6.964  -3.104  -0.859  0.00  0.00    +0.032 C 
ATOM      7  C   UNL     1      -7.901  -2.303  -1.770  0.00  0.00    +0.020 C 
ATOM      8  C   UNL     1      -7.381  -0.866  -1.899  0.00  0.00    +0.032 C 
ATOM      9  C   UNL     1      -5.992  -0.886  -2.532  0.00  0.00    +0.109 C 
ATOM     10  C   UNL     1      -7.901  -2.954  -3.172  0.00  0.00    +0.183 C 
ATOM     11  S   UNL     1      -9.641  -2.614  -3.666  0.00  0.00    -0.002 S 
ATOM     12  O   UNL     1     -10.251  -3.773  -4.216  0.00  0.00    -0.169 OA
ATOM     13  O   UNL     1      -9.755  -1.345  -4.296  0.00  0.00    -0.169 OA
ATOM     14  C   UNL     1     -10.346  -2.417  -2.044  0.00  0.00    +0.092 A 
ATOM     15  C   UNL     1      -9.285  -2.278  -1.165  0.00  0.00    -0.015 A 
ATOM     16  C   UNL     1      -9.594  -2.126   0.191  0.00  0.00    +0.006 A 
ATOM     17  C   UNL     1     -10.900  -2.105   0.624  0.00  0.00    +0.000 A 
ATOM     18  C   UNL     1     -11.942  -2.234  -0.274  0.00  0.00    +0.002 A 
ATOM     19  C   UNL     1     -11.654  -2.392  -1.618  0.00  0.00    +0.027 A 
ENDBRANCH   1   2
BRANCH   1  22
ATOM     20  C   UNL     1      -1.412  -0.526   0.013  0.00  0.00    +0.202 C 
ATOM     21  O   UNL     1      -2.306   0.155   0.469  0.00  0.00    -0.277 OA
ATOM     22  N   UNL     1      -1.683  -1.749  -0.485  0.00  0.00    -0.305 N 
ATOM     23  H   UNL     1      -0.968  -2.293  -0.849  0.00  0.00    +0.149 HD
BRANCH  20  25
ATOM     24  C   UNL     1      -0.019   1.526   0.010  0.00  0.00    -0.001 C 
ATOM     25  C   UNL     1       0.002  -0.004   0.002  0.00  0.00    +0.001 C 
ATOM     26  C   UNL     1       0.742  -0.511   1.242  0.00  0.00    -0.001 C 
BRANCH  25  27
ATOM     27  N   UNL     1       0.690  -0.478  -1.207  0.00  0.00    +0.387 N 
ATOM     28  H   UNL     1       1.636  -0.129  -1.214  0.00  0.00    -0.089 HD
ATOM     29  H   UNL     1       0.703  -1.487  -1.212  0.00  0.00    -0.089 HD
ATOM     30  H   UNL     1       0.202  -0.144  -2.024  0.00  0.00    -0.089 HD
ENDBRANCH  25  27
ENDBRANCH  20  25
ENDBRANCH   1  22
BRANCH   1  31
ATOM     31  C   UNL     1      -3.565  -2.322   0.967  0.00  0.00    +0.065 C 
BRANCH  31  32
ATOM     32  C   UNL     1      -2.760  -3.337   1.738  0.00  0.00    -0.039 C 
ATOM     33  C   UNL     1      -1.681  -3.097   2.517  0.00  0.00    -0.001 A 
ATOM     34  C   UNL     1      -0.960  -1.866   2.866  0.00  0.00    +0.010 A 
ATOM     35  C   UNL     1       0.111  -1.944   3.688  0.00  0.00    +0.001 A 
ATOM     36  C   UNL     1       0.549  -3.167   4.214  0.00  0.00    +0.002 A 
ATOM     37  C   UNL     1      -0.061  -4.340   3.939  0.00  0.00    +0.026 A 
ATOM     38  C   UNL     1      -1.198  -4.375   3.085  0.00  0.00    +0.043 A 
ATOM     39  N   UNL     1      -1.950  -5.367   2.674  0.00  0.00    -0.380 N 
ATOM     40  C   UNL     1      -2.999  -4.829   1.802  0.00  0.00    +0.144 C 
ATOM     41  H   UNL     1      -1.834  -6.301   2.910  0.00  0.00    +0.160 HD
ENDBRANCH  31  32
ENDBRANCH   1  31
TORSDOF 6
