REMARK  Name = ZINC17086602
REMARK  8 active torsions:
REMARK  status: ('A' for Active; 'I' for Inactive)
REMARK    1  A    between atoms: C_1  and  C_2
REMARK    2  A    between atoms: C_6  and  C_8
REMARK    3  A    between atoms: C_8  and  N_9
REMARK    4  A    between atoms: C_16  and  C_19
REMARK    5  A    between atoms: C_16  and  O_29
REMARK    6  A    between atoms: C_19  and  C_20
REMARK    7  A    between atoms: C_20  and  C_22
REMARK    8  A    between atoms: C_27  and  O_28
REMARK                            x       y       z     vdW  Elec       q    Type
REMARK                         _______ _______ _______ _____ _____    ______ ____
ROOT
ATOM      1  N   UNL     1       1.192  -3.527  -1.928  0.00  0.00    -0.264 N 
ATOM      2  C   UNL     1       2.368  -3.752  -1.210  0.00  0.00    +0.043 A 
ATOM      3  C   UNL     1       3.466  -4.562  -1.492  0.00  0.00    +0.024 A 
ATOM      4  C   UNL     1       4.528  -4.619  -0.613  0.00  0.00    +0.002 A 
ATOM      5  C   UNL     1       4.512  -3.874   0.552  0.00  0.00    +0.000 A 
ATOM      6  C   UNL     1       3.424  -3.068   0.839  0.00  0.00    +0.009 A 
ATOM      7  C   UNL     1       2.363  -3.009  -0.037  0.00  0.00    +0.015 A 
ATOM      8  C   UNL     1       1.058  -2.248  -0.020  0.00  0.00    +0.175 C 
ATOM      9  C   UNL     1       0.373  -2.663  -1.305  0.00  0.00    +0.257 C 
ATOM     10  O   UNL     1      -0.711  -2.288  -1.697  0.00  0.00    -0.272 OA
ENDROOT
BRANCH   8  11
ATOM     11  O   UNL     1       0.273  -2.624   1.113  0.00  0.00    -0.374 OA
ATOM     12  H   UNL     1      -0.588  -2.187   1.158  0.00  0.00    +0.211 HD
ENDBRANCH   8  11
BRANCH   1  13
ATOM     13  C   UNL     1       0.886  -4.161  -3.213  0.00  0.00    +0.149 C 
BRANCH  13  19
ATOM     14  C   UNL     1      -3.392  -6.683  -2.597  0.00  0.00    +0.044 C 
ATOM     15  C   UNL     1      -1.887  -6.666  -2.678  0.00  0.00    -0.050 A 
ATOM     16  C   UNL     1      -1.174  -7.841  -2.532  0.00  0.00    +0.003 A 
ATOM     17  C   UNL     1       0.206  -7.825  -2.607  0.00  0.00    +0.001 A 
ATOM     18  C   UNL     1       0.873  -6.635  -2.832  0.00  0.00    +0.005 A 
ATOM     19  C   UNL     1       0.159  -5.459  -2.972  0.00  0.00    -0.029 A 
ATOM     20  C   UNL     1      -1.221  -5.475  -2.898  0.00  0.00    +0.008 A 
ENDBRANCH  13  19
ENDBRANCH   1  13
BRANCH   8  21
ATOM     21  C   UNL     1       1.317  -0.740  -0.015  0.00  0.00    +0.129 C 
BRANCH  21  22
ATOM     22  C   UNL     1       0.002  -0.004   0.002  0.00  0.00    +0.170 C 
ATOM     23  O   UNL     1      -1.040  -0.625   0.009  0.00  0.00    -0.292 OA
BRANCH  22  24
ATOM     24  C   UNL     1      -0.018   1.464   0.010  0.00  0.00    +0.059 A 
ATOM     25  C   UNL     1       1.182   2.185   0.003  0.00  0.00    +0.015 A 
ATOM     26  C   UNL     1       1.155   3.561   0.010  0.00  0.00    +0.001 A 
ATOM     27  C   UNL     1      -0.054   4.238   0.025  0.00  0.00    +0.004 A 
ATOM     28  C   UNL     1      -1.246   3.541   0.033  0.00  0.00    +0.046 A 
ATOM     29  C   UNL     1      -1.241   2.154   0.020  0.00  0.00    +0.127 A 
BRANCH  29  30
ATOM     30  O   UNL     1      -2.411   1.468   0.021  0.00  0.00    -0.506 OA
ATOM     31  H   UNL     1      -2.746   1.264   0.905  0.00  0.00    +0.292 HD
ENDBRANCH  29  30
ENDBRANCH  22  24
ENDBRANCH  21  22
ENDBRANCH   8  21
TORSDOF 7
