REMARK  Name = ZINC39465495
REMARK  5 active torsions:
REMARK  status: ('A' for Active; 'I' for Inactive)
REMARK    1  A    between atoms: C_4  and  C_7
REMARK    2  A    between atoms: C_7  and  C_8
REMARK    3  A    between atoms: C_13  and  S_14
REMARK    4  A    between atoms: S_14  and  O_17
REMARK    5  A    between atoms: O_17  and  C_18
REMARK                            x       y       z     vdW  Elec       q    Type
REMARK                         _______ _______ _______ _____ _____    ______ ____
ROOT
ATOM      1  C   UNL     1       4.318  -0.935   1.214  0.00  0.00    -0.014 A 
ATOM      2  C   UNL     1       5.185   0.026   1.691  0.00  0.00    +0.011 A 
ATOM      3  C   UNL     1       5.688  -0.060   2.982  0.00  0.00    -0.023 A 
ATOM      4  C   UNL     1       5.316  -1.113   3.789  0.00  0.00    -0.039 A 
ATOM      5  C   UNL     1       4.444  -2.078   3.309  0.00  0.00    +0.034 A 
ATOM      6  C   UNL     1       3.941  -1.988   2.026  0.00  0.00    +0.132 A 
ATOM      7  C   UNL     1       5.838  -1.249   5.196  0.00  0.00    +0.052 C 
ATOM      8  C   UNL     1       6.380   0.098   5.675  0.00  0.00    +0.108 C 
ATOM      9  N   UNL     1       7.327   0.610   4.674  0.00  0.00    -0.224 NA
ATOM     10  C   UNL     1       6.630   1.016   3.453  0.00  0.00    +0.130 C 
ATOM     11  C   UNL     1       7.625   1.335   2.333  0.00  0.00    +0.196 C 
ATOM     12  O   UNL     1       8.447   2.444   2.747  0.00  0.00    -0.292 OA
ATOM     13  P   UNL     1       9.155   2.375   4.210  0.00  0.00    +0.448 P 
ATOM     14  O   UNL     1       9.482   3.798   4.713  0.00  0.00    -0.236 OA
ATOM     15  N   UNL     1       8.048   1.656   5.206  0.00  0.00    -0.154 NA
ATOM     16  O   UNL     1      10.444   1.526   4.138  0.00  0.00    -0.126 OA
ATOM     17  H   UNL     1       7.914   1.956   6.119  0.00  0.00    +0.153 HD
ENDROOT
BRANCH   6  18
ATOM     18  S   UNL     1       2.829  -3.215   1.425  0.00  0.00    +0.151 S 
ATOM     19  O   UNL     1       1.516  -2.741   1.695  0.00  0.00    -0.131 OA
ATOM     20  O   UNL     1       3.263  -3.549   0.113  0.00  0.00    -0.131 OA
BRANCH  18  21
ATOM     21  O   UNL     1       3.026  -4.459   2.278  0.00  0.00    -0.342 OA
BRANCH  21  22
ATOM     22  C   UNL     1       4.146  -5.167   1.974  0.00  0.00    +0.157 A 
ATOM     23  C   UNL     1       4.126  -6.085   0.934  0.00  0.00    +0.048 A 
ATOM     24  C   UNL     1       5.265  -6.803   0.626  0.00  0.00    +0.004 A 
ATOM     25  C   UNL     1       6.425  -6.606   1.352  0.00  0.00    +0.000 A 
ATOM     26  C   UNL     1       6.448  -5.692   2.389  0.00  0.00    +0.004 A 
ATOM     27  C   UNL     1       5.312  -4.967   2.697  0.00  0.00    +0.048 A 
ENDBRANCH  21  22
ENDBRANCH  18  21
ENDBRANCH   6  18
BRANCH   1  28
ATOM     28  C   UNL     1       3.777  -0.834  -0.190  0.00  0.00    +0.072 C 
BRANCH  28  32
ATOM     29  C   UNL     1       0.065   1.278  -0.140  0.00  0.00    +0.000 A 
ATOM     30  C   UNL     1       1.258   1.976  -0.130  0.00  0.00    +0.000 A 
ATOM     31  C   UNL     1       2.459   1.293  -0.146  0.00  0.00    +0.004 A 
ATOM     32  C   UNL     1       2.468  -0.089  -0.171  0.00  0.00    -0.043 A 
ATOM     33  C   UNL     1       1.275  -0.788  -0.180  0.00  0.00    +0.004 A 
ATOM     34  C   UNL     1       0.073  -0.104  -0.166  0.00  0.00    +0.000 A 
ENDBRANCH  28  32
ENDBRANCH   1  28
TORSDOF 5
