REMARK  Name = ZINC30876616
REMARK  8 active torsions:
REMARK  status: ('A' for Active; 'I' for Inactive)
REMARK    1  A    between atoms: C_1  and  C_2
REMARK    2  A    between atoms: C_5  and  C_7
REMARK    3  A    between atoms: N_9  and  C_10
REMARK    4  A    between atoms: C_13  and  C_16
REMARK    5  A    between atoms: N_18  and  C_19
REMARK    6  A    between atoms: C_19  and  C_20
REMARK    7  A    between atoms: C_20  and  N_21
REMARK    8  A    between atoms: C_25  and  C_26
REMARK                            x       y       z     vdW  Elec       q    Type
REMARK                         _______ _______ _______ _____ _____    ______ ____
ROOT
ATOM      1  C   UNL     1      -2.831  -3.499  -0.142  0.00  0.00    +0.244 C 
ATOM      2  O   UNL     1      -2.377  -3.439  -1.268  0.00  0.00    -0.270 OA
ATOM      3  N   UNL     1      -2.267  -2.784   0.851  0.00  0.00    -0.310 N 
ATOM      4  H   UNL     1      -2.678  -2.838   1.870  0.00  0.00    +0.149 HD
ENDROOT
BRANCH   1   8
ATOM      5  C   UNL     1      -6.194  -5.966   0.664  0.00  0.00    +0.033 A 
ATOM      6  C   UNL     1      -5.676  -5.898  -0.626  0.00  0.00    +0.024 A 
ATOM      7  C   UNL     1      -4.586  -5.100  -0.890  0.00  0.00    +0.015 A 
ATOM      8  C   UNL     1      -4.000  -4.357   0.138  0.00  0.00    +0.037 A 
ATOM      9  C   UNL     1      -4.519  -4.431   1.433  0.00  0.00    +0.015 A 
ATOM     10  C   UNL     1      -5.612  -5.228   1.690  0.00  0.00    +0.024 A 
BRANCH   5  13
ATOM     11  C   UNL     1      -7.504  -7.892   0.202  0.00  0.00    +0.221 C 
ATOM     12  O   UNL     1      -6.688  -8.236  -0.626  0.00  0.00    -0.275 OA
ATOM     13  N   UNL     1      -7.298  -6.775   0.928  0.00  0.00    -0.285 N 
ATOM     14  H   UNL     1      -8.000  -6.503   1.730  0.00  0.00    +0.155 HD
BRANCH  11  18
ATOM     15  C   UNL     1     -10.347 -10.336  -0.867  0.00  0.00    +0.008 C 
ATOM     16  C   UNL     1      -8.925  -9.969  -0.436  0.00  0.00    -0.002 C 
ATOM     17  C   UNL     1      -8.582 -10.097   1.049  0.00  0.00    +0.017 C 
ATOM     18  C   UNL     1      -8.749  -8.713   0.419  0.00  0.00    +0.078 C 
ENDBRANCH  11  18
ENDBRANCH   5  13
ENDBRANCH   1   8
BRANCH   3  19
ATOM     19  C   UNL     1      -1.107  -1.933   0.573  0.00  0.00    +0.124 C 
BRANCH  19  20
ATOM     20  C   UNL     1      -0.666  -1.236   1.862  0.00  0.00    +0.136 C 
BRANCH  20  21
ATOM     21  N   UNL     1       0.494  -0.385   1.584  0.00  0.00    -0.227 N 
ATOM     22  C   UNL     1       0.301   0.873   1.225  0.00  0.00    +0.260 C 
ATOM     23  O   UNL     1      -0.816   1.343   1.114  0.00  0.00    -0.269 OA
ATOM     24  C   UNL     1       1.512   1.678   0.958  0.00  0.00    +0.080 C 
ATOM     25  C   UNL     1       1.621   2.975   0.579  0.00  0.00    +0.028 C 
ATOM     26  S   UNL     1       2.792   0.470   1.273  0.00  0.00    -0.026 S 
ATOM     27  C   UNL     1       1.734  -0.903   1.700  0.00  0.00    +0.286 C 
ATOM     28  O   UNL     1       2.053  -2.032   2.018  0.00  0.00    -0.262 OA
BRANCH  25  29
ATOM     29  C   UNL     1       2.932   3.641   0.607  0.00  0.00    -0.024 A 
ATOM     30  C   UNL     1       4.026   3.015   1.215  0.00  0.00    +0.009 A 
ATOM     31  C   UNL     1       5.252   3.643   1.233  0.00  0.00    +0.020 A 
ATOM     32  C   UNL     1       5.401   4.896   0.659  0.00  0.00    +0.041 A 
ATOM     33  C   UNL     1       4.321   5.524   0.060  0.00  0.00    +0.020 A 
ATOM     34  C   UNL     1       3.090   4.906   0.030  0.00  0.00    +0.009 A 
ATOM     35 CL   UNL     1       6.949   5.682   0.692  0.00  0.00    -0.084 Cl
ENDBRANCH  25  29
ENDBRANCH  20  21
ENDBRANCH  19  20
ENDBRANCH   3  19
TORSDOF 7
