REMARK  Name = ZINC14546010
REMARK  5 active torsions:
REMARK  status: ('A' for Active; 'I' for Inactive)
REMARK    1  A    between atoms: C_1  and  C_2
REMARK    2  A    between atoms: C_5  and  O_26
REMARK    3  A    between atoms: C_15  and  C_18
REMARK    4  A    between atoms: C_23  and  O_24
REMARK    5  A    between atoms: O_24  and  C_25
REMARK                            x       y       z     vdW  Elec       q    Type
REMARK                         _______ _______ _______ _____ _____    ______ ____
ROOT
ATOM      1  C   UNL     1       1.259   1.897  -2.475  0.00  0.00    +0.044 C 
ATOM      2  C   UNL     1       2.013   1.950  -1.171  0.00  0.00    -0.045 A 
ATOM      3  C   UNL     1       3.335   2.353  -1.161  0.00  0.00    +0.007 A 
ATOM      4  C   UNL     1       4.026   2.400   0.036  0.00  0.00    +0.047 A 
ATOM      5  C   UNL     1       3.397   2.052   1.216  0.00  0.00    +0.138 A 
ATOM      6  C   UNL     1       2.057   1.649   1.219  0.00  0.00    +0.074 A 
ATOM      7  C   UNL     1       1.377   1.595   0.001  0.00  0.00    -0.013 A 
ATOM      8  C   UNL     1      -0.031   1.143   0.017  0.00  0.00    +0.049 C 
ATOM      9  C   UNL     1      -1.032   1.607  -0.975  0.00  0.00    -0.023 C 
ATOM     10  C   UNL     1      -2.214   1.660  -0.415  0.00  0.00    -0.030 C 
ATOM     11  C   UNL     1      -2.103   1.263   1.060  0.00  0.00    +0.033 C 
ATOM     12  C   UNL     1      -0.646   1.631   1.365  0.00  0.00    +0.029 C 
ATOM     13  C   UNL     1       0.093   0.846   2.428  0.00  0.00    +0.109 C 
ATOM     14  N   UNL     1       1.477   1.347   2.453  0.00  0.00    -0.334 N 
ATOM     15  H   UNL     1       2.072   0.738   2.993  0.00  0.00    +0.147 HD
ENDROOT
BRANCH  13  16
ATOM     16  C   UNL     1      -0.555   1.062   3.771  0.00  0.00    +0.015 A 
ATOM     17  C   UNL     1      -0.100   2.065   4.606  0.00  0.00    +0.009 A 
ATOM     18  C   UNL     1      -0.695   2.264   5.838  0.00  0.00    +0.001 A 
ATOM     19  C   UNL     1      -1.747   1.461   6.238  0.00  0.00    +0.004 A 
ATOM     20  C   UNL     1      -2.206   0.457   5.408  0.00  0.00    +0.046 A 
ATOM     21  C   UNL     1      -1.614   0.259   4.168  0.00  0.00    +0.125 A 
BRANCH  21  22
ATOM     22  O   UNL     1      -2.067  -0.725   3.347  0.00  0.00    -0.495 OA
ATOM     23  C   UNL     1      -3.160  -1.514   3.822  0.00  0.00    +0.277 C 
ENDBRANCH  21  22
ENDBRANCH  13  16
BRANCH   5  24
ATOM     24  O   UNL     1       4.088   2.102   2.386  0.00  0.00    -0.505 OA
ATOM     25  H   UNL     1       4.036   2.955   2.838  0.00  0.00    +0.292 HD
ENDBRANCH   5  24
TORSDOF 3
