REMARK  Name = ZINC20929360
REMARK  9 active torsions:
REMARK  status: ('A' for Active; 'I' for Inactive)
REMARK    1  A    between atoms: C_1  and  C_2
REMARK    2  A    between atoms: C_2  and  C_3
REMARK    3  A    between atoms: C_3  and  O_4
REMARK    4  A    between atoms: O_4  and  C_5
REMARK    5  A    between atoms: C_10  and  C_11
REMARK    6  A    between atoms: C_11  and  N_12
REMARK    7  A    between atoms: N_12  and  C_13
REMARK    8  A    between atoms: C_13  and  C_14
REMARK    9  A    between atoms: C_14  and  C_15
REMARK                            x       y       z     vdW  Elec       q    Type
REMARK                         _______ _______ _______ _____ _____    ______ ____
ROOT
ATOM      1  N   UNL     1       0.863  -1.158  -4.491  0.00  0.00    +0.382 N 
ATOM      2  H   UNL     1       0.337  -1.231  -3.527  0.00  0.00    -0.085 HD
ATOM      3  H   UNL     1       0.203  -1.515  -5.296  0.00  0.00    -0.085 HD
ENDROOT
BRANCH   1   4
ATOM      4  C   UNL     1       1.230   0.241  -4.743  0.00  0.00    -0.043 C 
BRANCH   4  10
ATOM      5  C   UNL     1      -0.617   1.496  -3.603  0.00  0.00    +0.122 A 
ATOM      6  C   UNL     1      -1.760   2.282  -3.644  0.00  0.00    +0.047 A 
ATOM      7  C   UNL     1      -2.300   2.651  -4.861  0.00  0.00    +0.019 A 
ATOM      8  C   UNL     1      -1.701   2.239  -6.038  0.00  0.00    +0.018 A 
ATOM      9  C   UNL     1      -0.561   1.456  -6.000  0.00  0.00    +0.020 A 
ATOM     10  C   UNL     1      -0.015   1.089  -4.785  0.00  0.00    -0.022 A 
ATOM     11 BR   UNL     1      -2.442   2.746  -7.702  0.00  0.00    -0.050 Br
BRANCH   5  12
ATOM     12  O   UNL     1      -0.084   1.132  -2.407  0.00  0.00    -0.492 OA
BRANCH  12  13
ATOM     13  C   UNL     1      -0.753   1.593  -1.232  0.00  0.00    +0.229 C 
BRANCH  13  15
ATOM     14  C   UNL     1      -0.729   1.579   1.267  0.00  0.00    +0.007 C 
ATOM     15  C   UNL     1      -0.013   1.086   0.008  0.00  0.00    +0.038 C 
ENDBRANCH  13  15
ENDBRANCH  12  13
ENDBRANCH   5  12
ENDBRANCH   4  10
ENDBRANCH   1   4
BRANCH   1  16
ATOM     16  C   UNL     1       2.054  -2.016  -4.444  0.00  0.00    -0.077 C 
BRANCH  16  17
ATOM     17  C   UNL     1       1.632  -3.462  -4.180  0.00  0.00    +0.018 C 
BRANCH  17  18
ATOM     18  C   UNL     1       2.854  -4.342  -4.132  0.00  0.00    -0.024 A 
ATOM     19  C   UNL     1       3.364  -5.057  -5.147  0.00  0.00    +0.087 A 
ATOM     20  N   UNL     1       4.480  -5.731  -4.729  0.00  0.00    -0.360 N 
ATOM     21  H   UNL     1       5.035  -6.366  -5.435  0.00  0.00    +0.165 HD
ATOM     22  C   UNL     1       4.716  -5.465  -3.399  0.00  0.00    +0.047 A 
ATOM     23  C   UNL     1       3.709  -4.583  -2.966  0.00  0.00    +0.003 A 
ATOM     24  C   UNL     1       3.695  -4.136  -1.644  0.00  0.00    +0.010 A 
ATOM     25  C   UNL     1       4.662  -4.558  -0.775  0.00  0.00    +0.001 A 
ATOM     26  C   UNL     1       5.658  -5.428  -1.197  0.00  0.00    +0.002 A 
ATOM     27  C   UNL     1       5.691  -5.881  -2.498  0.00  0.00    +0.026 A 
ENDBRANCH  17  18
ENDBRANCH  16  17
ENDBRANCH   1  16
TORSDOF 8
