REMARK  Name = ZINC10010973
REMARK  10 active torsions:
REMARK  status: ('A' for Active; 'I' for Inactive)
REMARK    1  A    between atoms: C_1  and  C_2
REMARK    2  A    between atoms: C_5  and  O_9
REMARK    3  A    between atoms: C_7  and  C_8
REMARK    4  A    between atoms: O_9  and  C_10
REMARK    5  A    between atoms: C_10  and  C_12
REMARK    6  A    between atoms: C_10  and  C_13
REMARK    7  A    between atoms: N_15  and  N_16
REMARK    8  A    between atoms: C_17  and  C_18
REMARK    9  A    between atoms: C_17  and  C_19
REMARK   10  A    between atoms: C_22  and  N_25
REMARK                            x       y       z     vdW  Elec       q    Type
REMARK                         _______ _______ _______ _____ _____    ______ ____
ROOT
ATOM      1  C   UNL     1       4.546   3.885   0.894  0.00  0.00    +0.273 C 
ATOM      2  O   UNL     1       4.263   4.978   1.339  0.00  0.00    -0.270 OA
ATOM      3  N   UNL     1       5.769   3.364   1.115  0.00  0.00    -0.204 N 
ATOM      4  H   UNL     1       5.996   2.490   0.759  0.00  0.00    +0.177 HD
ENDROOT
BRANCH   3   5
ATOM      5  N   UNL     1       6.714   4.084   1.857  0.00  0.00    -0.184 NA
ATOM      6  C   UNL     1       7.892   3.582   2.070  0.00  0.00    +0.063 C 
ATOM      7  C   UNL     1       8.244   2.224   1.518  0.00  0.00    +0.068 C 
BRANCH   6   8
ATOM      8  C   UNL     1       8.886   4.340   2.851  0.00  0.00    -0.002 A 
ATOM      9  C   UNL     1      10.153   3.798   3.086  0.00  0.00    +0.011 A 
ATOM     10  C   UNL     1      11.081   4.511   3.812  0.00  0.00    +0.023 A 
ATOM     11  C   UNL     1      10.755   5.764   4.322  0.00  0.00    +0.025 A 
ATOM     12  C   UNL     1       9.493   6.304   4.094  0.00  0.00    +0.023 A 
ATOM     13  C   UNL     1       8.562   5.599   3.364  0.00  0.00    +0.011 A 
BRANCH  11  14
ATOM     14  N   UNL     1      11.695   6.481   5.061  0.00  0.00    -0.358 N 
ATOM     15  H   UNL     1      11.469   7.355   5.417  0.00  0.00    +0.142 HD
ATOM     16  H   UNL     1      12.575   6.106   5.221  0.00  0.00    +0.142 HD
ENDBRANCH  11  14
ENDBRANCH   6   8
ENDBRANCH   3   5
BRANCH   1  17
ATOM     17  C   UNL     1       3.530   3.110   0.095  0.00  0.00    +0.257 C 
ATOM     18  C   UNL     1       4.078   2.846  -1.309  0.00  0.00    +0.062 C 
BRANCH  17  19
ATOM     19  O   UNL     1       2.321   3.867   0.000  0.00  0.00    -0.480 OA
BRANCH  19  24
ATOM     20  C   UNL     1      -2.439   0.985  -0.867  0.00  0.00    +0.044 C 
ATOM     21  C   UNL     1      -1.166   1.755  -0.631  0.00  0.00    -0.047 A 
ATOM     22  C   UNL     1       0.050   1.097  -0.635  0.00  0.00    +0.007 A 
ATOM     23  C   UNL     1       1.219   1.801  -0.425  0.00  0.00    +0.046 A 
ATOM     24  C   UNL     1       1.173   3.171  -0.206  0.00  0.00    +0.122 A 
ATOM     25  C   UNL     1      -0.049   3.828  -0.197  0.00  0.00    +0.049 A 
ATOM     26  C   UNL     1      -1.216   3.118  -0.407  0.00  0.00    -0.044 A 
ATOM     27  C   UNL     1      -2.543   3.832  -0.397  0.00  0.00    +0.044 C 
ENDBRANCH  19  24
ENDBRANCH  17  19
ENDBRANCH   1  17
TORSDOF 6
