REMARK  Name = ZINC04812846
REMARK  5 active torsions:
REMARK  status: ('A' for Active; 'I' for Inactive)
REMARK    1  A    between atoms: C_4  and  C_7
REMARK    2  A    between atoms: C_14  and  N_29
REMARK    3  A    between atoms: C_15  and  C_27
REMARK    4  A    between atoms: C_16  and  C_18
REMARK    5  A    between atoms: C_23  and  O_24
REMARK                            x       y       z     vdW  Elec       q    Type
REMARK                         _______ _______ _______ _____ _____    ______ ____
ROOT
ATOM      1  C   UNL     1       4.082  -1.028  -0.188  0.00  0.00    +0.100 A 
ATOM      2  C   UNL     1       4.175  -2.104   0.700  0.00  0.00    +0.054 A 
ATOM      3  C   UNL     1       5.436  -2.619   0.610  0.00  0.00    +0.223 A 
ATOM      4  N   UNL     1       6.111  -1.892  -0.305  0.00  0.00    -0.246 N 
ATOM      5  H   UNL     1       7.032  -2.031  -0.577  0.00  0.00    +0.192 HD
ATOM      6  N   UNL     1       5.246  -0.903  -0.797  0.00  0.00    -0.171 NA
ATOM      7  O   UNL     1       5.849  -3.677   1.351  0.00  0.00    -0.423 OA
ATOM      8  C   UNL     1       5.076  -4.052   2.389  0.00  0.00    +0.200 C 
ATOM      9  C   UNL     1       3.809  -3.621   2.579  0.00  0.00    +0.098 C 
ATOM     10  C   UNL     1       3.130  -2.667   1.627  0.00  0.00    +0.105 C 
ENDROOT
BRANCH  10  11
ATOM     11  C   UNL     1       2.085  -3.404   0.829  0.00  0.00    +0.010 A 
ATOM     12  C   UNL     1       2.463  -4.399  -0.053  0.00  0.00    +0.028 A 
ATOM     13  C   UNL     1       1.506  -5.075  -0.787  0.00  0.00    +0.043 A 
ATOM     14  C   UNL     1       0.167  -4.757  -0.640  0.00  0.00    +0.043 A 
ATOM     15  C   UNL     1      -0.216  -3.763   0.240  0.00  0.00    +0.084 A 
ATOM     16  C   UNL     1       0.744  -3.088   0.982  0.00  0.00    +0.139 A 
ATOM     17 CL   UNL     1      -1.895  -3.364   0.424  0.00  0.00    -0.080 Cl
ATOM     18 CL   UNL     1       1.984  -6.324  -1.894  0.00  0.00    -0.083 Cl
BRANCH  16  19
ATOM     19  O   UNL     1       0.370  -2.113   1.853  0.00  0.00    -0.505 OA
ATOM     20  H   UNL     1       0.248  -1.246   1.444  0.00  0.00    +0.292 HD
ENDBRANCH  16  19
ENDBRANCH  10  11
BRANCH   1  24
ATOM     21  C   UNL     1       0.651   1.401  -0.827  0.00  0.00    +0.000 A 
ATOM     22  C   UNL     1       1.013   1.045   0.460  0.00  0.00    +0.001 A 
ATOM     23  C   UNL     1       2.126   0.257   0.673  0.00  0.00    +0.010 A 
ATOM     24  C   UNL     1       2.885  -0.180  -0.411  0.00  0.00    +0.003 A 
ATOM     25  C   UNL     1       2.515   0.181  -1.705  0.00  0.00    +0.010 A 
ATOM     26  C   UNL     1       1.401   0.970  -1.906  0.00  0.00    +0.001 A 
ENDBRANCH   1  24
BRANCH   8  27
ATOM     27  N   UNL     1       5.606  -4.923   3.309  0.00  0.00    -0.328 N 
ATOM     28  H   UNL     1       6.513  -5.250   3.200  0.00  0.00    +0.145 HD
ATOM     29  H   UNL     1       5.074  -5.212   4.067  0.00  0.00    +0.145 HD
ENDBRANCH   8  27
BRANCH   9  30
ATOM     30  C   UNL     1       3.085  -4.086   3.723  0.00  0.00    +0.101 C 
ATOM     31  N   UNL     1       2.511  -4.455   4.631  0.00  0.00    -0.191 NA
ENDBRANCH   9  30
TORSDOF 5
