REMARK  Name = ZINC16929889
REMARK  6 active torsions:
REMARK  status: ('A' for Active; 'I' for Inactive)
REMARK    1  A    between atoms: C_4  and  O_26
REMARK    2  A    between atoms: C_5  and  C_7
REMARK    3  A    between atoms: N_9  and  N_10
REMARK    4  A    between atoms: C_14  and  C_15
REMARK    5  A    between atoms: C_18  and  O_22
REMARK    6  A    between atoms: C_19  and  O_21
REMARK                            x       y       z     vdW  Elec       q    Type
REMARK                         _______ _______ _______ _____ _____    ______ ____
ROOT
ATOM      1  N   UNL     1       1.475   2.072   0.788  0.00  0.00    -0.169 N 
ATOM      2  C   UNL     1       2.352   1.149   0.431  0.00  0.00    +0.275 C 
ATOM      3  O   UNL     1       3.517   1.425   0.210  0.00  0.00    -0.267 OA
ATOM      4  C   UNL     1       1.847  -0.233   0.314  0.00  0.00    +0.079 C 
ATOM      5  C   UNL     1       2.506  -1.369  -0.030  0.00  0.00    +0.028 C 
ATOM      6  S   UNL     1       0.128   0.001   0.748  0.00  0.00    -0.059 S 
ATOM      7  C   UNL     1       0.186   1.762   1.032  0.00  0.00    +0.138 C 
ATOM      8  S   UNL     1      -1.090   2.807   1.495  0.00  0.00    -0.026 S 
ENDROOT
BRANCH   5   9
ATOM      9  C   UNL     1       1.833  -2.670   0.080  0.00  0.00    -0.020 A 
ATOM     10  C   UNL     1       2.440  -3.821  -0.437  0.00  0.00    +0.012 A 
ATOM     11  C   UNL     1       1.807  -5.040  -0.332  0.00  0.00    +0.050 A 
ATOM     12  C   UNL     1       0.567  -5.131   0.286  0.00  0.00    +0.158 A 
ATOM     13  C   UNL     1      -0.044  -3.990   0.804  0.00  0.00    +0.159 A 
ATOM     14  C   UNL     1       0.585  -2.764   0.708  0.00  0.00    +0.057 A 
BRANCH  13  15
ATOM     15  O   UNL     1      -1.259  -4.085   1.409  0.00  0.00    -0.503 OA
ATOM     16  H   UNL     1      -1.213  -4.252   2.360  0.00  0.00    +0.292 HD
ENDBRANCH  13  15
BRANCH  12  17
ATOM     17  O   UNL     1      -0.052  -6.336   0.386  0.00  0.00    -0.503 OA
ATOM     18  H   UNL     1       0.166  -6.824   1.192  0.00  0.00    +0.292 HD
ENDBRANCH  12  17
ENDBRANCH   5   9
BRANCH   1  21
ATOM     19  C   UNL     1       2.067   3.941   2.140  0.00  0.00    +0.264 C 
ATOM     20  O   UNL     1       1.857   3.271   3.133  0.00  0.00    -0.269 OA
ATOM     21  N   UNL     1       1.895   3.403   0.916  0.00  0.00    -0.222 N 
ATOM     22  H   UNL     1       2.063   3.937   0.124  0.00  0.00    +0.174 HD
BRANCH  19  27
ATOM     23  C   UNL     1       3.165   7.422   1.269  0.00  0.00    +0.001 A 
ATOM     24  C   UNL     1       3.341   7.975   2.527  0.00  0.00    +0.004 A 
ATOM     25  C   UNL     1       3.105   7.223   3.660  0.00  0.00    +0.046 A 
ATOM     26  C   UNL     1       2.683   5.907   3.545  0.00  0.00    +0.129 A 
ATOM     27  C   UNL     1       2.509   5.341   2.275  0.00  0.00    +0.079 A 
ATOM     28  C   UNL     1       2.752   6.114   1.136  0.00  0.00    +0.017 A 
BRANCH  26  29
ATOM     29  O   UNL     1       2.445   5.168   4.658  0.00  0.00    -0.506 OA
ATOM     30  H   UNL     1       3.219   4.687   4.984  0.00  0.00    +0.292 HD
ENDBRANCH  26  29
ENDBRANCH  19  27
ENDBRANCH   1  21
TORSDOF 6
