REMARK  Name = ZINC06284058
REMARK  9 active torsions:
REMARK  status: ('A' for Active; 'I' for Inactive)
REMARK    1  A    between atoms: C_1  and  C_2
REMARK    2  A    between atoms: C_2  and  C_3
REMARK    3  A    between atoms: C_6  and  C_8
REMARK    4  A    between atoms: C_10  and  C_32
REMARK    5  A    between atoms: C_11  and  N_31
REMARK    6  A    between atoms: N_12  and  C_22
REMARK    7  A    between atoms: C_18  and  C_20
REMARK    8  A    between atoms: C_18  and  C_21
REMARK    9  A    between atoms: C_25  and  N_28
REMARK                            x       y       z     vdW  Elec       q    Type
REMARK                         _______ _______ _______ _____ _____    ______ ____
ROOT
ATOM      1  C   UNL     1      -1.397  -1.750   0.184  0.00  0.00    +0.104 C 
ATOM      2  C   UNL     1      -0.960  -0.472   0.839  0.00  0.00    +0.077 C 
ATOM      3  C   UNL     1       0.295   0.014   0.660  0.00  0.00    +0.107 C 
ATOM      4  N   UNL     1       1.198  -0.675  -0.117  0.00  0.00    -0.260 N 
ATOM      5  C   UNL     1       1.011  -2.005  -0.389  0.00  0.00    +0.025 C 
ATOM      6  C   UNL     1      -0.209  -2.567  -0.258  0.00  0.00    +0.026 C 
ATOM      7  C   UNL     1      -0.412  -3.931  -0.533  0.00  0.00    +0.162 C 
ATOM      8  O   UNL     1      -1.518  -4.411  -0.387  0.00  0.00    -0.292 OA
ATOM      9  C   UNL     1       0.717  -4.807  -1.004  0.00  0.00    +0.086 C 
ATOM     10  C   UNL     1       1.734  -3.946  -1.759  0.00  0.00    -0.023 C 
ATOM     11  C   UNL     1       2.200  -2.821  -0.831  0.00  0.00    +0.058 C 
ATOM     12  C   UNL     1       1.078  -3.346  -3.004  0.00  0.00    +0.011 C 
ATOM     13  C   UNL     1       2.934  -4.801  -2.171  0.00  0.00    +0.011 C 
ENDROOT
BRANCH   4  14
ATOM     14  C   UNL     1       2.318  -0.012  -0.634  0.00  0.00    +0.040 A 
ATOM     15  C   UNL     1       3.498   0.035   0.097  0.00  0.00    +0.026 A 
ATOM     16  C   UNL     1       4.602   0.686  -0.418  0.00  0.00    +0.034 A 
ATOM     17  C   UNL     1       4.530   1.299  -1.655  0.00  0.00    +0.126 A 
ATOM     18  C   UNL     1       3.355   1.259  -2.383  0.00  0.00    +0.034 A 
ATOM     19  C   UNL     1       2.249   0.606  -1.876  0.00  0.00    +0.026 A 
BRANCH  17  20
ATOM     20  N   UNL     1       5.714   2.000  -2.201  0.00  0.00    +0.056 N 
ATOM     21  O   UNL     1       5.652   2.542  -3.291  0.00  0.00    -0.126 OA
ATOM     22  O   UNL     1       6.750   2.037  -1.561  0.00  0.00    -0.126 OA
ENDBRANCH  17  20
ENDBRANCH   4  14
BRANCH   1  26
ATOM     23  C   UNL     1      -3.390  -0.638  -3.329  0.00  0.00    -0.010 A 
ATOM     24  C   UNL     1      -4.130  -1.344  -2.439  0.00  0.00    +0.011 A 
ATOM     25  C   UNL     1      -3.545  -1.749  -1.254  0.00  0.00    +0.012 A 
ATOM     26  C   UNL     1      -2.249  -1.429  -1.017  0.00  0.00    +0.003 A 
ATOM     27  S   UNL     1      -1.817  -0.522  -2.493  0.00  0.00    -0.097 S 
BRANCH  23  29
ATOM     28  C   UNL     1      -4.348   1.325  -4.503  0.00  0.00    +0.009 C 
ATOM     29  C   UNL     1      -3.793  -0.090  -4.674  0.00  0.00    +0.039 C 
ENDBRANCH  23  29
ENDBRANCH   1  26
BRANCH   3  30
ATOM     30  N   UNL     1       0.666   1.194   1.261  0.00  0.00    -0.345 N 
ATOM     31  H   UNL     1       1.586   1.495   1.211  0.00  0.00    +0.144 HD
ATOM     32  H   UNL     1       0.006   1.726   1.732  0.00  0.00    +0.144 HD
ENDBRANCH   3  30
BRANCH   2  33
ATOM     33  C   UNL     1      -1.884   0.248   1.663  0.00  0.00    +0.099 C 
ATOM     34  N   UNL     1      -2.616   0.819   2.317  0.00  0.00    -0.191 NA
ENDBRANCH   2  33
TORSDOF 6
