REMARK  Name = ZINC64411180
REMARK  6 active torsions:
REMARK  status: ('A' for Active; 'I' for Inactive)
REMARK    1  A    between atoms: C_1  and  C_2
REMARK    2  A    between atoms: C_2  and  O_3
REMARK    3  A    between atoms: O_3  and  C_4
REMARK    4  A    between atoms: C_9  and  N_12
REMARK    5  A    between atoms: C_13  and  C_15
REMARK    6  A    between atoms: C_18  and  C_20
REMARK                            x       y       z     vdW  Elec       q    Type
REMARK                         _______ _______ _______ _____ _____    ______ ____
ROOT
ATOM      1  N   UNL     1       1.161  -3.643  -6.387  0.00  0.00    -0.307 N 
ATOM      2  C   UNL     1       1.687  -4.696  -7.042  0.00  0.00    +0.263 C 
ATOM      3  O   UNL     1       2.583  -5.342  -6.534  0.00  0.00    -0.269 OA
ATOM      4  H   UNL     1       0.446  -3.127  -6.792  0.00  0.00    +0.149 HD
ENDROOT
BRANCH   1  10
ATOM      5  C   UNL     1       0.776  -1.798  -1.335  0.00  0.00    +0.403 C 
ATOM      6  O   UNL     1       0.312  -2.549  -0.500  0.00  0.00    -0.226 OA
ATOM      7  N   UNL     1       1.395  -2.298  -2.422  0.00  0.00    -0.267 N 
ATOM      8  C   UNL     1       1.966  -1.403  -3.437  0.00  0.00    +0.113 C 
ATOM      9  C   UNL     1       1.404  -1.790  -4.809  0.00  0.00    +0.041 C 
ATOM     10  C   UNL     1       1.667  -3.276  -5.062  0.00  0.00    +0.076 C 
ATOM     11  C   UNL     1       0.956  -4.111  -3.995  0.00  0.00    +0.041 C 
ATOM     12  C   UNL     1       1.517  -3.750  -2.611  0.00  0.00    +0.113 C 
BRANCH   5  13
ATOM     13  O   UNL     1       0.671  -0.465  -1.174  0.00  0.00    -0.451 OA
BRANCH  13  15
ATOM     14  C   UNL     1      -0.019   1.526   0.010  0.00  0.00    +0.048 C 
ATOM     15  C   UNL     1       0.002  -0.004   0.002  0.00  0.00    +0.230 C 
ENDBRANCH  13  15
ENDBRANCH   5  13
ENDBRANCH   1  10
BRANCH   2  16
ATOM     16  C   UNL     1       1.178  -5.064  -8.374  0.00  0.00    +0.133 A 
ATOM     17  C   UNL     1       1.679  -6.130  -9.073  0.00  0.00    +0.080 A 
ATOM     18  S   UNL     1       0.768  -6.098 -10.483  0.00  0.00    -0.077 S 
ATOM     19  C   UNL     1      -0.199  -4.766 -10.152  0.00  0.00    +0.105 A 
ATOM     20  N   UNL     1       0.195  -4.382  -8.969  0.00  0.00    -0.237 NA
BRANCH  19  21
ATOM     21  C   UNL     1      -1.274  -4.161 -11.017  0.00  0.00    +0.159 C 
ATOM     22  C   UNL     1      -2.493  -5.056 -11.037  0.00  0.00    +0.014 C 
ATOM     23  C   UNL     1      -2.671  -5.418 -12.328  0.00  0.00    -0.004 A 
ATOM     24  C   UNL     1      -3.666  -6.266 -12.995  0.00  0.00    +0.010 A 
ATOM     25  C   UNL     1      -3.584  -6.445 -14.333  0.00  0.00    +0.001 A 
ATOM     26  C   UNL     1      -2.575  -5.843 -15.097  0.00  0.00    +0.002 A 
ATOM     27  C   UNL     1      -1.625  -5.051 -14.556  0.00  0.00    +0.026 A 
ATOM     28  C   UNL     1      -1.616  -4.793 -13.158  0.00  0.00    +0.043 A 
ATOM     29  N   UNL     1      -0.815  -4.072 -12.408  0.00  0.00    -0.372 N 
ATOM     30  H   UNL     1      -0.049  -3.566 -12.720  0.00  0.00    +0.161 HD
ENDBRANCH  19  21
ENDBRANCH   2  16
TORSDOF 5
