REMARK  Name = ZINC64491501
REMARK  9 active torsions:
REMARK  status: ('A' for Active; 'I' for Inactive)
REMARK    1  A    between atoms: C_4  and  N_7
REMARK    2  A    between atoms: C_8  and  C_10
REMARK    3  A    between atoms: C_14  and  C_17
REMARK    4  A    between atoms: C_17  and  C_18
REMARK    5  A    between atoms: C_18  and  C_19
REMARK    6  A    between atoms: C_19  and  C_20
REMARK    7  A    between atoms: N_22  and  C_23
REMARK    8  A    between atoms: C_23  and  C_24
REMARK    9  A    between atoms: C_24  and  C_25
REMARK                            x       y       z     vdW  Elec       q    Type
REMARK                         _______ _______ _______ _____ _____    ______ ____
ROOT
ATOM      1  C   UNL     1       5.974  -8.472   2.173  0.00  0.00    +0.096 C 
ENDROOT
BRANCH   1   2
ATOM      2  C   UNL     1       5.295  -9.749   1.749  0.00  0.00    +0.213 C 
ATOM      3  O   UNL     1       4.201  -9.709   1.227  0.00  0.00    -0.276 OA
ATOM      4  N   UNL     1       5.903 -10.935   1.950  0.00  0.00    -0.315 N 
ATOM      5  H   UNL     1       6.778 -10.966   2.368  0.00  0.00    +0.149 HD
BRANCH   4   6
ATOM      6  C   UNL     1       5.243 -12.176   1.538  0.00  0.00    +0.108 C 
BRANCH   6   7
ATOM      7  C   UNL     1       6.140 -13.368   1.877  0.00  0.00    +0.052 C 
BRANCH   7   8
ATOM      8  C   UNL     1       5.461 -14.644   1.453  0.00  0.00    -0.040 C 
ATOM      9  C   UNL     1       5.637 -15.312   0.290  0.00  0.00    +0.000 A 
ATOM     10  C   UNL     1       6.480 -15.057  -0.884  0.00  0.00    +0.030 A 
ATOM     11  C   UNL     1       6.440 -15.925  -1.921  0.00  0.00    +0.042 A 
ATOM     12  C   UNL     1       5.613 -17.059  -1.902  0.00  0.00    +0.022 A 
ATOM     13  C   UNL     1       4.811 -17.358  -0.859  0.00  0.00    +0.027 A 
ATOM     14  C   UNL     1       4.774 -16.515   0.285  0.00  0.00    +0.043 A 
ATOM     15  N   UNL     1       4.092 -16.588   1.402  0.00  0.00    -0.380 N 
ATOM     16  C   UNL     1       4.450 -15.443   2.245  0.00  0.00    +0.144 C 
ATOM     17 CL   UNL     1       7.436 -15.628  -3.312  0.00  0.00    -0.084 Cl
ATOM     18  H   UNL     1       3.459 -17.286   1.634  0.00  0.00    +0.160 HD
ENDBRANCH   7   8
ENDBRANCH   6   7
ENDBRANCH   4   6
ENDBRANCH   1   2
BRANCH   1  19
ATOM     19  C   UNL     1       5.077  -7.280   1.834  0.00  0.00    +0.012 C 
BRANCH  19  20
ATOM     20  C   UNL     1       5.767  -5.984   2.264  0.00  0.00    +0.040 C 
BRANCH  20  24
ATOM     21  C   UNL     1       4.962  -2.721   0.153  0.00  0.00    +0.272 C 
ATOM     22  N   UNL     1       5.554  -2.587   1.503  0.00  0.00    -0.167 NA
ATOM     23  N   UNL     1       5.513  -3.510   2.293  0.00  0.00    -0.177 NA
ATOM     24  C   UNL     1       4.869  -4.792   1.925  0.00  0.00    +0.187 C 
ATOM     25  S   UNL     1       4.726  -4.554   0.096  0.00  0.00    -0.095 S 
BRANCH  21  27
ATOM     26  N   UNL     1       3.622  -0.651  -0.037  0.00  0.00    -0.283 N 
ATOM     27  C   UNL     1       3.645  -1.995   0.057  0.00  0.00    +0.254 C 
ATOM     28  O   UNL     1       2.606  -2.620   0.064  0.00  0.00    -0.272 OA
ATOM     29  H   UNL     1       4.452  -0.156  -0.121  0.00  0.00    +0.155 HD
BRANCH  26  33
ATOM     30  C   UNL     1      -0.015   1.381   0.029  0.00  0.00    +0.000 A 
ATOM     31  C   UNL     1       0.140   0.218   0.763  0.00  0.00    +0.002 A 
ATOM     32  C   UNL     1       1.344  -0.457   0.743  0.00  0.00    +0.023 A 
ATOM     33  C   UNL     1       2.400   0.031  -0.015  0.00  0.00    +0.033 A 
ATOM     34  C   UNL     1       2.241   1.198  -0.751  0.00  0.00    +0.023 A 
ATOM     35  C   UNL     1       1.034   1.870  -0.727  0.00  0.00    +0.002 A 
ENDBRANCH  26  33
ENDBRANCH  21  27
ENDBRANCH  20  24
ENDBRANCH  19  20
ENDBRANCH   1  19
TORSDOF 9
