REMARK  Name = ZINC63831352
REMARK  1 active torsions:
REMARK  status: ('A' for Active; 'I' for Inactive)
REMARK    1  A    between atoms: C_7  and  C_10
REMARK                            x       y       z     vdW  Elec       q    Type
REMARK                         _______ _______ _______ _____ _____    ______ ____
ROOT
ATOM      1  C   UNL     1       0.691  -3.186  -0.024  0.00  0.00    +0.193 C 
ATOM      2  N   UNL     1       0.931  -4.032  -1.214  0.00  0.00    -0.295 N 
ATOM      3  C   UNL     1       0.493  -5.345  -1.172  0.00  0.00    +0.177 C 
ATOM      4  N   UNL     1       0.728  -6.082  -0.018  0.00  0.00    -0.284 N 
ATOM      5  C   UNL     1       0.415  -5.412   1.257  0.00  0.00    +0.255 C 
ATOM      6  N   UNL     1       0.951  -4.040   1.141  0.00  0.00    -0.272 N 
ATOM      7  C   UNL     1       1.729  -3.793   2.270  0.00  0.00    +0.059 A 
ATOM      8  C   UNL     1       2.335  -2.626   2.725  0.00  0.00    +0.074 A 
ATOM      9  C   UNL     1       3.085  -2.643   3.888  0.00  0.00    +0.164 A 
ATOM     10  C   UNL     1       3.232  -3.821   4.606  0.00  0.00    +0.164 A 
ATOM     11  C   UNL     1       2.627  -4.984   4.164  0.00  0.00    +0.074 A 
ATOM     12  C   UNL     1       1.869  -4.974   2.998  0.00  0.00    +0.055 A 
ATOM     13  N   UNL     1       1.135  -6.023   2.374  0.00  0.00    -0.309 N 
ATOM     14  O   UNL     1       3.975  -3.824   5.752  0.00  0.00    -0.488 OA
ATOM     15  C   UNL     1       5.381  -3.627   5.584  0.00  0.00    +0.232 C 
ATOM     16  C   UNL     1       5.713  -2.145   5.507  0.00  0.00    +0.082 C 
ATOM     17  C   UNL     1       5.113  -1.482   4.277  0.00  0.00    +0.232 C 
ATOM     18  O   UNL     1       3.686  -1.501   4.336  0.00  0.00    -0.488 OA
ATOM     19  N   UNL     1      -0.125  -5.876  -2.190  0.00  0.00    -0.273 NA
ATOM     20  H   UNL     1       1.380  -3.678  -1.998  0.00  0.00    +0.151 HD
ATOM     21  H   UNL     1       1.112  -6.958   2.632  0.00  0.00    +0.149 HD
ATOM     22  H   UNL     1      -0.283  -5.351  -2.989  0.00  0.00    +0.189 HD
ATOM     23  H   UNL     1       1.078  -6.986  -0.049  0.00  0.00    +0.152 HD
ENDROOT
BRANCH   1  30
ATOM     24  C   UNL     1      -0.016   1.348   0.009  0.00  0.00    +0.001 A 
ATOM     25  C   UNL     1       1.166   2.101   0.002  0.00  0.00    +0.002 A 
ATOM     26  C   UNL     1       2.391   1.535  -0.013  0.00  0.00    +0.026 A 
ATOM     27  C   UNL     1       2.529   0.120  -0.022  0.00  0.00    +0.043 A 
ATOM     28  N   UNL     1       3.587  -0.654  -0.037  0.00  0.00    -0.380 N 
ATOM     29  C   UNL     1       3.143  -2.053  -0.041  0.00  0.00    +0.148 C 
ATOM     30  C   UNL     1       1.631  -2.008  -0.025  0.00  0.00    -0.004 C 
ATOM     31  C   UNL     1       1.295  -0.698  -0.014  0.00  0.00    +0.002 A 
ATOM     32  C   UNL     1       0.002  -0.004   0.002  0.00  0.00    +0.010 A 
ATOM     33  H   UNL     1       4.509  -0.353  -0.045  0.00  0.00    +0.160 HD
ENDBRANCH   1  30
TORSDOF 1
