REMARK  Name = ZINC21728959
REMARK  4 active torsions:
REMARK  status: ('A' for Active; 'I' for Inactive)
REMARK    1  A    between atoms: C_5  and  C_7
REMARK    2  A    between atoms: C_7  and  O_8
REMARK    3  A    between atoms: O_8  and  C_9
REMARK    4  A    between atoms: C_12  and  C_15
REMARK                            x       y       z     vdW  Elec       q    Type
REMARK                         _______ _______ _______ _____ _____    ______ ____
ROOT
ATOM      1  C   UNL     1       0.002  -0.004   0.002  0.00  0.00    +0.066 C 
ATOM      2  C   UNL     1      -0.019   1.526   0.010  0.00  0.00    +0.109 C 
ATOM      3  C   UNL     1       1.390   2.055  -0.000  0.00  0.00    +0.219 C 
ATOM      4  O   UNL     1       1.641   3.078  -0.600  0.00  0.00    -0.275 OA
ATOM      5  N   UNL     1       2.376   1.406   0.646  0.00  0.00    -0.270 N 
ATOM      6  C   UNL     1       2.119   0.225   1.322  0.00  0.00    +0.137 A 
ATOM      7  C   UNL     1       0.973  -0.497   1.040  0.00  0.00    +0.065 A 
ATOM      8  C   UNL     1       0.731  -1.688   1.733  0.00  0.00    +0.258 A 
ATOM      9  O   UNL     1      -0.271  -2.348   1.507  0.00  0.00    -0.267 OA
ATOM     10  N   UNL     1       1.629  -2.092   2.657  0.00  0.00    -0.295 N 
ATOM     11  H   UNL     1       1.462  -3.025   3.215  0.00  0.00    +0.172 HD
ATOM     12  C   UNL     1       2.742  -1.346   2.898  0.00  0.00    +0.195 A 
ATOM     13  N   UNL     1       2.973  -0.225   2.248  0.00  0.00    -0.201 NA
ATOM     14  N   UNL     1       3.641  -1.772   3.839  0.00  0.00    -0.329 N 
ATOM     15  H   UNL     1       3.398   1.813   0.641  0.00  0.00    +0.156 HD
ATOM     16  H   UNL     1       4.544  -1.179   4.045  0.00  0.00    +0.145 HD
ATOM     17  H   UNL     1       3.460  -2.707   4.390  0.00  0.00    +0.145 HD
ENDROOT
BRANCH   1  21
ATOM     18  C   UNL     1       1.214  -1.391  -3.854  0.00  0.00    +0.121 A 
ATOM     19  C   UNL     1      -0.028  -1.745  -3.347  0.00  0.00    +0.046 A 
ATOM     20  C   UNL     1      -0.417  -1.296  -2.100  0.00  0.00    +0.008 A 
ATOM     21  C   UNL     1       0.429  -0.493  -1.358  0.00  0.00    -0.039 A 
ATOM     22  C   UNL     1       1.665  -0.134  -1.863  0.00  0.00    +0.008 A 
ATOM     23  C   UNL     1       2.061  -0.586  -3.107  0.00  0.00    +0.046 A 
BRANCH  18  24
ATOM     24  O   UNL     1       1.599  -1.833  -5.080  0.00  0.00    -0.487 OA
BRANCH  24  25
ATOM     25  C   UNL     1       2.891  -1.429  -5.539  0.00  0.00    +0.266 C 
BRANCH  25  30
ATOM     26  C   UNL     1       2.413  -3.331  -8.764  0.00  0.00    +0.000 A 
ATOM     27  C   UNL     1       3.605  -3.075  -9.416  0.00  0.00    +0.001 A 
ATOM     28  C   UNL     1       4.567  -2.287  -8.813  0.00  0.00    +0.020 A 
ATOM     29  C   UNL     1       4.334  -1.749  -7.560  0.00  0.00    +0.047 A 
ATOM     30  C   UNL     1       3.143  -2.010  -6.906  0.00  0.00    +0.008 A 
ATOM     31  C   UNL     1       2.181  -2.798  -7.510  0.00  0.00    +0.008 A 
ATOM     32 CL   UNL     1       5.538  -0.753  -6.805  0.00  0.00    -0.083 Cl
ENDBRANCH  25  30
ENDBRANCH  24  25
ENDBRANCH  18  24
ENDBRANCH   1  21
TORSDOF 4
