REMARK  Name = ZINC12496605
REMARK  7 active torsions:
REMARK  status: ('A' for Active; 'I' for Inactive)
REMARK    1  A    between atoms: C_1  and  C_2
REMARK    2  A    between atoms: C_2  and  O_3
REMARK    3  A    between atoms: O_3  and  C_4
REMARK    4  A    between atoms: C_4  and  C_6
REMARK    5  A    between atoms: C_6  and  C_30
REMARK    6  A    between atoms: C_11  and  C_13
REMARK    7  A    between atoms: N_20  and  C_23
REMARK                            x       y       z     vdW  Elec       q    Type
REMARK                         _______ _______ _______ _____ _____    ______ ____
ROOT
ATOM      1  C   UNL     1      -0.724   1.537  -1.193  0.00  0.00    +0.041 C 
ATOM      2  C   UNL     1       0.353   2.232  -2.023  0.00  0.00    +0.086 C 
ATOM      3  C   UNL     1       1.222   2.781  -0.820  0.00  0.00    +0.080 C 
ATOM      4  C   UNL     1       1.385   1.563  -0.003  0.00  0.00    +0.010 C 
ATOM      5  C   UNL     1       2.037   3.757  -1.506  0.00  0.00    +0.229 C 
ATOM      6  O   UNL     1       3.199   4.031  -1.296  0.00  0.00    -0.275 OA
ATOM      7  N   UNL     1       1.210   4.310  -2.445  0.00  0.00    -0.210 N 
ATOM      8  C   UNL     1       0.073   3.576  -2.638  0.00  0.00    +0.229 C 
ATOM      9  O   UNL     1      -0.946   3.933  -3.188  0.00  0.00    -0.275 OA
ATOM     10  C   UNL     1      -1.798   2.542  -0.771  0.00  0.00    +0.002 C 
ATOM     11  N   UNL     1      -0.007   1.012  -0.001  0.00  0.00    +0.397 N 
ATOM     12  H   UNL     1       0.026  -0.013  -0.040  0.00  0.00    -0.083 HD
ATOM     13  H   UNL     1      -0.494   1.306   0.854  0.00  0.00    -0.083 HD
ENDROOT
BRANCH   7  14
ATOM     14  C   UNL     1       1.501   5.491  -3.144  0.00  0.00    +0.044 A 
ATOM     15  C   UNL     1       0.613   5.971  -4.096  0.00  0.00    +0.027 A 
ATOM     16  C   UNL     1       0.898   7.137  -4.780  0.00  0.00    +0.040 A 
ATOM     17  C   UNL     1       2.075   7.821  -4.524  0.00  0.00    +0.124 A 
ATOM     18  C   UNL     1       2.965   7.340  -3.578  0.00  0.00    +0.040 A 
ATOM     19  C   UNL     1       2.680   6.177  -2.889  0.00  0.00    +0.027 A 
ATOM     20  F   UNL     1       2.354   8.958  -5.197  0.00  0.00    -0.205 F 
ENDBRANCH   7  14
BRANCH   4  21
ATOM     21  C   UNL     1       1.838   1.907   1.393  0.00  0.00    +0.092 A 
ATOM     22  C   UNL     1       3.074   1.718   1.887  0.00  0.00    +0.043 A 
ATOM     23  C   UNL     1       3.056   2.180   3.224  0.00  0.00    +0.041 A 
ATOM     24  C   UNL     1       1.807   2.616   3.468  0.00  0.00    +0.195 A 
ATOM     25  O   UNL     1       1.074   2.447   2.356  0.00  0.00    -0.469 OA
ENDBRANCH   4  21
BRANCH   1  26
ATOM     26  C   UNL     1      -1.342   0.408  -1.977  0.00  0.00    +0.297 C 
ATOM     27  O   UNL     1      -1.368   0.455  -3.184  0.00  0.00    -0.252 OA
BRANCH  26  28
ATOM     28  O   UNL     1      -1.863  -0.648  -1.335  0.00  0.00    -0.466 OA
BRANCH  28  30
ATOM     29  C   UNL     1      -2.981  -2.810  -1.253  0.00  0.00    +0.048 C 
ATOM     30  C   UNL     1      -2.442  -1.698  -2.155  0.00  0.00    +0.228 C 
ENDBRANCH  28  30
ENDBRANCH  26  28
ENDBRANCH   1  26
TORSDOF 5
