REMARK  Name = ZINC43070429
REMARK  7 active torsions:
REMARK  status: ('A' for Active; 'I' for Inactive)
REMARK    1  A    between atoms: C_1  and  C_2
REMARK    2  A    between atoms: C_2  and  C_4
REMARK    3  A    between atoms: C_2  and  N_7
REMARK    4  A    between atoms: C_4  and  C_5
REMARK    5  A    between atoms: C_4  and  C_6
REMARK    6  A    between atoms: N_10  and  N_11
REMARK    7  A    between atoms: C_12  and  C_14
REMARK                            x       y       z     vdW  Elec       q    Type
REMARK                         _______ _______ _______ _____ _____    ______ ____
ROOT
ATOM      1  N   UNL     1      -3.924  -1.457   0.078  0.00  0.00    -0.229 N 
ATOM      2  C   UNL     1      -5.189  -1.924   0.087  0.00  0.00    +0.267 C 
ATOM      3  O   UNL     1      -5.801  -2.043  -0.958  0.00  0.00    -0.268 OA
ATOM      4  H   UNL     1      -3.436  -1.363   0.910  0.00  0.00    +0.173 HD
ENDROOT
BRANCH   2   5
ATOM      5  C   UNL     1      -5.826  -2.288   1.356  0.00  0.00    +0.076 A 
ATOM      6  C   UNL     1      -7.094  -2.784   1.583  0.00  0.00    +0.024 A 
ATOM      7  C   UNL     1      -7.444  -3.046   2.905  0.00  0.00    -0.036 A 
ATOM      8  C   UNL     1      -6.497  -2.783   3.845  0.00  0.00    -0.006 A 
ATOM      9  S   UNL     1      -5.164  -2.214   3.009  0.00  0.00    -0.088 S 
ATOM     10  C   UNL     1      -6.604  -2.961   5.331  0.00  0.00    +0.043 C 
ATOM     11  C   UNL     1      -7.588  -4.095   5.640  0.00  0.00    +0.005 C 
ATOM     12  C   UNL     1      -8.989  -3.504   5.757  0.00  0.00    +0.001 C 
ATOM     13  C   UNL     1      -9.404  -2.841   4.446  0.00  0.00    +0.005 C 
ATOM     14  C   UNL     1      -8.820  -3.599   3.258  0.00  0.00    +0.036 C 
ENDBRANCH   2   5
BRANCH   1  18
ATOM     15  N   UNL     1      -1.372  -0.511   0.012  0.00  0.00    -0.295 N 
ATOM     16  C   UNL     1      -2.051  -0.643  -1.145  0.00  0.00    +0.316 C 
ATOM     17  O   UNL     1      -1.522  -0.341  -2.197  0.00  0.00    -0.251 OA
ATOM     18  N   UNL     1      -3.315  -1.109  -1.135  0.00  0.00    -0.218 N 
ATOM     19  H   UNL     1      -1.794  -0.752   0.852  0.00  0.00    +0.151 HD
ATOM     20  H   UNL     1      -3.804  -1.204  -1.968  0.00  0.00    +0.174 HD
BRANCH  15  22
ATOM     21  C   UNL     1      -0.019   1.526   0.010  0.00  0.00    +0.028 C 
ATOM     22  C   UNL     1       0.002  -0.004   0.002  0.00  0.00    +0.074 C 
BRANCH  22  23
ATOM     23  C   UNL     1       0.742  -0.511   1.242  0.00  0.00    +0.003 C 
ATOM     24  C   UNL     1       2.178   0.019   1.231  0.00  0.00    +0.009 C 
ATOM     25  C   UNL     1       0.026  -0.018   2.500  0.00  0.00    +0.009 C 
ENDBRANCH  22  23
ENDBRANCH  15  22
ENDBRANCH   1  18
TORSDOF 4
