REMARK  Name = ZINC67009832
REMARK  5 active torsions:
REMARK  status: ('A' for Active; 'I' for Inactive)
REMARK    1  A    between atoms: C_1  and  C_2
REMARK    2  A    between atoms: C_15  and  C_17
REMARK    3  A    between atoms: C_17  and  O_18
REMARK    4  A    between atoms: O_18  and  C_19
REMARK    5  A    between atoms: C_22  and  C_26
REMARK                            x       y       z     vdW  Elec       q    Type
REMARK                         _______ _______ _______ _____ _____    ______ ____
ROOT
ATOM      1  C   UNL     1      -0.019   1.526   0.010  0.00  0.00    +0.029 C 
ATOM      2  C   UNL     1       0.002  -0.004   0.002  0.00  0.00    +0.087 C 
ATOM      3  C   UNL     1       0.715  -0.496  -1.259  0.00  0.00    +0.118 C 
ATOM      4  C   UNL     1       1.097  -1.944  -1.106  0.00  0.00    +0.219 C 
ATOM      5  O   UNL     1       0.459  -2.800  -1.683  0.00  0.00    -0.275 OA
ATOM      6  N   UNL     1       2.146  -2.297  -0.332  0.00  0.00    -0.284 N 
ATOM      7  C   UNL     1       2.832  -1.333   0.416  0.00  0.00    +0.055 A 
ATOM      8  C   UNL     1       4.214  -1.255   0.377  0.00  0.00    +0.025 A 
ATOM      9  C   UNL     1       4.871  -0.309   1.143  0.00  0.00    +0.002 A 
ATOM     10  C   UNL     1       4.154   0.557   1.947  0.00  0.00    +0.002 A 
ATOM     11  C   UNL     1       2.773   0.492   1.984  0.00  0.00    +0.025 A 
ATOM     12  C   UNL     1       2.107  -0.445   1.211  0.00  0.00    +0.058 A 
ATOM     13  N   UNL     1       0.707  -0.488   1.190  0.00  0.00    -0.264 N 
ATOM     14  C   UNL     1       0.022  -0.966   2.248  0.00  0.00    +0.258 C 
ATOM     15  O   UNL     1      -1.190  -0.998   2.221  0.00  0.00    -0.272 OA
ATOM     16  H   UNL     1       2.425  -3.225  -0.293  0.00  0.00    +0.155 HD
ENDROOT
BRANCH  14  17
ATOM     17  C   UNL     1       0.762  -1.460   3.464  0.00  0.00    +0.325 C 
BRANCH  17  18
ATOM     18  O   UNL     1      -0.177  -1.912   4.442  0.00  0.00    -0.481 OA
BRANCH  18  19
ATOM     19  C   UNL     1       0.328  -2.393   5.606  0.00  0.00    +0.139 A 
ATOM     20  C   UNL     1       1.704  -2.421   5.804  0.00  0.00    +0.048 A 
ATOM     21  C   UNL     1       2.223  -2.907   6.982  0.00  0.00    +0.015 A 
ATOM     22  C   UNL     1       1.362  -3.373   7.984  0.00  0.00    +0.016 A 
ATOM     23  C   UNL     1      -0.023  -3.342   7.780  0.00  0.00    +0.034 A 
ATOM     24  C   UNL     1      -0.532  -2.850   6.599  0.00  0.00    +0.083 A 
ATOM     25 CL   UNL     1      -2.249  -2.804   6.348  0.00  0.00    -0.080 Cl
BRANCH  22  26
ATOM     26  C   UNL     1       1.910  -3.893   9.243  0.00  0.00    +0.258 C 
ATOM     27  O   UNL     1       1.163  -4.296  10.110  0.00  0.00    -0.296 OA
ENDBRANCH  22  26
ENDBRANCH  18  19
ENDBRANCH  17  18
ENDBRANCH  14  17
TORSDOF 4
