REMARK  Name = ZINC57996812
REMARK  5 active torsions:
REMARK  status: ('A' for Active; 'I' for Inactive)
REMARK    1  A    between atoms: C_1  and  C_2
REMARK    2  A    between atoms: C_5  and  S_7
REMARK    3  A    between atoms: S_7  and  N_10
REMARK    4  A    between atoms: N_10  and  C_11
REMARK    5  A    between atoms: C_14  and  N_18
REMARK                            x       y       z     vdW  Elec       q    Type
REMARK                         _______ _______ _______ _____ _____    ______ ____
ROOT
ATOM      1  C   UNL     1       1.784  -6.022  -1.934  0.00  0.00    +0.076 A 
ATOM      2  C   UNL     1       2.119  -6.912  -0.922  0.00  0.00    +0.028 A 
ATOM      3  C   UNL     1       2.596  -8.170  -1.237  0.00  0.00    +0.026 A 
ATOM      4  C   UNL     1       2.741  -8.544  -2.566  0.00  0.00    +0.049 A 
ATOM      5  C   UNL     1       2.406  -7.654  -3.579  0.00  0.00    +0.064 A 
ATOM      6  C   UNL     1       1.924  -6.398  -3.264  0.00  0.00    +0.048 A 
ATOM      7 CL   UNL     1       2.588  -8.122  -5.241  0.00  0.00    -0.082 Cl
ENDROOT
BRANCH   4   8
ATOM      8  N   UNL     1       3.226  -9.819  -2.885  0.00  0.00    -0.318 N 
ATOM      9  C   UNL     1       4.667 -10.072  -3.051  0.00  0.00    +0.124 C 
ATOM     10  C   UNL     1       5.097 -11.096  -1.999  0.00  0.00    +0.123 C 
ATOM     11  N   UNL     1       4.164 -12.214  -1.956  0.00  0.00    -0.313 N 
ATOM     12  C   UNL     1       2.904 -12.166  -2.389  0.00  0.00    +0.230 C 
ATOM     13  O   UNL     1       2.199 -13.139  -2.227  0.00  0.00    -0.274 OA
ATOM     14  C   UNL     1       2.316 -10.961  -3.063  0.00  0.00    +0.200 C 
ATOM     15  H   UNL     1       4.483 -13.052  -1.586  0.00  0.00    +0.149 HD
ENDBRANCH   4   8
BRANCH   1  16
ATOM     16  N   UNL     1       1.300  -4.748  -1.614  0.00  0.00    -0.097 NA
BRANCH  16  17
ATOM     17  S   UNL     1       1.134  -4.300  -0.029  0.00  0.00    +0.098 S 
ATOM     18  O   UNL     1       2.445  -4.240   0.516  0.00  0.00    -0.148 OA
ATOM     19  O   UNL     1       0.117  -5.126   0.522  0.00  0.00    -0.148 OA
BRANCH  17  24
ATOM     20  C   UNL     1      -0.018   1.503   0.010  0.00  0.00    +0.051 C 
ATOM     21  C   UNL     1       0.002  -0.004   0.002  0.00  0.00    -0.011 A 
ATOM     22  C   UNL     1      -1.039  -0.872   0.002  0.00  0.00    +0.013 A 
ATOM     23  C   UNL     1      -0.780  -2.230  -0.007  0.00  0.00    +0.037 A 
ATOM     24  C   UNL     1       0.507  -2.653  -0.016  0.00  0.00    +0.148 A 
ATOM     25  S   UNL     1       1.404  -1.109  -0.018  0.00  0.00    -0.073 S 
ENDBRANCH  17  24
ENDBRANCH  16  17
ENDBRANCH   1  16
TORSDOF 4
