REMARK  Name = ZINC00655272
REMARK  9 active torsions:
REMARK  status: ('A' for Active; 'I' for Inactive)
REMARK    1  A    between atoms: C_1  and  C_2
REMARK    2  A    between atoms: C_2  and  C_3
REMARK    3  A    between atoms: C_6  and  O_9
REMARK    4  A    between atoms: O_9  and  C_10
REMARK    5  A    between atoms: C_10  and  C_11
REMARK    6  A    between atoms: C_11  and  C_13
REMARK    7  A    between atoms: C_11  and  O_28
REMARK    8  A    between atoms: C_13  and  N_14
REMARK    9  A    between atoms: N_22  and  C_27
REMARK                            x       y       z     vdW  Elec       q    Type
REMARK                         _______ _______ _______ _____ _____    ______ ____
ROOT
ATOM      1  C   UNL     1       3.708  -4.859  -0.186  0.00  0.00    +0.159 C 
ENDROOT
BRANCH   1   2
ATOM      2  N   UNL     1       3.529  -6.308  -0.313  0.00  0.00    -0.310 N 
ATOM      3  C   UNL     1       3.365  -7.017  -1.488  0.00  0.00    +0.152 A 
ATOM      4  C   UNL     1       3.312  -6.670  -2.854  0.00  0.00    +0.280 A 
ATOM      5  O   UNL     1       3.425  -5.507  -3.199  0.00  0.00    -0.265 OA
ATOM      6  N   UNL     1       3.136  -7.641  -3.774  0.00  0.00    -0.273 N 
ATOM      7  H   UNL     1       3.098  -7.399  -4.744  0.00  0.00    +0.173 HD
ATOM      8  C   UNL     1       3.010  -8.928  -3.407  0.00  0.00    +0.331 A 
ATOM      9  O   UNL     1       2.852  -9.776  -4.264  0.00  0.00    -0.246 OA
ATOM     10  N   UNL     1       3.054  -9.301  -2.114  0.00  0.00    -0.280 N 
ATOM     11  C   UNL     1       3.234  -8.351  -1.122  0.00  0.00    +0.169 A 
ATOM     12  N   UNL     1       3.319  -8.407   0.209  0.00  0.00    -0.203 NA
ATOM     13  C   UNL     1       3.499  -7.204   0.694  0.00  0.00    +0.180 A 
ATOM     14 BR   UNL     1       3.684  -6.786   2.529  0.00  0.00    -0.008 Br
ATOM     15  C   UNL     1       2.913 -10.715  -1.756  0.00  0.00    +0.155 C 
ENDBRANCH   1   2
BRANCH   1  16
ATOM     16  C   UNL     1       2.341  -4.188  -0.044  0.00  0.00    +0.171 C 
BRANCH  16  17
ATOM     17  O   UNL     1       1.732  -4.602   1.181  0.00  0.00    -0.387 OA
ATOM     18  H   UNL     1       2.243  -4.378   1.970  0.00  0.00    +0.210 HD
ENDBRANCH  16  17
BRANCH  16  19
ATOM     19  C   UNL     1       2.518  -2.668  -0.037  0.00  0.00    +0.262 C 
BRANCH  19  20
ATOM     20  O   UNL     1       1.234  -2.039  -0.021  0.00  0.00    -0.489 OA
BRANCH  20  24
ATOM     21  C   UNL     1       1.171   2.086   0.002  0.00  0.00    -0.047 A 
ATOM     22  C   UNL     1      -0.017   1.377   0.010  0.00  0.00    +0.007 A 
ATOM     23  C   UNL     1       0.002  -0.004   0.002  0.00  0.00    +0.046 A 
ATOM     24  C   UNL     1       1.213  -0.680  -0.013  0.00  0.00    +0.121 A 
ATOM     25  C   UNL     1       2.403   0.033  -0.021  0.00  0.00    +0.046 A 
ATOM     26  C   UNL     1       2.379   1.415  -0.013  0.00  0.00    +0.007 A 
BRANCH  21  28
ATOM     27  C   UNL     1       1.153   4.095   1.455  0.00  0.00    +0.009 C 
ATOM     28  C   UNL     1       1.147   3.593   0.010  0.00  0.00    +0.032 C 
ENDBRANCH  21  28
ENDBRANCH  20  24
ENDBRANCH  19  20
ENDBRANCH  16  19
ENDBRANCH   1  16
TORSDOF 7
