REMARK  Name = ZINC04158103
REMARK  8 active torsions:
REMARK  status: ('A' for Active; 'I' for Inactive)
REMARK    1  A    between atoms: C_1  and  C_2
REMARK    2  A    between atoms: C_5  and  S_8
REMARK    3  A    between atoms: S_8  and  O_11
REMARK    4  A    between atoms: O_11  and  C_12
REMARK    5  A    between atoms: C_16  and  C_18
REMARK    6  A    between atoms: C_19  and  N_28
REMARK    7  A    between atoms: C_23  and  C_27
REMARK    8  A    between atoms: N_28  and  C_29
REMARK                            x       y       z     vdW  Elec       q    Type
REMARK                         _______ _______ _______ _____ _____    ______ ____
ROOT
ATOM      1  C   UNL     1       2.884  -7.031   4.069  0.00  0.00    +0.087 A 
ATOM      2  C   UNL     1       3.908  -7.312   4.949  0.00  0.00    +0.129 A 
ATOM      3  N   UNL     1       3.437  -8.260   5.815  0.00  0.00    -0.289 N 
ATOM      4  C   UNL     1       4.010  -8.902   6.879  0.00  0.00    +0.094 A 
ATOM      5  C   UNL     1       3.315  -9.816   7.585  0.00  0.00    +0.021 A 
ATOM      6  C   UNL     1       1.987 -10.123   7.236  0.00  0.00    -0.046 A 
ATOM      7  C   UNL     1       1.403  -9.494   6.182  0.00  0.00    +0.048 A 
ATOM      8  C   UNL     1       2.140  -8.539   5.450  0.00  0.00    +0.117 A 
ATOM      9  N   UNL     1       1.825  -7.790   4.407  0.00  0.00    -0.338 N 
ATOM     10  C   UNL     1       1.215 -11.146   8.028  0.00  0.00    +0.044 C 
ATOM     11  H   UNL     1       0.967  -7.789   3.954  0.00  0.00    +0.167 HD
ENDROOT
BRANCH   1  16
ATOM     12  C   UNL     1       2.487  -5.492   0.660  0.00  0.00    +0.157 A 
ATOM     13  C   UNL     1       3.044  -4.237   0.865  0.00  0.00    +0.048 A 
ATOM     14  C   UNL     1       3.545  -3.893   2.107  0.00  0.00    +0.004 A 
ATOM     15  C   UNL     1       3.496  -4.796   3.150  0.00  0.00    +0.010 A 
ATOM     16  C   UNL     1       2.938  -6.059   2.952  0.00  0.00    +0.005 A 
ATOM     17  C   UNL     1       2.428  -6.403   1.701  0.00  0.00    +0.058 A 
BRANCH  12  18
ATOM     18  O   UNL     1       1.995  -5.825  -0.563  0.00  0.00    -0.342 OA
BRANCH  18  19
ATOM     19  S   UNL     1       0.525  -5.477  -0.754  0.00  0.00    +0.151 S 
ATOM     20  O   UNL     1      -0.123  -5.762   0.478  0.00  0.00    -0.131 OA
ATOM     21  O   UNL     1       0.124  -6.071  -1.981  0.00  0.00    -0.131 OA
BRANCH  19  26
ATOM     22  C   UNL     1       0.189   0.496  -1.538  0.00  0.00    +0.044 C 
ATOM     23  C   UNL     1       0.273  -0.996  -1.342  0.00  0.00    -0.050 A 
ATOM     24  C   UNL     1       0.431  -1.829  -2.434  0.00  0.00    +0.005 A 
ATOM     25  C   UNL     1       0.508  -3.197  -2.254  0.00  0.00    +0.031 A 
ATOM     26  C   UNL     1       0.428  -3.733  -0.983  0.00  0.00    +0.128 A 
ATOM     27  C   UNL     1       0.271  -2.900   0.110  0.00  0.00    +0.031 A 
ATOM     28  C   UNL     1       0.198  -1.532  -0.070  0.00  0.00    +0.005 A 
ENDBRANCH  19  26
ENDBRANCH  18  19
ENDBRANCH  12  18
ENDBRANCH   1  16
BRANCH   2  29
ATOM     29  N   UNL     1       5.181  -6.741   4.954  0.00  0.00    -0.326 N 
ATOM     30  H   UNL     1       5.386  -6.008   4.351  0.00  0.00    +0.148 HD
BRANCH  29  31
ATOM     31  C   UNL     1       6.207  -7.246   5.868  0.00  0.00    +0.072 C 
ATOM     32  C   UNL     1       6.044  -6.581   7.236  0.00  0.00    +0.022 C 
ATOM     33  C   UNL     1       7.116  -7.109   8.192  0.00  0.00    +0.002 C 
ATOM     34  C   UNL     1       8.502  -6.787   7.631  0.00  0.00    +0.000 C 
ATOM     35  C   UNL     1       8.666  -7.452   6.262  0.00  0.00    +0.002 C 
ATOM     36  C   UNL     1       7.594  -6.924   5.307  0.00  0.00    +0.022 C 
ENDBRANCH  29  31
ENDBRANCH   2  29
TORSDOF 6
