REMARK  Name = ZINC59121602
REMARK  7 active torsions:
REMARK  status: ('A' for Active; 'I' for Inactive)
REMARK    1  A    between atoms: C_1  and  C_2
REMARK    2  A    between atoms: C_2  and  C_4
REMARK    3  A    between atoms: N_6  and  C_29
REMARK    4  A    between atoms: C_17  and  C_26
REMARK    5  A    between atoms: N_18  and  N_19
REMARK    6  A    between atoms: N_19  and  C_20
REMARK    7  A    between atoms: C_26  and  C_28
REMARK                            x       y       z     vdW  Elec       q    Type
REMARK                         _______ _______ _______ _____ _____    ______ ____
ROOT
ATOM      1  C   UNL     1      -0.638  -1.563   0.051  0.00  0.00    +0.162 C 
ATOM      2  N   UNL     1      -1.693  -0.791  -0.060  0.00  0.00    -0.166 NA
ATOM      3  N   UNL     1      -2.986  -1.288  -0.083  0.00  0.00    -0.180 N 
ATOM      4  C   UNL     1      -3.082  -2.735   0.027  0.00  0.00    +0.234 C 
ATOM      5  S   UNL     1      -1.324  -3.213   0.141  0.00  0.00    -0.042 S 
ATOM      6  N   UNL     1      -3.883  -3.241   1.118  0.00  0.00    -0.240 N 
ATOM      7  C   UNL     1      -4.936  -4.101   0.779  0.00  0.00    +0.052 A 
ATOM      8  C   UNL     1      -5.828  -4.699   1.686  0.00  0.00    +0.025 A 
ATOM      9  C   UNL     1      -6.830  -5.535   1.251  0.00  0.00    +0.002 A 
ATOM     10  C   UNL     1      -6.997  -5.812  -0.094  0.00  0.00    +0.001 A 
ATOM     11  C   UNL     1      -6.136  -5.232  -1.011  0.00  0.00    +0.017 A 
ATOM     12  C   UNL     1      -5.132  -4.400  -0.576  0.00  0.00    +0.034 A 
ATOM     13  S   UNL     1      -3.857  -3.500  -1.436  0.00  0.00    -0.064 S 
ATOM     14  C   UNL     1      -3.619  -2.891   2.447  0.00  0.00    +0.162 C 
ATOM     15  N   UNL     1      -2.716  -1.981   2.718  0.00  0.00    -0.291 N 
ATOM     16  H   UNL     1      -2.298  -1.483   1.998  0.00  0.00    +0.186 HD
ENDROOT
BRANCH   3  17
ATOM     17  C   UNL     1      -4.107  -0.466  -0.200  0.00  0.00    +0.056 A 
ATOM     18  C   UNL     1      -5.381  -1.022  -0.211  0.00  0.00    +0.025 A 
ATOM     19  C   UNL     1      -6.488  -0.204  -0.327  0.00  0.00    +0.002 A 
ATOM     20  C   UNL     1      -6.330   1.165  -0.432  0.00  0.00    +0.000 A 
ATOM     21  C   UNL     1      -5.064   1.722  -0.422  0.00  0.00    +0.002 A 
ATOM     22  C   UNL     1      -3.953   0.912  -0.301  0.00  0.00    +0.025 A 
ENDBRANCH   3  17
BRANCH   1  24
ATOM     23  C   UNL     1       1.101   0.277  -0.005  0.00  0.00    +0.094 C 
ATOM     24  C   UNL     1       0.725  -1.180   0.085  0.00  0.00    +0.186 C 
ATOM     25  O   UNL     1       1.591  -2.025   0.186  0.00  0.00    -0.290 OA
ENDBRANCH   1  24
BRANCH  14  26
ATOM     26  C   UNL     1      -4.329  -3.519   3.499  0.00  0.00    +0.192 C 
ATOM     27  O   UNL     1      -4.059  -4.660   3.817  0.00  0.00    -0.289 OA
ATOM     28  C   UNL     1      -5.418  -2.772   4.225  0.00  0.00    +0.095 C 
ENDBRANCH  14  26
BRANCH  15  29
ATOM     29  N   UNL     1      -2.354  -1.727   4.048  0.00  0.00    -0.259 N 
ATOM     30  H   UNL     1      -2.790  -2.207   4.769  0.00  0.00    +0.172 HD
BRANCH  29  31
ATOM     31  C   UNL     1      -1.368  -0.784   4.333  0.00  0.00    +0.046 A 
ATOM     32  C   UNL     1      -0.746  -0.091   3.301  0.00  0.00    +0.024 A 
ATOM     33  C   UNL     1       0.231   0.842   3.588  0.00  0.00    +0.002 A 
ATOM     34  C   UNL     1       0.591   1.087   4.901  0.00  0.00    +0.000 A 
ATOM     35  C   UNL     1      -0.025   0.399   5.931  0.00  0.00    +0.002 A 
ATOM     36  C   UNL     1      -1.007  -0.530   5.652  0.00  0.00    +0.024 A 
ENDBRANCH  29  31
ENDBRANCH  15  29
TORSDOF 5
