REMARK  Name = ZINC24635159
REMARK  8 active torsions:
REMARK  status: ('A' for Active; 'I' for Inactive)
REMARK    1  A    between atoms: C_1  and  C_2
REMARK    2  A    between atoms: C_3  and  C_7
REMARK    3  A    between atoms: C_10  and  S_13
REMARK    4  A    between atoms: N_11  and  N_12
REMARK    5  A    between atoms: S_13  and  C_14
REMARK    6  A    between atoms: C_14  and  C_15
REMARK    7  A    between atoms: C_18  and  C_28
REMARK    8  A    between atoms: C_21  and  C_23
REMARK                            x       y       z     vdW  Elec       q    Type
REMARK                         _______ _______ _______ _____ _____    ______ ____
ROOT
ATOM      1  C   UNL     1       3.273   2.283   2.167  0.00  0.00    +0.246 C 
ATOM      2  O   UNL     1       2.369   1.727   2.754  0.00  0.00    -0.273 OA
ATOM      3  N   UNL     1       3.423   2.107   0.839  0.00  0.00    -0.184 N 
ATOM      4  C   UNL     1       2.565   1.272  -0.016  0.00  0.00    +0.143 C 
ATOM      5  C   UNL     1       3.182   1.434  -1.419  0.00  0.00    +0.088 C 
ATOM      6  C   UNL     1       4.352   2.366  -1.198  0.00  0.00    +0.075 C 
ATOM      7  N   UNL     1       4.416   2.686   0.051  0.00  0.00    -0.180 NA
ENDROOT
BRANCH   6   8
ATOM      8  C   UNL     1       5.270   2.835  -2.240  0.00  0.00    +0.035 A 
ATOM      9  C   UNL     1       6.358   3.683  -2.128  0.00  0.00    +0.017 A 
ATOM     10  C   UNL     1       7.076   3.979  -3.264  0.00  0.00    +0.008 A 
ATOM     11  C   UNL     1       6.697   3.436  -4.450  0.00  0.00    +0.046 A 
ATOM     12  S   UNL     1       5.280   2.455  -3.985  0.00  0.00    -0.095 S 
ENDBRANCH   6   8
BRANCH   4  13
ATOM     13  C   UNL     1       1.146   1.780   0.001  0.00  0.00    +0.013 A 
ATOM     14  C   UNL     1      -0.013   1.076   0.008  0.00  0.00    +0.013 A 
ATOM     15  C   UNL     1      -1.213   1.761   0.017  0.00  0.00    +0.008 A 
ATOM     16  C   UNL     1      -1.196   3.116   0.030  0.00  0.00    +0.045 A 
ATOM     17  S   UNL     1       0.555   3.464   0.015  0.00  0.00    -0.100 S 
ENDBRANCH   4  13
BRANCH   1  18
ATOM     18  C   UNL     1       4.230   3.169   2.922  0.00  0.00    +0.175 C 
BRANCH  18  19
ATOM     19  S   UNL     1       3.768   3.202   4.672  0.00  0.00    -0.075 S 
BRANCH  19  23
ATOM     20  C   UNL     1       6.262   5.507   6.604  0.00  0.00    +0.185 A 
ATOM     21  N   UNL     1       6.705   5.573   5.370  0.00  0.00    -0.127 NA
ATOM     22  N   UNL     1       5.974   4.846   4.603  0.00  0.00    -0.121 NA
ATOM     23  C   UNL     1       5.014   4.279   5.297  0.00  0.00    +0.209 A 
ATOM     24  N   UNL     1       5.166   4.677   6.596  0.00  0.00    -0.224 N 
BRANCH  20  27
ATOM     25  C   UNL     1       8.762   7.399   6.616  0.00  0.00    +0.087 C 
ATOM     26  C   UNL     1       7.917   7.019   7.805  0.00  0.00    +0.112 A 
ATOM     27  C   UNL     1       6.835   6.196   7.781  0.00  0.00    +0.061 A 
ATOM     28  C   UNL     1       6.348   6.139   9.165  0.00  0.00    +0.053 A 
ATOM     29  C   UNL     1       7.178   6.914   9.883  0.00  0.00    +0.196 A 
ATOM     30  O   UNL     1       8.105   7.436   9.065  0.00  0.00    -0.467 OA
ENDBRANCH  20  27
BRANCH  24  31
ATOM     31  N   UNL     1       4.390   4.323   7.663  0.00  0.00    -0.295 N 
ATOM     32  H   UNL     1       3.535   3.646   7.521  0.00  0.00    +0.163 HD
ATOM     33  H   UNL     1       4.621   4.716   8.665  0.00  0.00    +0.163 HD
ENDBRANCH  24  31
ENDBRANCH  19  23
ENDBRANCH  18  19
ENDBRANCH   1  18
TORSDOF 7
