REMARK  Name = ZINC35303974
REMARK  10 active torsions:
REMARK  status: ('A' for Active; 'I' for Inactive)
REMARK    1  A    between atoms: C_1  and  C_2
REMARK    2  A    between atoms: C_3  and  C_27
REMARK    3  A    between atoms: C_4  and  C_11
REMARK    4  A    between atoms: N_9  and  C_10
REMARK    5  A    between atoms: C_14  and  N_17
REMARK    6  A    between atoms: N_20  and  C_21
REMARK    7  A    between atoms: C_27  and  O_29
REMARK    8  A    between atoms: O_29  and  C_30
REMARK    9  A    between atoms: C_30  and  C_31
REMARK   10  A    between atoms: C_30  and  C_32
REMARK                            x       y       z     vdW  Elec       q    Type
REMARK                         _______ _______ _______ _____ _____    ______ ____
ROOT
ATOM      1  C   UNL     1      -2.464  -2.773  -1.218  0.00  0.00    -0.022 A 
ATOM      2  C   UNL     1      -2.440  -3.035  -2.575  0.00  0.00    +0.007 A 
ATOM      3  C   UNL     1      -3.574  -3.500  -3.211  0.00  0.00    +0.024 A 
ATOM      4  C   UNL     1      -4.741  -3.704  -2.486  0.00  0.00    +0.035 A 
ATOM      5  C   UNL     1      -4.763  -3.439  -1.123  0.00  0.00    +0.024 A 
ATOM      6  C   UNL     1      -3.623  -2.981  -0.492  0.00  0.00    +0.007 A 
ENDROOT
BRANCH   1  10
ATOM      7  C   UNL     1       0.147   1.148  -1.678  0.00  0.00    +0.061 C 
ATOM      8  C   UNL     1       0.000  -0.326  -1.397  0.00  0.00    +0.021 C 
ATOM      9  C   UNL     1      -1.118  -0.778  -0.790  0.00  0.00    +0.078 C 
ATOM     10  C   UNL     1      -1.224  -2.267  -0.527  0.00  0.00    +0.141 C 
ATOM     11  N   UNL     1      -0.092  -3.103  -0.959  0.00  0.00    -0.315 N 
ATOM     12  C   UNL     1       0.958  -2.503  -1.554  0.00  0.00    +0.137 C 
ATOM     13  S   UNL     1       2.282  -3.462  -2.061  0.00  0.00    -0.018 S 
ATOM     14  N   UNL     1       0.997  -1.181  -1.766  0.00  0.00    -0.289 N 
ATOM     15  C   UNL     1       2.179  -0.622  -2.426  0.00  0.00    +0.137 C 
ATOM     16  H   UNL     1      -0.101  -4.063  -0.818  0.00  0.00    +0.149 HD
BRANCH   9  17
ATOM     17  C   UNL     1      -2.154   0.107  -0.412  0.00  0.00    +0.339 C 
ATOM     18  O   UNL     1      -2.047   1.298  -0.632  0.00  0.00    -0.245 OA
BRANCH  17  19
ATOM     19  O   UNL     1      -3.262  -0.371   0.194  0.00  0.00    -0.459 OA
BRANCH  19  20
ATOM     20  C   UNL     1      -4.268   0.580   0.548  0.00  0.00    +0.171 C 
ATOM     21  C   UNL     1      -5.253   0.737  -0.612  0.00  0.00    +0.052 C 
ATOM     22  C   UNL     1      -5.017   0.091   1.790  0.00  0.00    +0.052 C 
ENDBRANCH  19  20
ENDBRANCH  17  19
ENDBRANCH   9  17
ENDBRANCH   1  10
BRANCH   4  23
ATOM     23  N   UNL     1      -5.892  -4.173  -3.127  0.00  0.00    -0.269 N 
ATOM     24  C   UNL     1      -6.162  -3.793  -4.392  0.00  0.00    +0.304 C 
ATOM     25  O   UNL     1      -5.455  -2.972  -4.944  0.00  0.00    -0.253 OA
ATOM     26  N   UNL     1      -7.216  -4.322  -5.045  0.00  0.00    -0.296 N 
ATOM     27  H   UNL     1      -6.496  -4.773  -2.662  0.00  0.00    +0.156 HD
ATOM     28  H   UNL     1      -7.780  -4.977  -4.605  0.00  0.00    +0.151 HD
BRANCH  26  29
ATOM     29  C   UNL     1      -7.509  -3.908  -6.419  0.00  0.00    +0.074 C 
ATOM     30  C   UNL     1      -8.351  -2.631  -6.399  0.00  0.00    +0.022 C 
ATOM     31  C   UNL     1      -8.657  -2.199  -7.834  0.00  0.00    +0.002 C 
ATOM     32  C   UNL     1      -9.433  -3.308  -8.546  0.00  0.00    +0.000 C 
ATOM     33  C   UNL     1      -8.591  -4.586  -8.567  0.00  0.00    +0.002 C 
ATOM     34  C   UNL     1      -8.285  -5.018  -7.131  0.00  0.00    +0.022 C 
ENDBRANCH  26  29
ENDBRANCH   4  23
TORSDOF 6
