REMARK  Name = ZINC00891874
REMARK  6 active torsions:
REMARK  status: ('A' for Active; 'I' for Inactive)
REMARK    1  A    between atoms: C_4  and  S_7
REMARK    2  A    between atoms: S_7  and  N_10
REMARK    3  A    between atoms: N_10  and  C_11
REMARK    4  A    between atoms: C_23  and  N_48
REMARK    5  A    between atoms: C_25  and  C_26
REMARK    6  A    between atoms: C_25  and  N_48
REMARK                            x       y       z     vdW  Elec       q    Type
REMARK                         _______ _______ _______ _____ _____    ______ ____
ROOT
ATOM      1  C   UNL     1      -0.013   1.086   0.008  0.00  0.00    +0.097 C 
ATOM      2  C   UNL     1       1.396   1.628  -0.003  0.00  0.00    -0.022 A 
ATOM      3  C   UNL     1       2.465   1.530   0.835  0.00  0.00    +0.006 A 
ATOM      4  C   UNL     1       3.665   2.174   0.526  0.00  0.00    +0.001 A 
ATOM      5  C   UNL     1       3.823   2.918  -0.608  0.00  0.00    +0.008 A 
ATOM      6  C   UNL     1       2.740   3.040  -1.494  0.00  0.00    -0.017 A 
ATOM      7  C   UNL     1       1.542   2.383  -1.161  0.00  0.00    -0.012 A 
ATOM      8  C   UNL     1       0.408   2.436  -1.965  0.00  0.00    -0.052 A 
ATOM      9  C   UNL     1       0.475   3.158  -3.117  0.00  0.00    +0.003 A 
ATOM     10  C   UNL     1       1.654   3.819  -3.469  0.00  0.00    +0.001 A 
ATOM     11  C   UNL     1       2.775   3.775  -2.691  0.00  0.00    +0.008 A 
ATOM     12  C   UNL     1      -0.665   1.619  -1.286  0.00  0.00    -0.016 C 
ENDROOT
BRANCH  12  13
ATOM     13  N   UNL     1      -1.071   0.492  -2.147  0.00  0.00    +0.390 N 
ATOM     14  H   UNL     1      -1.383  -0.288  -1.558  0.00  0.00    -0.084 HD
ATOM     15  H   UNL     1      -0.269   0.194  -2.714  0.00  0.00    -0.084 HD
BRANCH  13  16
ATOM     16  C   UNL     1      -2.172   0.901  -3.039  0.00  0.00    -0.006 C 
BRANCH  16  17
ATOM     17  C   UNL     1      -2.565  -0.268  -3.906  0.00  0.00    +0.088 A 
ATOM     18  C   UNL     1      -3.496  -1.192  -3.605  0.00  0.00    +0.042 A 
ATOM     19  C   UNL     1      -3.539  -2.097  -4.690  0.00  0.00    +0.041 A 
ATOM     20  C   UNL     1      -2.632  -1.673  -5.589  0.00  0.00    +0.195 A 
ATOM     21  O   UNL     1      -2.050  -0.561  -5.111  0.00  0.00    -0.470 OA
ENDBRANCH  16  17
ENDBRANCH  13  16
ENDBRANCH  12  13
BRANCH   1  22
ATOM     22  N   UNL     1      -0.737   1.577   1.183  0.00  0.00    -0.184 NA
ATOM     23  H   UNL     1      -1.143   2.457   1.170  0.00  0.00    +0.149 HD
BRANCH  22  24
ATOM     24  S   UNL     1      -0.862   0.627   2.534  0.00  0.00    +0.059 S 
ATOM     25  O   UNL     1      -1.588   1.383   3.495  0.00  0.00    -0.153 OA
ATOM     26  O   UNL     1      -1.289  -0.654   2.093  0.00  0.00    -0.153 OA
BRANCH  24  30
ATOM     27  C   UNL     1       3.317   0.099   4.192  0.00  0.00    +0.000 A 
ATOM     28  C   UNL     1       2.535   1.159   4.613  0.00  0.00    +0.002 A 
ATOM     29  C   UNL     1       1.259   1.320   4.107  0.00  0.00    +0.028 A 
ATOM     30  C   UNL     1       0.764   0.422   3.179  0.00  0.00    +0.105 A 
ATOM     31  C   UNL     1       1.544  -0.641   2.763  0.00  0.00    +0.028 A 
ATOM     32  C   UNL     1       2.822  -0.800   3.266  0.00  0.00    +0.002 A 
ENDBRANCH  24  30
ENDBRANCH  22  24
ENDBRANCH   1  22
TORSDOF 6
