REMARK  Name = ZINC39673791
REMARK  7 active torsions:
REMARK  status: ('A' for Active; 'I' for Inactive)
REMARK    1  A    between atoms: C_1  and  C_2
REMARK    2  A    between atoms: C_2  and  C_3
REMARK    3  A    between atoms: C_3  and  C_4
REMARK    4  A    between atoms: C_4  and  C_6
REMARK    5  A    between atoms: C_4  and  N_7
REMARK    6  A    between atoms: C_8  and  C_10
REMARK    7  A    between atoms: C_21  and  C_23
REMARK                            x       y       z     vdW  Elec       q    Type
REMARK                         _______ _______ _______ _____ _____    ______ ____
ROOT
ATOM      1  C   UNL     1       2.131  -4.220  -1.602  0.00  0.00    +0.100 C 
ATOM      2  C   UNL     1       1.793  -3.397  -2.865  0.00  0.00    +0.121 C 
ATOM      3  N   UNL     1       1.827  -4.381  -3.973  0.00  0.00    -0.297 N 
ATOM      4  C   UNL     1       1.210  -5.601  -3.401  0.00  0.00    +0.115 C 
ATOM      5  C   UNL     1       1.747  -5.665  -1.957  0.00  0.00    -0.004 C 
ATOM      6  C   UNL     1       2.973  -6.570  -1.890  0.00  0.00    -0.010 C 
ATOM      7  C   UNL     1       2.555  -8.012  -2.191  0.00  0.00    -0.082 C 
ATOM      8  N   UNL     1       1.548  -8.446  -1.215  0.00  0.00    +0.379 N 
ATOM      9  C   UNL     1       0.336  -7.629  -1.350  0.00  0.00    -0.082 C 
ATOM     10  C   UNL     1       0.660  -6.171  -1.013  0.00  0.00    -0.010 C 
ATOM     11  C   UNL     1       2.311  -4.206  -5.219  0.00  0.00    +0.260 C 
ATOM     12  O   UNL     1       2.266  -5.115  -6.020  0.00  0.00    -0.271 OA
ATOM     13  H   UNL     1       1.319  -9.415  -1.379  0.00  0.00    -0.086 HD
ATOM     14  H   UNL     1       1.919  -8.343  -0.283  0.00  0.00    -0.086 HD
ENDROOT
BRANCH  11  15
ATOM     15  C   UNL     1       2.906  -2.880  -5.616  0.00  0.00    +0.296 C 
ATOM     16  C   UNL     1       1.816  -1.799  -5.608  0.00  0.00    +0.283 C 
ATOM     17  O   UNL     1       2.411  -0.559  -6.003  0.00  0.00    -0.484 OA
ATOM     18  C   UNL     1       3.225  -0.591  -7.093  0.00  0.00    +0.162 A 
ATOM     19  C   UNL     1       3.539   0.594  -7.743  0.00  0.00    +0.049 A 
ATOM     20  C   UNL     1       4.367   0.577  -8.849  0.00  0.00    +0.004 A 
ATOM     21  C   UNL     1       4.884  -0.619  -9.312  0.00  0.00    +0.004 A 
ATOM     22  C   UNL     1       4.574  -1.802  -8.669  0.00  0.00    +0.049 A 
ATOM     23  C   UNL     1       3.743  -1.793  -7.559  0.00  0.00    +0.163 A 
ATOM     24  O   UNL     1       3.440  -2.968  -6.942  0.00  0.00    -0.473 OA
ENDBRANCH  11  15
BRANCH   1  26
ATOM     25  N   UNL     1       1.808  -3.855   0.824  0.00  0.00    -0.312 N 
ATOM     26  C   UNL     1       1.321  -3.735  -0.427  0.00  0.00    +0.218 C 
ATOM     27  O   UNL     1       0.230  -3.236  -0.608  0.00  0.00    -0.275 OA
ATOM     28  H   UNL     1       2.680  -4.255   0.968  0.00  0.00    +0.149 HD
BRANCH  25  29
ATOM     29  C   UNL     1       1.020  -3.384   1.965  0.00  0.00    +0.070 C 
ATOM     30  C   UNL     1       0.042  -4.479   2.397  0.00  0.00    +0.028 C 
BRANCH  29  31
ATOM     31  C   UNL     1       1.956  -3.049   3.127  0.00  0.00    +0.022 C 
BRANCH  31  33
ATOM     32  C   UNL     1       3.787  -1.534   3.901  0.00  0.00    +0.004 C 
ATOM     33  C   UNL     1       2.850  -1.870   2.738  0.00  0.00    -0.002 C 
ENDBRANCH  31  33
ENDBRANCH  29  31
ENDBRANCH  25  29
ENDBRANCH   1  26
TORSDOF 5
