REMARK  Name = ZINC32094257
REMARK  7 active torsions:
REMARK  status: ('A' for Active; 'I' for Inactive)
REMARK    1  A    between atoms: C_1  and  C_2
REMARK    2  A    between atoms: C_5  and  C_31
REMARK    3  A    between atoms: C_6  and  N_8
REMARK    4  A    between atoms: N_24  and  C_27
REMARK    5  A    between atoms: C_27  and  C_28
REMARK    6  A    between atoms: C_28  and  C_29
REMARK    7  A    between atoms: C_28  and  C_30
REMARK                            x       y       z     vdW  Elec       q    Type
REMARK                         _______ _______ _______ _____ _____    ______ ____
ROOT
ATOM      1  N   UNL     1       0.278  -3.111   2.167  0.00  0.00    -0.218 N 
ATOM      2  C   UNL     1       0.343  -2.750   3.464  0.00  0.00    +0.133 A 
ATOM      3  C   UNL     1       0.453  -3.897   4.208  0.00  0.00    +0.032 A 
ATOM      4  C   UNL     1       0.465  -4.973   3.333  0.00  0.00    +0.141 A 
ATOM      5  N   UNL     1       0.356  -4.512   2.109  0.00  0.00    -0.173 NA
ATOM      6  C   UNL     1       0.528  -3.869   5.709  0.00  0.00    +0.112 C 
ATOM      7  C   UNL     1       1.147  -2.548   6.159  0.00  0.00    +0.122 C 
ATOM      8  C   UNL     1       0.589  -1.392   5.375  0.00  0.00    +0.220 C 
ATOM      9  O   UNL     1       0.392  -0.338   5.943  0.00  0.00    -0.275 OA
ATOM     10  N   UNL     1       0.300  -1.490   4.061  0.00  0.00    -0.270 N 
ATOM     11  C   UNL     1      -0.820  -4.072   6.324  0.00  0.00    -0.006 A 
ATOM     12  C   UNL     1      -1.985  -3.340   6.235  0.00  0.00    +0.007 A 
ATOM     13  C   UNL     1      -3.082  -3.813   6.946  0.00  0.00    +0.000 A 
ATOM     14  C   UNL     1      -3.006  -4.963   7.705  0.00  0.00    +0.002 A 
ATOM     15  C   UNL     1      -1.838  -5.703   7.799  0.00  0.00    +0.024 A 
ATOM     16  C   UNL     1      -0.729  -5.240   7.090  0.00  0.00    +0.041 A 
ATOM     17  N   UNL     1       0.546  -5.773   7.006  0.00  0.00    -0.270 N 
ATOM     18  C   UNL     1       1.352  -5.033   6.215  0.00  0.00    +0.235 C 
ATOM     19  O   UNL     1       2.516  -5.258   5.960  0.00  0.00    -0.274 OA
ATOM     20  H   UNL     1       0.069  -0.703   3.543  0.00  0.00    +0.156 HD
ENDROOT
BRANCH   1  26
ATOM     21  C   UNL     1       1.725   0.937  -0.222  0.00  0.00    +0.044 C 
ATOM     22  C   UNL     1       0.837  -0.275  -0.110  0.00  0.00    -0.048 A 
ATOM     23  C   UNL     1      -0.106  -0.534  -1.087  0.00  0.00    +0.004 A 
ATOM     24  C   UNL     1      -0.923  -1.645  -0.987  0.00  0.00    +0.006 A 
ATOM     25  C   UNL     1      -0.798  -2.501   0.090  0.00  0.00    -0.025 A 
ATOM     26  C   UNL     1       0.149  -2.244   1.073  0.00  0.00    +0.071 A 
ATOM     27  C   UNL     1       0.971  -1.130   0.967  0.00  0.00    +0.031 A 
ATOM     28  C   UNL     1      -1.689  -3.711   0.199  0.00  0.00    +0.046 C 
ENDBRANCH   1  26
BRANCH  17  29
ATOM     29  C   UNL     1       0.970  -6.995   7.692  0.00  0.00    +0.116 C 
BRANCH  29  30
ATOM     30  C   UNL     1       0.714  -8.203   6.788  0.00  0.00    +0.001 C 
ATOM     31  C   UNL     1       1.603  -8.107   5.546  0.00  0.00    +0.009 C 
ATOM     32  C   UNL     1       1.040  -9.489   7.550  0.00  0.00    +0.009 C 
ENDBRANCH  29  30
ENDBRANCH  17  29
TORSDOF 3
