REMARK  Name = ZINC66091551
REMARK  8 active torsions:
REMARK  status: ('A' for Active; 'I' for Inactive)
REMARK    1  A    between atoms: C_1  and  O_2
REMARK    2  A    between atoms: O_2  and  C_3
REMARK    3  A    between atoms: C_3  and  C_4
REMARK    4  A    between atoms: C_3  and  O_30
REMARK    5  A    between atoms: C_4  and  N_5
REMARK    6  A    between atoms: C_9  and  C_20
REMARK    7  A    between atoms: C_20  and  C_22
REMARK    8  A    between atoms: O_30  and  C_31
REMARK                            x       y       z     vdW  Elec       q    Type
REMARK                         _______ _______ _______ _____ _____    ______ ____
ROOT
ATOM      1  N   UNL     1      -0.463  -2.430  -0.978  0.00  0.00    -0.268 N 
ATOM      2  C   UNL     1      -0.510  -2.783   0.322  0.00  0.00    +0.288 C 
ATOM      3  O   UNL     1       0.391  -2.621   1.122  0.00  0.00    -0.266 OA
ATOM      4  C   UNL     1      -1.820  -3.395   0.631  0.00  0.00    +0.250 C 
ATOM      5  C   UNL     1      -2.578  -3.414  -0.493  0.00  0.00    +0.089 C 
ATOM      6  C   UNL     1      -1.744  -2.790  -1.579  0.00  0.00    +0.174 C 
ATOM      7  C   UNL     1      -1.565  -3.735  -2.737  0.00  0.00    +0.011 A 
ATOM      8  C   UNL     1      -1.011  -4.990  -2.855  0.00  0.00    +0.008 A 
ATOM      9  C   UNL     1      -0.992  -5.625  -4.084  0.00  0.00    +0.000 A 
ATOM     10  C   UNL     1      -1.530  -4.996  -5.192  0.00  0.00    +0.002 A 
ATOM     11  C   UNL     1      -2.085  -3.739  -5.078  0.00  0.00    +0.023 A 
ATOM     12  C   UNL     1      -2.108  -3.092  -3.844  0.00  0.00    +0.040 A 
ATOM     13  N   UNL     1      -2.605  -1.839  -3.480  0.00  0.00    -0.283 N 
ATOM     14  C   UNL     1      -2.430  -1.585  -2.170  0.00  0.00    +0.250 C 
ATOM     15  O   UNL     1      -2.762  -0.579  -1.579  0.00  0.00    -0.272 OA
ATOM     16  O   UNL     1      -2.202  -3.860   1.843  0.00  0.00    -0.282 OA
ATOM     17  H   UNL     1      -3.027  -1.223  -4.099  0.00  0.00    +0.155 HD
ENDROOT
BRANCH   5  18
ATOM     18  C   UNL     1      -3.942  -3.936  -0.623  0.00  0.00    +0.196 C 
ATOM     19  O   UNL     1      -4.129  -5.030  -1.121  0.00  0.00    -0.287 OA
BRANCH  18  20
ATOM     20  C   UNL     1      -5.088  -3.133  -0.150  0.00  0.00    +0.022 A 
ATOM     21  C   UNL     1      -4.884  -1.844   0.348  0.00  0.00    +0.013 A 
ATOM     22  C   UNL     1      -5.958  -1.099   0.787  0.00  0.00    +0.021 A 
ATOM     23  C   UNL     1      -7.238  -1.627   0.735  0.00  0.00    +0.041 A 
ATOM     24  C   UNL     1      -7.447  -2.904   0.242  0.00  0.00    +0.021 A 
ATOM     25  C   UNL     1      -6.382  -3.657  -0.205  0.00  0.00    +0.013 A 
ATOM     26 CL   UNL     1      -8.585  -0.683   1.291  0.00  0.00    -0.084 Cl
ENDBRANCH  18  20
ENDBRANCH   5  18
BRANCH   1  27
ATOM     27  C   UNL     1       0.667  -1.796  -1.662  0.00  0.00    +0.171 C 
BRANCH  27  28
ATOM     28  C   UNL     1       0.536  -0.275  -1.561  0.00  0.00    +0.267 C 
BRANCH  28  30
ATOM     29  C   UNL     1       0.942   1.463   0.039  0.00  0.00    +0.197 C 
ATOM     30  O   UNL     1       0.534   0.112  -0.185  0.00  0.00    -0.353 OA
ENDBRANCH  28  30
BRANCH  28  31
ATOM     31  O   UNL     1      -0.686   0.140  -2.174  0.00  0.00    -0.353 OA
ATOM     32  C   UNL     1      -0.753   1.540  -2.448  0.00  0.00    +0.197 C 
ENDBRANCH  28  31
ENDBRANCH  27  28
ENDBRANCH   1  27
TORSDOF 6
