REMARK  Name = ZINC59987561
REMARK  4 active torsions:
REMARK  status: ('A' for Active; 'I' for Inactive)
REMARK    1  A    between atoms: N_9  and  C_10
REMARK    2  A    between atoms: C_10  and  C_11
REMARK    3  A    between atoms: N_13  and  C_14
REMARK    4  A    between atoms: C_19  and  O_20
REMARK                            x       y       z     vdW  Elec       q    Type
REMARK                         _______ _______ _______ _____ _____    ______ ____
ROOT
ATOM      1  C   UNL     1       2.382  -3.406   1.376  0.00  0.00    +0.237 C 
ATOM      2  O   UNL     1       1.915  -2.778   2.303  0.00  0.00    -0.274 OA
ATOM      3  N   UNL     1       3.308  -4.359   1.606  0.00  0.00    -0.281 N 
ATOM      4  H   UNL     1       3.633  -4.905   0.874  0.00  0.00    +0.155 HD
ENDROOT
BRANCH   3   5
ATOM      5  C   UNL     1       3.800  -4.559   2.902  0.00  0.00    +0.077 A 
ATOM      6  C   UNL     1       2.965  -4.388   3.997  0.00  0.00    +0.047 A 
ATOM      7  C   UNL     1       3.453  -4.587   5.276  0.00  0.00    +0.043 A 
ATOM      8  C   UNL     1       4.772  -4.956   5.466  0.00  0.00    +0.023 A 
ATOM      9  C   UNL     1       5.609  -5.128   4.379  0.00  0.00    +0.049 A 
ATOM     10  C   UNL     1       5.126  -4.936   3.095  0.00  0.00    +0.138 A 
ATOM     11 CL   UNL     1       2.407  -4.372   6.645  0.00  0.00    -0.083 Cl
BRANCH  10  12
ATOM     12  O   UNL     1       5.947  -5.111   2.025  0.00  0.00    -0.505 OA
ATOM     13  H   UNL     1       6.420  -4.311   1.758  0.00  0.00    +0.292 HD
ENDBRANCH  10  12
ENDBRANCH   3   5
BRANCH   1  14
ATOM     14  C   UNL     1       1.927  -3.122  -0.032  0.00  0.00    +0.217 C 
BRANCH  14  23
ATOM     15  C   UNL     1      -0.050   1.371   0.004  0.00  0.00    +0.011 A 
ATOM     16  C   UNL     1       1.123   2.071  -0.013  0.00  0.00    +0.021 A 
ATOM     17  C   UNL     1       2.342   1.404  -0.032  0.00  0.00    +0.043 A 
ATOM     18  C   UNL     1       2.389   0.026  -0.035  0.00  0.00    +0.046 A 
ATOM     19  C   UNL     1       1.206  -0.706  -0.017  0.00  0.00    +0.051 A 
ATOM     20  C   UNL     1      -0.025  -0.025   0.003  0.00  0.00    -0.000 A 
ATOM     21  C   UNL     1      -1.061  -1.061   0.017  0.00  0.00    +0.027 A 
ATOM     22  C   UNL     1      -0.430  -2.246   0.006  0.00  0.00    +0.087 A 
ATOM     23  N   UNL     1       0.925  -2.054  -0.015  0.00  0.00    -0.338 N 
ATOM     24 CL   UNL     1       3.820   2.314  -0.054  0.00  0.00    -0.083 Cl
ENDBRANCH  14  23
ENDBRANCH   1  14
TORSDOF 4
