REMARK  Name = ZINC09685733
REMARK  9 active torsions:
REMARK  status: ('A' for Active; 'I' for Inactive)
REMARK    1  A    between atoms: C_1  and  C_2
REMARK    2  A    between atoms: C_5  and  C_35
REMARK    3  A    between atoms: C_6  and  C_8
REMARK    4  A    between atoms: C_8  and  N_70
REMARK    5  A    between atoms: C_11  and  C_14
REMARK    6  A    between atoms: C_14  and  N_15
REMARK    7  A    between atoms: N_15  and  S_16
REMARK    8  A    between atoms: S_16  and  C_19
REMARK    9  A    between atoms: C_24  and  C_25
REMARK                            x       y       z     vdW  Elec       q    Type
REMARK                         _______ _______ _______ _____ _____    ______ ____
ROOT
ATOM      1  N   UNL     1       0.306  -3.165   2.035  0.00  0.00    -0.190 NA
ATOM      2  H   UNL     1       0.883  -3.466   2.755  0.00  0.00    +0.148 HD
ENDROOT
BRANCH   1   3
ATOM      3  S   UNL     1       0.944  -2.855   0.539  0.00  0.00    +0.059 S 
ATOM      4  O   UNL     1       0.111  -3.517  -0.403  0.00  0.00    -0.153 OA
ATOM      5  O   UNL     1       2.339  -3.107   0.631  0.00  0.00    -0.153 OA
BRANCH   3   6
ATOM      6  C   UNL     1       0.763  -1.127   0.243  0.00  0.00    +0.110 A 
ATOM      7  C   UNL     1      -0.030  -0.691  -0.796  0.00  0.00    +0.055 A 
ATOM      8  C   UNL     1      -0.178   0.670  -1.036  0.00  0.00    +0.049 A 
ATOM      9  C   UNL     1       0.489   1.593  -0.208  0.00  0.00    +0.011 A 
ATOM     10  C   UNL     1       1.287   1.136   0.838  0.00  0.00    +0.016 A 
ATOM     11  C   UNL     1       1.420  -0.217   1.058  0.00  0.00    -0.023 A 
ATOM     12  C   UNL     1       2.284  -0.712   2.190  0.00  0.00    +0.046 C 
ATOM     13  C   UNL     1       0.127   2.914  -0.724  0.00  0.00    +0.046 A 
ATOM     14  C   UNL     1      -0.721   2.704  -1.801  0.00  0.00    +0.028 A 
ATOM     15  N   UNL     1      -0.891   1.387  -1.980  0.00  0.00    -0.357 N 
ATOM     16  H   UNL     1      -1.439   0.991  -2.675  0.00  0.00    +0.166 HD
ATOM     17  C   UNL     1      -1.312   3.851  -2.587  0.00  0.00    +0.054 C 
ATOM     18  C   UNL     1      -1.389   5.071  -1.661  0.00  0.00    +0.014 C 
ATOM     19  C   UNL     1      -0.012   5.391  -1.080  0.00  0.00    +0.080 C 
ATOM     20  C   UNL     1       0.505   4.208  -0.291  0.00  0.00    +0.165 C 
ATOM     21  O   UNL     1       1.220   4.363   0.679  0.00  0.00    -0.292 OA
ENDBRANCH   3   6
ENDBRANCH   1   3
BRANCH   1  22
ATOM     22  C   UNL     1      -1.128  -2.984   2.272  0.00  0.00    +0.109 C 
BRANCH  22  25
ATOM     23  C   UNL     1      -3.383  -4.082   5.192  0.00  0.00    -0.078 C 
ATOM     24  C   UNL     1      -2.985  -3.360   3.903  0.00  0.00    -0.014 C 
ATOM     25  C   UNL     1      -1.515  -3.654   3.592  0.00  0.00    +0.001 C 
ATOM     26  C   UNL     1      -1.319  -5.168   3.474  0.00  0.00    -0.014 C 
ATOM     27  C   UNL     1      -1.766  -5.838   4.775  0.00  0.00    -0.078 C 
ATOM     28  N   UNL     1      -3.195  -5.537   5.005  0.00  0.00    +0.382 N 
ATOM     29  H   UNL     1      -3.735  -5.840   4.185  0.00  0.00    -0.081 HD
BRANCH  28  30
ATOM     30  C   UNL     1      -3.680  -6.266   6.195  0.00  0.00    -0.043 C 
BRANCH  30  36
ATOM     31  C   UNL     1      -2.095 -11.001   6.527  0.00  0.00    +0.044 C 
ATOM     32  C   UNL     1      -3.076  -9.988   5.998  0.00  0.00    -0.050 A 
ATOM     33  C   UNL     1      -4.120 -10.394   5.187  0.00  0.00    +0.003 A 
ATOM     34  C   UNL     1      -5.020  -9.464   4.702  0.00  0.00    +0.004 A 
ATOM     35  C   UNL     1      -4.881  -8.129   5.032  0.00  0.00    -0.049 A 
ATOM     36  C   UNL     1      -3.835  -7.722   5.839  0.00  0.00    -0.061 A 
ATOM     37  C   UNL     1      -2.934  -8.652   6.324  0.00  0.00    +0.005 A 
ATOM     38  C   UNL     1      -5.866  -7.116   4.509  0.00  0.00    +0.044 C 
ENDBRANCH  30  36
ENDBRANCH  28  30
ENDBRANCH  22  25
ENDBRANCH   1  22
TORSDOF 6
