REMARK  Name = ZINC38778906
REMARK  4 active torsions:
REMARK  status: ('A' for Active; 'I' for Inactive)
REMARK    1  A    between atoms: C_4  and  C_8
REMARK    2  A    between atoms: C_8  and  O_10
REMARK    3  A    between atoms: O_10  and  C_11
REMARK    4  A    between atoms: C_11  and  C_12
REMARK                            x       y       z     vdW  Elec       q    Type
REMARK                         _______ _______ _______ _____ _____    ______ ____
ROOT
ATOM      1  C   UNL     1       6.061  -1.860  -2.741  0.00  0.00    +0.255 C 
ATOM      2  O   UNL     1       5.566  -1.503  -3.789  0.00  0.00    -0.272 OA
ATOM      3  N   UNL     1       7.177  -2.617  -2.746  0.00  0.00    -0.283 N 
ATOM      4  C   UNL     1       7.196  -3.759  -3.405  0.00  0.00    +0.036 C 
ATOM      5  C   UNL     1       5.968  -4.267  -4.028  0.00  0.00    +0.025 C 
ATOM      6  C   UNL     1       5.980  -5.433  -4.703  0.00  0.00    +0.032 C 
ATOM      7  C   UNL     1       7.222  -6.203  -4.819  0.00  0.00    +0.095 C 
ATOM      8  N   UNL     1       7.547  -7.344  -5.396  0.00  0.00    -0.190 NA
ATOM      9  C   UNL     1       8.852  -7.590  -5.189  0.00  0.00    +0.369 C 
ATOM     10  O   UNL     1       9.504  -8.683  -5.651  0.00  0.00    -0.243 OA
ATOM     11  N   UNL     1       9.415  -6.636  -4.484  0.00  0.00    -0.190 NA
ATOM     12  C   UNL     1       8.463  -5.702  -4.196  0.00  0.00    +0.097 C 
ATOM     13  C   UNL     1       8.455  -4.525  -3.520  0.00  0.00    +0.053 C 
ATOM     14  H   UNL     1       7.965  -2.321  -2.265  0.00  0.00    +0.155 HD
ENDROOT
BRANCH   1  15
ATOM     15  C   UNL     1       5.429  -1.458  -1.433  0.00  0.00    +0.328 C 
BRANCH  15  16
ATOM     16  O   UNL     1       4.268  -0.666  -1.689  0.00  0.00    -0.452 OA
BRANCH  16  17
ATOM     17  C   UNL     1       3.582  -0.222  -0.618  0.00  0.00    +0.342 C 
ATOM     18  O   UNL     1       3.959  -0.501   0.503  0.00  0.00    -0.245 OA
BRANCH  17  22
ATOM     19  C   UNL     1       0.101   2.150  -1.160  0.00  0.00    +0.003 A 
ATOM     20  C   UNL     1       1.338   2.759  -1.051  0.00  0.00    +0.021 A 
ATOM     21  C   UNL     1       2.475   1.994  -0.874  0.00  0.00    +0.056 A 
ATOM     22  C   UNL     1       2.372   0.602  -0.805  0.00  0.00    +0.095 A 
ATOM     23  C   UNL     1       1.118  -0.006  -0.916  0.00  0.00    +0.056 A 
ATOM     24  C   UNL     1      -0.009   0.772  -1.093  0.00  0.00    +0.021 A 
ATOM     25 CL   UNL     1       0.978  -1.734  -0.833  0.00  0.00    -0.083 Cl
ATOM     26 CL   UNL     1       4.027   2.761  -0.739  0.00  0.00    -0.083 Cl
ENDBRANCH  17  22
ENDBRANCH  16  17
ENDBRANCH  15  16
ENDBRANCH   1  15
TORSDOF 4
