REMARK  Name = ZINC49539321
REMARK  9 active torsions:
REMARK  status: ('A' for Active; 'I' for Inactive)
REMARK    1  A    between atoms: C_1  and  C_2
REMARK    2  A    between atoms: C_3  and  C_8
REMARK    3  A    between atoms: C_5  and  C_7
REMARK    4  A    between atoms: C_8  and  C_10
REMARK    5  A    between atoms: C_8  and  N_11
REMARK    6  A    between atoms: N_11  and  S_12
REMARK    7  A    between atoms: S_12  and  C_15
REMARK    8  A    between atoms: C_18  and  C_20
REMARK    9  A    between atoms: C_20  and  N_21
REMARK                            x       y       z     vdW  Elec       q    Type
REMARK                         _______ _______ _______ _____ _____    ______ ____
ROOT
ATOM      1  S   UNL     1       1.815  -0.210  -4.581  0.00  0.00    +0.065 S 
ATOM      2  O   UNL     1       2.697  -1.180  -5.129  0.00  0.00    -0.153 OA
ATOM      3  O   UNL     1       0.857   0.481  -5.370  0.00  0.00    -0.153 OA
ENDROOT
BRANCH   1   4
ATOM      4  C   UNL     1       2.826   1.020  -3.826  0.00  0.00    +0.143 A 
ATOM      5  C   UNL     1       4.096   0.915  -3.363  0.00  0.00    +0.036 A 
ATOM      6  C   UNL     1       4.699   2.025  -2.803  0.00  0.00    +0.011 A 
ATOM      7  C   UNL     1       4.003   3.187  -2.733  0.00  0.00    -0.026 A 
ATOM      8  S   UNL     1       2.447   2.730  -3.480  0.00  0.00    -0.075 S 
BRANCH   7   9
ATOM      9  C   UNL     1       4.433   4.519  -2.175  0.00  0.00    -0.043 C 
BRANCH   9  10
ATOM     10  N   UNL     1       5.057   5.317  -3.239  0.00  0.00    +0.381 N 
ATOM     11  H   UNL     1       5.863   4.827  -3.599  0.00  0.00    -0.090 HD
ATOM     12  H   UNL     1       4.392   5.463  -3.984  0.00  0.00    -0.090 HD
ATOM     13  H   UNL     1       5.345   6.209  -2.866  0.00  0.00    -0.090 HD
ENDBRANCH   9  10
ENDBRANCH   7   9
ENDBRANCH   1   4
BRANCH   1  14
ATOM     14  N   UNL     1       0.975  -0.964  -3.369  0.00  0.00    -0.182 NA
ATOM     15  H   UNL     1       1.134  -1.902  -3.180  0.00  0.00    +0.149 HD
BRANCH  14  16
ATOM     16  C   UNL     1      -0.008  -0.215  -2.583  0.00  0.00    +0.112 C 
ATOM     17  C   UNL     1      -1.402  -0.420  -3.180  0.00  0.00    +0.031 C 
BRANCH  16  20
ATOM     18  C   UNL     1      -0.018   1.503   0.010  0.00  0.00    +0.066 C 
ATOM     19  C   UNL     1       0.002  -0.004   0.002  0.00  0.00    +0.050 A 
ATOM     20  C   UNL     1       0.006  -0.708  -1.159  0.00  0.00    +0.031 A 
ATOM     21  S   UNL     1       0.032  -2.379  -0.531  0.00  0.00    -0.075 S 
ATOM     22  C   UNL     1       0.036  -2.009   1.111  0.00  0.00    +0.076 A 
ATOM     23  N   UNL     1       0.023  -0.699   1.122  0.00  0.00    -0.249 NA
ATOM     24  C   UNL     1       0.055  -2.955   2.284  0.00  0.00    +0.073 C 
ENDBRANCH  16  20
ENDBRANCH  14  16
ENDBRANCH   1  14
TORSDOF 6
