REMARK  Name = ZINC64891208
REMARK  6 active torsions:
REMARK  status: ('A' for Active; 'I' for Inactive)
REMARK    1  A    between atoms: C_1  and  C_2
REMARK    2  A    between atoms: C_2  and  C_3
REMARK    3  A    between atoms: C_3  and  N_4
REMARK    4  A    between atoms: C_8  and  C_15
REMARK    5  A    between atoms: C_18  and  C_21
REMARK    6  A    between atoms: N_26  and  C_28
REMARK                            x       y       z     vdW  Elec       q    Type
REMARK                         _______ _______ _______ _____ _____    ______ ____
ROOT
ATOM      1  C   UNL     1      -2.555  -6.050   3.197  0.00  0.00    +0.168 C 
ATOM      2  N   UNL     1      -2.248  -7.296   3.039  0.00  0.00    -0.067 NA
ATOM      3  O   UNL     1      -3.234  -8.136   3.609  0.00  0.00    -0.369 OA
ATOM      4  C   UNL     1      -4.236  -7.271   4.166  0.00  0.00    +0.297 C 
ATOM      5  N   UNL     1      -3.750  -5.912   3.880  0.00  0.00    -0.289 N 
ATOM      6  H   UNL     1      -4.186  -5.079   4.121  0.00  0.00    +0.151 HD
ENDROOT
BRANCH   1  11
ATOM      7  N   UNL     1       0.767  -1.953   1.265  0.00  0.00    -0.292 N 
ATOM      8  C   UNL     1      -0.196  -2.788   1.822  0.00  0.00    +0.070 A 
ATOM      9  C   UNL     1      -1.384  -2.549   2.499  0.00  0.00    +0.029 A 
ATOM     10  C   UNL     1      -2.149  -3.604   2.944  0.00  0.00    +0.013 A 
ATOM     11  C   UNL     1      -1.732  -4.918   2.717  0.00  0.00    +0.020 A 
ATOM     12  C   UNL     1      -0.539  -5.163   2.037  0.00  0.00    +0.039 A 
ATOM     13  C   UNL     1       0.227  -4.101   1.591  0.00  0.00    +0.068 A 
ATOM     14  N   UNL     1       1.434  -4.019   0.900  0.00  0.00    -0.306 N 
ATOM     15  H   UNL     1       1.969  -4.770   0.600  0.00  0.00    +0.170 HD
ATOM     16  C   UNL     1       1.729  -2.718   0.716  0.00  0.00    +0.328 A 
ATOM     17  O   UNL     1       2.716  -2.298   0.142  0.00  0.00    -0.247 OA
BRANCH   7  18
ATOM     18  C   UNL     1       0.737  -0.488   1.271  0.00  0.00    +0.127 C 
BRANCH  18  20
ATOM     19  C   UNL     1      -0.027   1.541   0.029  0.00  0.00    +0.005 C 
ATOM     20  C   UNL     1       0.005   0.011   0.023  0.00  0.00    +0.018 C 
ENDBRANCH  18  20
ENDBRANCH   7  18
ENDBRANCH   1  11
BRANCH   4  21
ATOM     21  C   UNL     1      -4.348  -7.488   5.676  0.00  0.00    +0.077 C 
ATOM     22  C   UNL     1      -2.998  -7.211   6.378  0.00  0.00    +0.106 C 
ATOM     23  C   UNL     1      -2.930  -8.251   7.474  0.00  0.00    +0.220 C 
ATOM     24  O   UNL     1      -2.176  -8.210   8.424  0.00  0.00    -0.275 OA
ATOM     25  N   UNL     1      -3.825  -9.226   7.244  0.00  0.00    -0.271 N 
ATOM     26  C   UNL     1      -4.574  -8.981   6.005  0.00  0.00    +0.123 C 
BRANCH  25  27
ATOM     27  C   UNL     1      -4.019 -10.334   8.077  0.00  0.00    +0.036 A 
ATOM     28  C   UNL     1      -3.186 -10.537   9.168  0.00  0.00    +0.023 A 
ATOM     29  C   UNL     1      -3.380 -11.631   9.989  0.00  0.00    +0.002 A 
ATOM     30  C   UNL     1      -4.403 -12.523   9.725  0.00  0.00    +0.000 A 
ATOM     31  C   UNL     1      -5.234 -12.323   8.638  0.00  0.00    +0.002 A 
ATOM     32  C   UNL     1      -5.050 -11.228   7.817  0.00  0.00    +0.023 A 
ENDBRANCH  25  27
ENDBRANCH   4  21
TORSDOF 5
