REMARK  Name = ZINC25677866
REMARK  7 active torsions:
REMARK  status: ('A' for Active; 'I' for Inactive)
REMARK    1  A    between atoms: C_1  and  C_2
REMARK    2  A    between atoms: C_2  and  N_3
REMARK    3  A    between atoms: C_7  and  C_9
REMARK    4  A    between atoms: C_9  and  C_11
REMARK    5  A    between atoms: C_9  and  N_17
REMARK    6  A    between atoms: N_20  and  S_23
REMARK    7  A    between atoms: S_23  and  C_26
REMARK                            x       y       z     vdW  Elec       q    Type
REMARK                         _______ _______ _______ _____ _____    ______ ____
ROOT
ATOM      1  C   UNL     1      -2.482   0.853   0.018  0.00  0.00    +0.051 C 
ENDROOT
BRANCH   1   6
ATOM      2  N   UNL     1       2.323   0.998  -0.015  0.00  0.00    -0.299 N 
ATOM      3  C   UNL     1       1.147   1.655   0.000  0.00  0.00    +0.306 C 
ATOM      4  O   UNL     1       1.130   2.871   0.007  0.00  0.00    -0.252 OA
ATOM      5  N   UNL     1      -0.011   0.966   0.007  0.00  0.00    -0.241 N 
ATOM      6  C   UNL     1      -1.187   1.624   0.017  0.00  0.00    +0.211 C 
ATOM      7  O   UNL     1      -1.204   2.836   0.023  0.00  0.00    -0.277 OA
ATOM      8  H   UNL     1       2.338  -0.102  -0.021  0.00  0.00    +0.150 HD
ATOM      9  H   UNL     1       0.004  -0.134   0.006  0.00  0.00    +0.159 HD
BRANCH   2  11
ATOM     10  C   UNL     1       4.758   0.769  -0.039  0.00  0.00    +0.024 C 
ATOM     11  C   UNL     1       3.582   1.747  -0.023  0.00  0.00    +0.102 C 
ENDBRANCH   2  11
ENDBRANCH   1   6
BRANCH   1  12
ATOM     12  N   UNL     1      -3.611   1.792   0.029  0.00  0.00    +0.392 N 
ATOM     13  C   UNL     1      -4.890   1.077   0.134  0.00  0.00    -0.060 C 
ATOM     14  C   UNL     1      -6.024   2.090   0.324  0.00  0.00    +0.091 C 
ATOM     15  N   UNL     1      -5.953   3.080  -0.761  0.00  0.00    -0.180 NA
ATOM     16  C   UNL     1      -4.664   3.740  -1.017  0.00  0.00    +0.091 C 
ATOM     17  C   UNL     1      -3.583   2.662  -1.154  0.00  0.00    -0.060 C 
ATOM     18  H   UNL     1      -3.512   2.432   0.918  0.00  0.00    -0.080 HD
BRANCH  15  19
ATOM     19  S   UNL     1      -7.289   3.442  -1.671  0.00  0.00    +0.067 S 
ATOM     20  O   UNL     1      -8.421   3.115  -0.877  0.00  0.00    -0.152 OA
ATOM     21  O   UNL     1      -7.079   4.744  -2.200  0.00  0.00    -0.152 OA
BRANCH  19  22
ATOM     22  C   UNL     1      -7.300   2.337  -3.043  0.00  0.00    +0.143 A 
ATOM     23  C   UNL     1      -7.868   1.110  -3.147  0.00  0.00    +0.036 A 
ATOM     24  C   UNL     1      -7.751   0.416  -4.336  0.00  0.00    +0.010 A 
ATOM     25  C   UNL     1      -7.063   0.977  -5.360  0.00  0.00    +0.047 A 
ATOM     26  S   UNL     1      -6.559   2.538  -4.655  0.00  0.00    -0.077 S 
ENDBRANCH  19  22
ENDBRANCH  15  19
ENDBRANCH   1  12
BRANCH   1  27
ATOM     27  C   UNL     1      -2.544  -0.021   1.244  0.00  0.00    -0.052 A 
ATOM     28  C   UNL     1      -2.901   0.523   2.464  0.00  0.00    +0.002 A 
ATOM     29  C   UNL     1      -2.962  -0.280   3.588  0.00  0.00    +0.000 A 
ATOM     30  C   UNL     1      -2.658  -1.625   3.494  0.00  0.00    +0.000 A 
ATOM     31  C   UNL     1      -2.297  -2.168   2.275  0.00  0.00    +0.000 A 
ATOM     32  C   UNL     1      -2.240  -1.367   1.151  0.00  0.00    +0.002 A 
ENDBRANCH   1  27
TORSDOF 6
