REMARK  Name = ZINC40110502
REMARK  16 active torsions:
REMARK  status: ('A' for Active; 'I' for Inactive)
REMARK    1  A    between atoms: C_1  and  N_2
REMARK    2  A    between atoms: N_2  and  C_3
REMARK    3  A    between atoms: N_2  and  C_4
REMARK    4  A    between atoms: C_7  and  C_10
REMARK    5  A    between atoms: C_12  and  C_24
REMARK    6  A    between atoms: N_16  and  C_17
REMARK    7  A    between atoms: C_17  and  C_18
REMARK    8  A    between atoms: C_18  and  O_19
REMARK    9  A    between atoms: O_19  and  C_20
REMARK   10  A    between atoms: C_20  and  C_21
REMARK   11  A    between atoms: C_21  and  O_22
REMARK   12  A    between atoms: C_24  and  C_26
REMARK   13  A    between atoms: C_29  and  S_32
REMARK   14  A    between atoms: S_32  and  N_35
REMARK   15  A    between atoms: N_35  and  C_36
REMARK   16  A    between atoms: N_35  and  C_37
REMARK                            x       y       z     vdW  Elec       q    Type
REMARK                         _______ _______ _______ _____ _____    ______ ____
ROOT
ATOM      1  C   UNL     1      -0.145  -2.522  -4.401  0.00  0.00    +0.145 C 
ATOM      2  C   UNL     1      -1.356  -2.859  -5.239  0.00  0.00    +0.076 C 
ATOM      3  C   UNL     1      -1.131  -2.351  -6.473  0.00  0.00    +0.249 C 
ATOM      4  C   UNL     1       0.189  -1.685  -6.491  0.00  0.00    +0.288 C 
ATOM      5  O   UNL     1       0.678  -1.132  -7.456  0.00  0.00    -0.266 OA
ATOM      6  N   UNL     1       0.770  -1.784  -5.280  0.00  0.00    -0.281 N 
ATOM      7  O   UNL     1      -1.979  -2.439  -7.524  0.00  0.00    -0.282 OA
ENDROOT
BRANCH   1  11
ATOM      8  C   UNL     1      -1.284  -0.078  -1.085  0.00  0.00    +0.029 A 
ATOM      9  C   UNL     1      -0.961  -1.415  -0.886  0.00  0.00    +0.023 A 
ATOM     10  C   UNL     1      -0.594  -2.202  -1.960  0.00  0.00    +0.007 A 
ATOM     11  C   UNL     1      -0.547  -1.660  -3.232  0.00  0.00    -0.022 A 
ATOM     12  C   UNL     1      -0.867  -0.330  -3.433  0.00  0.00    +0.007 A 
ATOM     13  C   UNL     1      -1.241   0.461  -2.364  0.00  0.00    +0.023 A 
BRANCH   8  15
ATOM     14  C   UNL     1      -2.002   2.128  -0.212  0.00  0.00    +0.129 C 
ATOM     15  N   UNL     1      -1.656   0.720  -0.001  0.00  0.00    -0.336 N 
ATOM     16  C   UNL     1      -1.701   0.150   1.348  0.00  0.00    +0.129 C 
ENDBRANCH   8  15
ENDBRANCH   1  11
BRANCH   2  17
ATOM     17  C   UNL     1      -2.546  -3.594  -4.800  0.00  0.00    +0.195 C 
ATOM     18  O   UNL     1      -3.629  -3.042  -4.779  0.00  0.00    -0.287 OA
BRANCH  17  19
ATOM     19  C   UNL     1      -2.428  -5.007  -4.381  0.00  0.00    +0.022 A 
ATOM     20  C   UNL     1      -1.210  -5.678  -4.508  0.00  0.00    +0.013 A 
ATOM     21  C   UNL     1      -1.107  -6.996  -4.116  0.00  0.00    +0.029 A 
ATOM     22  C   UNL     1      -2.209  -7.654  -3.598  0.00  0.00    +0.105 A 
ATOM     23  C   UNL     1      -3.419  -6.996  -3.469  0.00  0.00    +0.029 A 
ATOM     24  C   UNL     1      -3.534  -5.676  -3.852  0.00  0.00    +0.013 A 
BRANCH  22  25
ATOM     25  S   UNL     1      -2.069  -9.339  -3.100  0.00  0.00    +0.060 S 
ATOM     26  O   UNL     1      -3.378  -9.889  -3.156  0.00  0.00    -0.153 OA
ATOM     27  O   UNL     1      -0.980  -9.889  -3.828  0.00  0.00    -0.153 OA
BRANCH  25  28
ATOM     28  N   UNL     1      -1.623  -9.343  -1.505  0.00  0.00    -0.183 NA
ATOM     29  C   UNL     1      -2.647  -9.345  -0.458  0.00  0.00    +0.131 C 
ATOM     30  C   UNL     1      -0.203  -9.344  -1.141  0.00  0.00    +0.131 C 
ENDBRANCH  25  28
ENDBRANCH  22  25
ENDBRANCH  17  19
ENDBRANCH   2  17
BRANCH   6  31
ATOM     31  C   UNL     1       2.082  -1.249  -4.906  0.00  0.00    +0.137 C 
BRANCH  31  32
ATOM     32  C   UNL     1       3.158  -2.304  -5.172  0.00  0.00    +0.179 C 
BRANCH  32  33
ATOM     33  O   UNL     1       3.239  -2.557  -6.576  0.00  0.00    -0.376 OA
BRANCH  33  34
ATOM     34  C   UNL     1       4.220  -3.533  -6.935  0.00  0.00    +0.187 C 
BRANCH  34  35
ATOM     35  C   UNL     1       4.219  -3.722  -8.453  0.00  0.00    +0.184 C 
BRANCH  35  36
ATOM     36  O   UNL     1       4.642  -2.511  -9.084  0.00  0.00    -0.393 OA
ATOM     37  H   UNL     1       4.666  -2.558 -10.050  0.00  0.00    +0.209 HD
ENDBRANCH  35  36
ENDBRANCH  34  35
ENDBRANCH  33  34
ENDBRANCH  32  33
ENDBRANCH  31  32
ENDBRANCH   6  31
TORSDOF 12
