REMARK  Name = ZINC13418336
REMARK  6 active torsions:
REMARK  status: ('A' for Active; 'I' for Inactive)
REMARK    1  A    between atoms: C_1  and  C_2
REMARK    2  A    between atoms: N_7  and  C_10
REMARK    3  A    between atoms: C_10  and  C_12
REMARK    4  A    between atoms: C_10  and  C_18
REMARK    5  A    between atoms: N_20  and  C_21
REMARK    6  A    between atoms: C_25  and  C_26
REMARK                            x       y       z     vdW  Elec       q    Type
REMARK                         _______ _______ _______ _____ _____    ______ ____
ROOT
ATOM      1  C   UNL     1       1.985   3.583   0.181  0.00  0.00    +0.046 C 
ATOM      2  C   UNL     1       0.952   4.552  -0.334  0.00  0.00    -0.015 A 
ATOM      3  C   UNL     1       1.259   5.910  -0.443  0.00  0.00    +0.076 A 
ATOM      4  C   UNL     1       0.222   6.738  -0.930  0.00  0.00    +0.116 A 
ATOM      5  N   UNL     1       0.382   8.047  -1.076  0.00  0.00    -0.230 NA
ATOM      6  C   UNL     1       1.508   8.636  -0.777  0.00  0.00    +0.204 A 
ATOM      7  N   UNL     1       2.574   7.947  -0.302  0.00  0.00    -0.283 N 
ATOM      8  C   UNL     1       2.520   6.613  -0.115  0.00  0.00    +0.263 A 
ATOM      9  O   UNL     1       3.483   6.002   0.311  0.00  0.00    -0.267 OA
ATOM     10  S   UNL     1      -1.110   5.600  -1.215  0.00  0.00    -0.062 S 
ATOM     11  C   UNL     1      -0.285   4.104  -0.699  0.00  0.00    +0.106 A 
ENDROOT
BRANCH  11  12
ATOM     12  C   UNL     1      -0.807   2.736  -0.667  0.00  0.00    +0.393 C 
ATOM     13  O   UNL     1      -0.101   1.824  -0.282  0.00  0.00    -0.240 OA
ATOM     14  O   UNL     1      -2.072   2.488  -1.067  0.00  0.00    -0.240 OA
ENDBRANCH  11  12
BRANCH   7  15
ATOM     15  C   UNL     1       3.810   8.666   0.015  0.00  0.00    +0.207 C 
BRANCH  15  16
ATOM     16  C   UNL     1       3.571   9.583   1.187  0.00  0.00    -0.016 A 
ATOM     17  C   UNL     1       2.666  10.621   1.079  0.00  0.00    +0.006 A 
ATOM     18  C   UNL     1       2.444  11.460   2.155  0.00  0.00    +0.000 A 
ATOM     19  C   UNL     1       3.134  11.265   3.337  0.00  0.00    +0.000 A 
ATOM     20  C   UNL     1       4.043  10.230   3.444  0.00  0.00    +0.000 A 
ATOM     21  C   UNL     1       4.262   9.389   2.369  0.00  0.00    +0.006 A 
ENDBRANCH  15  16
BRANCH  15  22
ATOM     22  C   UNL     1       4.239   9.478  -1.179  0.00  0.00    +0.241 C 
ATOM     23  O   UNL     1       3.577   9.459  -2.195  0.00  0.00    -0.273 OA
ATOM     24  N   UNL     1       5.358  10.227  -1.118  0.00  0.00    -0.310 N 
ATOM     25  H   UNL     1       5.888  10.242  -0.305  0.00  0.00    +0.149 HD
BRANCH  24  26
ATOM     26  C   UNL     1       5.775  11.017  -2.279  0.00  0.00    +0.073 C 
ATOM     27  C   UNL     1       7.259  10.996  -2.652  0.00  0.00    +0.024 C 
ATOM     28  C   UNL     1       6.646  12.248  -2.020  0.00  0.00    +0.024 C 
ENDBRANCH  24  26
ENDBRANCH  15  22
ENDBRANCH   7  15
TORSDOF 5
