REMARK  Name = ZINC02294240
REMARK  3 active torsions:
REMARK  status: ('A' for Active; 'I' for Inactive)
REMARK    1  A    between atoms: C_6  and  C_7
REMARK    2  A    between atoms: N_9  and  N_10
REMARK    3  A    between atoms: C_11  and  C_12
REMARK                            x       y       z     vdW  Elec       q    Type
REMARK                         _______ _______ _______ _____ _____    ______ ____
ROOT
ATOM      1  C   UNL     1      -1.264  -0.761   0.009  0.00  0.00    +0.263 C 
ATOM      2  O   UNL     1      -1.246  -1.978   0.002  0.00  0.00    -0.268 OA
ATOM      3  N   UNL     1      -2.442  -0.105   0.023  0.00  0.00    -0.203 N 
ATOM      4  H   UNL     1      -2.457   0.864   0.028  0.00  0.00    +0.178 HD
ENDROOT
BRANCH   1  10
ATOM      5  C   UNL     1      -0.017   1.393   0.010  0.00  0.00    +0.017 A 
ATOM      6  C   UNL     1       1.167   2.097   0.002  0.00  0.00    +0.050 A 
ATOM      7  C   UNL     1       2.383   1.423  -0.013  0.00  0.00    +0.162 A 
ATOM      8  C   UNL     1       2.409   0.031  -0.018  0.00  0.00    +0.163 A 
ATOM      9  C   UNL     1       1.224  -0.682  -0.012  0.00  0.00    +0.062 A 
ATOM     10  C   UNL     1       0.002  -0.004   0.002  0.00  0.00    +0.042 A 
ATOM     11  O   UNL     1       3.591  -0.644  -0.025  0.00  0.00    -0.485 OA
ATOM     12  C   UNL     1       4.754   0.100  -0.406  0.00  0.00    +0.270 C 
ATOM     13  C   UNL     1       4.733   1.440   0.342  0.00  0.00    +0.270 C 
ATOM     14  O   UNL     1       3.538   2.139  -0.024  0.00  0.00    -0.485 OA
ENDBRANCH   1  10
BRANCH   3  15
ATOM     15  N   UNL     1      -3.644  -0.825   0.029  0.00  0.00    -0.187 NA
ATOM     16  C   UNL     1      -4.778  -0.193   0.043  0.00  0.00    +0.139 C 
BRANCH  16  17
ATOM     17  C   UNL     1      -6.043  -0.949   0.050  0.00  0.00    +0.017 A 
ATOM     18  C   UNL     1      -7.265  -0.271   0.058  0.00  0.00    +0.060 A 
ATOM     19  C   UNL     1      -8.449  -0.984   0.065  0.00  0.00    +0.167 A 
ATOM     20  C   UNL     1      -8.423  -2.379   0.063  0.00  0.00    +0.168 A 
ATOM     21  C   UNL     1      -7.210  -3.053   0.054  0.00  0.00    +0.070 A 
ATOM     22  C   UNL     1      -6.024  -2.347   0.042  0.00  0.00    +0.053 A 
ATOM     23 CL   UNL     1      -4.510  -3.195   0.024  0.00  0.00    -0.083 Cl
ATOM     24  O   UNL     1      -9.709  -2.838   0.070  0.00  0.00    -0.453 OA
ATOM     25  C   UNL     1     -10.514  -1.720   0.490  0.00  0.00    +0.466 C 
ATOM     26  O   UNL     1      -9.751  -0.573   0.074  0.00  0.00    -0.453 OA
ENDBRANCH  16  17
ENDBRANCH   3  15
TORSDOF 3
