REMARK  Name = ZINC54740134
REMARK  7 active torsions:
REMARK  status: ('A' for Active; 'I' for Inactive)
REMARK    1  A    between atoms: C_1  and  C_2
REMARK    2  A    between atoms: C_3  and  C_19
REMARK    3  A    between atoms: C_4  and  C_18
REMARK    4  A    between atoms: N_5  and  C_7
REMARK    5  A    between atoms: C_7  and  C_8
REMARK    6  A    between atoms: C_13  and  N_14
REMARK    7  A    between atoms: C_19  and  C_21
REMARK                            x       y       z     vdW  Elec       q    Type
REMARK                         _______ _______ _______ _____ _____    ______ ____
ROOT
ATOM      1  C   UNL     1       0.068  -3.282   1.399  0.00  0.00    +0.181 C 
ENDROOT
BRANCH   1   6
ATOM      2  C   UNL     1      -0.895   1.619   0.896  0.00  0.00    +0.068 C 
ATOM      3  C   UNL     1      -0.670   0.159   0.596  0.00  0.00    +0.065 A 
ATOM      4  C   UNL     1      -0.733  -0.438  -0.667  0.00  0.00    +0.013 A 
ATOM      5  C   UNL     1      -0.472  -1.757  -0.518  0.00  0.00    +0.041 A 
ATOM      6  N   UNL     1      -0.251  -1.987   0.793  0.00  0.00    -0.264 N 
ATOM      7  N   UNL     1      -0.376  -0.768   1.472  0.00  0.00    -0.176 NA
ATOM      8  C   UNL     1      -0.435  -2.786  -1.619  0.00  0.00    +0.065 C 
BRANCH   4   9
ATOM      9  C   UNL     1      -1.040   0.264  -1.965  0.00  0.00    +0.111 C 
ATOM     10  C   UNL     1      -2.536   0.575  -2.036  0.00  0.00    +0.029 C 
ATOM     11 CL   UNL     1      -0.102   1.802  -2.053  0.00  0.00    -0.117 Cl
ENDBRANCH   4   9
ENDBRANCH   1   6
BRANCH   1  12
ATOM     12  C   UNL     1       1.563  -3.473   1.418  0.00  0.00    +0.007 A 
ATOM     13  C   UNL     1       2.184  -4.167   0.396  0.00  0.00    +0.046 A 
ATOM     14  C   UNL     1       3.557  -4.342   0.413  0.00  0.00    +0.124 A 
ATOM     15  C   UNL     1       4.307  -3.822   1.455  0.00  0.00    +0.040 A 
ATOM     16  C   UNL     1       3.684  -3.129   2.475  0.00  0.00    +0.036 A 
ATOM     17  C   UNL     1       2.314  -2.950   2.454  0.00  0.00    +0.131 A 
ATOM     18  F   UNL     1       4.164  -5.020  -0.585  0.00  0.00    -0.205 F 
BRANCH  17  19
ATOM     19  N   UNL     1       1.649  -2.201   3.544  0.00  0.00    +0.057 N 
ATOM     20  O   UNL     1       2.287  -1.838   4.505  0.00  0.00    -0.126 OA
ATOM     21  O   UNL     1       0.467  -1.954   3.474  0.00  0.00    -0.126 OA
ENDBRANCH  17  19
ENDBRANCH   1  12
TORSDOF 4
