REMARK  Name = ZINC67551317
REMARK  8 active torsions:
REMARK  status: ('A' for Active; 'I' for Inactive)
REMARK    1  A    between atoms: C_1  and  C_2
REMARK    2  A    between atoms: C_2  and  C_4
REMARK    3  A    between atoms: C_2  and  N_11
REMARK    4  A    between atoms: C_8  and  O_10
REMARK    5  A    between atoms: N_11  and  C_12
REMARK    6  A    between atoms: N_15  and  C_16
REMARK    7  A    between atoms: C_21  and  S_22
REMARK    8  A    between atoms: S_22  and  C_23
REMARK                            x       y       z     vdW  Elec       q    Type
REMARK                         _______ _______ _______ _____ _____    ______ ____
ROOT
ATOM      1  N   UNL     1       0.724  -0.571   1.362  0.00  0.00    -0.282 N 
ATOM      2  C   UNL     1       2.067  -0.120   1.732  0.00  0.00    +0.134 C 
ATOM      3  C   UNL     1       0.057  -1.429   2.159  0.00  0.00    +0.307 C 
ATOM      4  O   UNL     1      -1.058  -1.804   1.851  0.00  0.00    -0.252 OA
ATOM      5  N   UNL     1       0.626  -1.872   3.297  0.00  0.00    -0.268 N 
ATOM      6  H   UNL     1       1.540  -1.625   3.511  0.00  0.00    +0.156 HD
ENDROOT
BRANCH   5   7
ATOM      7  C   UNL     1      -0.102  -2.691   4.174  0.00  0.00    +0.052 A 
ATOM      8  C   UNL     1      -1.013  -3.608   3.672  0.00  0.00    +0.073 A 
ATOM      9  C   UNL     1      -1.733  -4.419   4.537  0.00  0.00    +0.164 A 
ATOM     10  C   UNL     1      -1.540  -4.315   5.909  0.00  0.00    +0.163 A 
ATOM     11  C   UNL     1      -0.631  -3.397   6.414  0.00  0.00    +0.066 A 
ATOM     12  C   UNL     1       0.093  -2.588   5.550  0.00  0.00    +0.033 A 
ATOM     13  O   UNL     1      -2.233  -5.109   6.772  0.00  0.00    -0.485 OA
ATOM     14  C   UNL     1      -3.403  -5.754   6.256  0.00  0.00    +0.270 C 
ATOM     15  C   UNL     1      -3.053  -6.366   4.893  0.00  0.00    +0.270 C 
ATOM     16  O   UNL     1      -2.626  -5.311   4.024  0.00  0.00    -0.485 OA
BRANCH  12  17
ATOM     17  S   UNL     1       1.253  -1.428   6.193  0.00  0.00    -0.127 S 
ATOM     18  C   UNL     1       1.156  -1.659   7.989  0.00  0.00    +0.090 C 
ENDBRANCH  12  17
ENDBRANCH   5   7
BRANCH   1  20
ATOM     19  C   UNL     1       0.096   1.440   0.120  0.00  0.00    +0.033 C 
ATOM     20  C   UNL     1       0.104  -0.090   0.124  0.00  0.00    +0.104 C 
BRANCH  20  21
ATOM     21  C   UNL     1       0.891  -0.591  -1.059  0.00  0.00    -0.024 A 
ATOM     22  C   UNL     1       1.559  -1.799  -0.983  0.00  0.00    +0.006 A 
ATOM     23  C   UNL     1       2.282  -2.262  -2.067  0.00  0.00    +0.004 A 
ATOM     24  C   UNL     1       2.339  -1.517  -3.229  0.00  0.00    +0.045 A 
ATOM     25  C   UNL     1       1.670  -0.305  -3.308  0.00  0.00    +0.117 A 
ATOM     26  C   UNL     1       0.941   0.154  -2.221  0.00  0.00    +0.050 A 
BRANCH  25  27
ATOM     27  O   UNL     1       1.725   0.429  -4.450  0.00  0.00    -0.507 OA
ATOM     28  H   UNL     1       1.022   0.226  -5.083  0.00  0.00    +0.292 HD
ENDBRANCH  25  27
ENDBRANCH  20  21
ENDBRANCH   1  20
TORSDOF 5
