REMARK  Name = ZINC22527671
REMARK  4 active torsions:
REMARK  status: ('A' for Active; 'I' for Inactive)
REMARK    1  A    between atoms: C_9  and  C_18
REMARK    2  A    between atoms: C_18  and  N_19
REMARK    3  A    between atoms: C_20  and  C_22
REMARK    4  A    between atoms: C_22  and  C_23
REMARK                            x       y       z     vdW  Elec       q    Type
REMARK                         _______ _______ _______ _____ _____    ______ ____
ROOT
ATOM      1  C   UNL     1      -1.290   1.681   0.017  0.00  0.00    +0.108 C 
ENDROOT
BRANCH   1  10
ATOM      2  C   UNL     1      -6.696  -1.625  -0.421  0.00  0.00    +0.000 A 
ATOM      3  C   UNL     1      -6.739  -0.892   0.751  0.00  0.00    +0.000 A 
ATOM      4  C   UNL     1      -5.810   0.114   0.986  0.00  0.00    +0.004 A 
ATOM      5  C   UNL     1      -4.857   0.364   0.040  0.00  0.00    -0.036 A 
ATOM      6  C   UNL     1      -4.813  -0.376  -1.140  0.00  0.00    -0.036 A 
ATOM      7  C   UNL     1      -5.723  -1.366  -1.378  0.00  0.00    +0.004 A 
ATOM      8  C   UNL     1      -3.693   0.020  -2.089  0.00  0.00    +0.050 C 
ATOM      9  C   UNL     1      -2.390  -0.141  -1.274  0.00  0.00    +0.018 C 
ATOM     10  C   UNL     1      -2.439   0.671   0.017  0.00  0.00    +0.019 C 
ATOM     11  C   UNL     1      -3.777   1.429   0.155  0.00  0.00    +0.054 C 
ATOM     12  C   UNL     1      -3.903   2.258  -1.113  0.00  0.00    -0.036 A 
ATOM     13  C   UNL     1      -3.858   1.518  -2.293  0.00  0.00    -0.036 A 
ATOM     14  C   UNL     1      -3.957   2.133  -3.508  0.00  0.00    +0.004 A 
ATOM     15  C   UNL     1      -4.106   3.514  -3.549  0.00  0.00    +0.000 A 
ATOM     16  C   UNL     1      -4.151   4.248  -2.378  0.00  0.00    +0.000 A 
ATOM     17  C   UNL     1      -4.048   3.616  -1.146  0.00  0.00    +0.004 A 
ENDBRANCH   1  10
BRANCH   1  18
ATOM     18  N   UNL     1      -0.011   0.966   0.007  0.00  0.00    -0.315 N 
ATOM     19  C   UNL     1       1.147   1.655   0.000  0.00  0.00    +0.215 C 
ATOM     20  O   UNL     1       1.130   2.868   0.007  0.00  0.00    -0.276 OA
ATOM     21  H   UNL     1       0.004  -0.134   0.006  0.00  0.00    +0.149 HD
BRANCH  19  22
ATOM     22  C   UNL     1       2.462   0.920  -0.017  0.00  0.00    +0.119 C 
BRANCH  22  23
ATOM     23  C   UNL     1       3.611   1.930  -0.022  0.00  0.00    +0.146 C 
ATOM     24  C   UNL     1       4.925   1.201  -0.137  0.00  0.00    +0.231 C 
ATOM     25  O   UNL     1       5.446   1.118  -1.229  0.00  0.00    -0.274 OA
ATOM     26  N   UNL     1       5.542   0.645   0.901  0.00  0.00    -0.284 N 
ATOM     27  C   UNL     1       5.164   0.735   2.237  0.00  0.00    +0.047 A 
ATOM     28  C   UNL     1       5.685  -0.175   3.153  0.00  0.00    +0.024 A 
ATOM     29  C   UNL     1       5.310  -0.120   4.480  0.00  0.00    +0.002 A 
ATOM     30  C   UNL     1       4.413   0.839   4.916  0.00  0.00    +0.001 A 
ATOM     31  C   UNL     1       3.890   1.752   4.019  0.00  0.00    +0.016 A 
ATOM     32  C   UNL     1       4.265   1.702   2.686  0.00  0.00    +0.030 A 
ATOM     33  S   UNL     1       3.607   2.869   1.536  0.00  0.00    -0.110 S 
ATOM     34  H   UNL     1       6.448   0.042   0.744  0.00  0.00    +0.155 HD
ENDBRANCH  22  23
ENDBRANCH  19  22
ENDBRANCH   1  18
TORSDOF 4
