REMARK  Name = ZINC39533023
REMARK  9 active torsions:
REMARK  status: ('A' for Active; 'I' for Inactive)
REMARK    1  A    between atoms: C_1  and  C_2
REMARK    2  A    between atoms: C_2  and  C_3
REMARK    3  A    between atoms: C_3  and  C_4
REMARK    4  A    between atoms: C_7  and  C_10
REMARK    5  A    between atoms: C_10  and  C_12
REMARK    6  A    between atoms: C_10  and  N_21
REMARK    7  A    between atoms: C_12  and  N_13
REMARK    8  A    between atoms: N_13  and  C_14
REMARK    9  A    between atoms: C_14  and  C_15
REMARK                            x       y       z     vdW  Elec       q    Type
REMARK                         _______ _______ _______ _____ _____    ______ ____
ROOT
ATOM      1  C   UNL     1       0.771  -6.311  -1.269  0.00  0.00    +0.070 C 
ENDROOT
BRANCH   1   2
ATOM      2  N   UNL     1       0.200  -6.655  -2.578  0.00  0.00    -0.294 NA
ATOM      3  C   UNL     1      -0.134  -8.085  -2.648  0.00  0.00    +0.100 C 
ATOM      4  C   UNL     1      -0.797  -8.386  -3.994  0.00  0.00    +0.097 C 
ATOM      5  N   UNL     1       0.116  -8.008  -5.082  0.00  0.00    -0.302 NA
ATOM      6  C   UNL     1       0.449  -6.578  -5.012  0.00  0.00    +0.136 C 
ATOM      7  C   UNL     1       1.112  -6.277  -3.666  0.00  0.00    +0.115 C 
ATOM      8 BR   UNL     1       1.687  -6.122  -6.471  0.00  0.00    -0.070 Br
ATOM      9  H   UNL     1       0.950  -8.575  -5.068  0.00  0.00    +0.123 HD
ENDBRANCH   1   2
BRANCH   1  13
ATOM     10  C   UNL     1       1.404  -2.091  -1.059  0.00  0.00    -0.047 A 
ATOM     11  C   UNL     1       2.340  -2.958  -0.526  0.00  0.00    +0.004 A 
ATOM     12  C   UNL     1       2.135  -4.324  -0.594  0.00  0.00    +0.005 A 
ATOM     13  C   UNL     1       0.994  -4.822  -1.194  0.00  0.00    -0.032 A 
ATOM     14  C   UNL     1       0.058  -3.955  -1.726  0.00  0.00    +0.005 A 
ATOM     15  C   UNL     1       0.261  -2.590  -1.655  0.00  0.00    +0.004 A 
BRANCH  10  16
ATOM     16  C   UNL     1       1.628  -0.603  -0.985  0.00  0.00    +0.035 C 
BRANCH  16  18
ATOM     17  C   UNL     1       1.251   1.451   0.387  0.00  0.00    +0.004 C 
ATOM     18  C   UNL     1       1.024  -0.060   0.312  0.00  0.00    +0.001 C 
ENDBRANCH  16  18
ENDBRANCH  10  16
ENDBRANCH   1  13
BRANCH   1  19
ATOM     19  C   UNL     1      -0.196  -6.738  -0.163  0.00  0.00    -0.058 C 
BRANCH  19  20
ATOM     20  N   UNL     1       0.405  -6.458   1.148  0.00  0.00    +0.383 N 
ATOM     21  H   UNL     1       1.311  -6.899   1.203  0.00  0.00    -0.085 HD
ATOM     22  H   UNL     1       0.508  -5.462   1.265  0.00  0.00    -0.085 HD
BRANCH  20  23
ATOM     23  C   UNL     1      -0.463  -6.989   2.208  0.00  0.00    -0.047 C 
BRANCH  23  24
ATOM     24  C   UNL     1       0.154  -6.702   3.553  0.00  0.00    -0.064 A 
ATOM     25  C   UNL     1       1.024  -7.612   4.122  0.00  0.00    +0.002 A 
ATOM     26  C   UNL     1       1.590  -7.349   5.355  0.00  0.00    +0.000 A 
ATOM     27  C   UNL     1       1.286  -6.176   6.019  0.00  0.00    +0.000 A 
ATOM     28  C   UNL     1       0.416  -5.265   5.450  0.00  0.00    +0.000 A 
ATOM     29  C   UNL     1      -0.147  -5.526   4.214  0.00  0.00    +0.002 A 
ENDBRANCH  23  24
ENDBRANCH  20  23
ENDBRANCH  19  20
ENDBRANCH   1  19
TORSDOF 8
