REMARK  Name = ZINC39388467
REMARK  6 active torsions:
REMARK  status: ('A' for Active; 'I' for Inactive)
REMARK    1  A    between atoms: C_4  and  N_7
REMARK    2  A    between atoms: C_9  and  C_12
REMARK    3  A    between atoms: C_21  and  C_23
REMARK    4  A    between atoms: N_25  and  C_26
REMARK    5  A    between atoms: C_26  and  C_27
REMARK    6  A    between atoms: C_27  and  C_28
REMARK                            x       y       z     vdW  Elec       q    Type
REMARK                         _______ _______ _______ _____ _____    ______ ____
ROOT
ATOM      1  C   UNL     1       6.033  -3.503  -0.078  0.00  0.00    +0.245 C 
ATOM      2  O   UNL     1       7.241  -3.505  -0.232  0.00  0.00    -0.270 OA
ATOM      3  N   UNL     1       5.364  -4.669   0.016  0.00  0.00    -0.298 N 
ATOM      4  C   UNL     1       3.896  -4.684   0.022  0.00  0.00    +0.108 C 
ATOM      5  C   UNL     1       3.413  -5.384   1.298  0.00  0.00    +0.026 C 
ATOM      6  C   UNL     1       4.127  -6.734   1.421  0.00  0.00    -0.015 C 
ATOM      7  C   UNL     1       5.657  -6.664   1.393  0.00  0.00    +0.026 C 
ATOM      8  C   UNL     1       6.095  -5.939   0.109  0.00  0.00    +0.108 C 
ATOM      9  C   UNL     1       3.460  -7.950   0.777  0.00  0.00    +0.021 C 
ATOM     10  C   UNL     1       3.480  -7.803   2.300  0.00  0.00    +0.082 C 
ENDROOT
BRANCH   1  13
ATOM     11  N   UNL     1       3.639  -0.642   0.139  0.00  0.00    -0.249 N 
ATOM     12  C   UNL     1       3.831  -2.100   0.070  0.00  0.00    +0.169 C 
ATOM     13  C   UNL     1       5.332  -2.277   0.002  0.00  0.00    +0.048 C 
ATOM     14  C   UNL     1       5.874  -1.045   0.031  0.00  0.00    +0.098 C 
ATOM     15  N   UNL     1       4.921  -0.079   0.104  0.00  0.00    -0.270 N 
ATOM     16  H   UNL     1       5.104   0.873   0.131  0.00  0.00    +0.169 HD
BRANCH  11  20
ATOM     17  C   UNL     1       0.016   1.397   0.371  0.00  0.00    +0.000 A 
ATOM     18  C   UNL     1       1.205   2.103   0.346  0.00  0.00    +0.002 A 
ATOM     19  C   UNL     1       2.408   1.430   0.270  0.00  0.00    +0.025 A 
ATOM     20  C   UNL     1       2.424   0.042   0.217  0.00  0.00    +0.048 A 
ATOM     21  C   UNL     1       1.228  -0.664   0.243  0.00  0.00    +0.025 A 
ATOM     22  C   UNL     1       0.028   0.015   0.320  0.00  0.00    +0.002 A 
ENDBRANCH  11  20
ENDBRANCH   1  13
BRANCH  10  23
ATOM     23  C   UNL     1       2.183  -7.451   2.982  0.00  0.00    +0.217 C 
ATOM     24  O   UNL     1       1.126  -7.753   2.468  0.00  0.00    -0.275 OA
ATOM     25  N   UNL     1       2.196  -6.802   4.163  0.00  0.00    -0.315 N 
ATOM     26  H   UNL     1       3.041  -6.561   4.574  0.00  0.00    +0.149 HD
BRANCH  25  27
ATOM     27  C   UNL     1       0.935  -6.460   4.826  0.00  0.00    +0.109 C 
BRANCH  27  28
ATOM     28  C   UNL     1       1.230  -5.733   6.139  0.00  0.00    +0.056 C 
BRANCH  28  29
ATOM     29  C   UNL     1      -0.067  -5.381   6.821  0.00  0.00    -0.021 A 
ATOM     30  C   UNL     1      -0.851  -6.249   7.704  0.00  0.00    +0.003 A 
ATOM     31  C   UNL     1      -0.692  -7.555   8.171  0.00  0.00    +0.010 A 
ATOM     32  C   UNL     1      -1.628  -8.094   9.008  0.00  0.00    +0.001 A 
ATOM     33  C   UNL     1      -2.736  -7.354   9.398  0.00  0.00    +0.002 A 
ATOM     34  C   UNL     1      -2.911  -6.063   8.949  0.00  0.00    +0.026 A 
ATOM     35  C   UNL     1      -1.971  -5.494   8.096  0.00  0.00    +0.047 A 
ATOM     36  N   UNL     1      -1.863  -4.262   7.490  0.00  0.00    -0.360 N 
ATOM     37  C   UNL     1      -0.720  -4.212   6.740  0.00  0.00    +0.087 A 
ATOM     38  H   UNL     1      -2.501  -3.537   7.585  0.00  0.00    +0.165 HD
ENDBRANCH  28  29
ENDBRANCH  27  28
ENDBRANCH  25  27
ENDBRANCH  10  23
TORSDOF 6
