REMARK  Name = ZINC20606501
REMARK  12 active torsions:
REMARK  status: ('A' for Active; 'I' for Inactive)
REMARK    1  A    between atoms: C_1  and  C_2
REMARK    2  A    between atoms: C_2  and  N_3
REMARK    3  A    between atoms: C_5  and  N_17
REMARK    4  A    between atoms: C_6  and  C_8
REMARK    5  A    between atoms: N_10  and  C_11
REMARK    6  A    between atoms: C_18  and  C_20
REMARK    7  A    between atoms: C_22  and  C_31
REMARK    8  A    between atoms: C_26  and  C_30
REMARK    9  A    between atoms: N_28  and  C_29
REMARK   10  A    between atoms: C_32  and  C_38
REMARK   11  A    between atoms: N_34  and  C_37
REMARK   12  A    between atoms: C_35  and  C_36
REMARK                            x       y       z     vdW  Elec       q    Type
REMARK                         _______ _______ _______ _____ _____    ______ ____
ROOT
ATOM      1  N   UNL     1      -4.135  -1.012  -1.661  0.00  0.00    -0.278 N 
ATOM      2  C   UNL     1      -4.287  -1.214  -2.985  0.00  0.00    +0.249 C 
ATOM      3  O   UNL     1      -3.764  -0.457  -3.779  0.00  0.00    -0.270 OA
ATOM      4  H   UNL     1      -4.609  -1.697  -0.942  0.00  0.00    +0.155 HD
ENDROOT
BRANCH   2   5
ATOM      5  C   UNL     1      -5.092  -2.355  -3.471  0.00  0.00    +0.051 A 
ATOM      6  C   UNL     1      -6.384  -2.571  -3.006  0.00  0.00    +0.042 A 
ATOM      7  C   UNL     1      -7.112  -3.662  -3.491  0.00  0.00    +0.078 A 
ATOM      8  N   UNL     1      -6.597  -4.492  -4.382  0.00  0.00    -0.227 NA
ATOM      9  C   UNL     1      -5.372  -4.335  -4.860  0.00  0.00    +0.160 A 
ATOM     10  C   UNL     1      -4.572  -3.258  -4.428  0.00  0.00    +0.054 A 
ATOM     11  C   UNL     1      -3.337  -3.361  -5.102  0.00  0.00    +0.070 A 
ATOM     12  N   UNL     1      -3.376  -4.401  -5.885  0.00  0.00    -0.174 NA
ATOM     13  N   UNL     1      -4.619  -5.035  -5.767  0.00  0.00    -0.249 N 
ATOM     14  C   UNL     1      -5.041  -6.238  -6.488  0.00  0.00    +0.174 C 
ATOM     15  C   UNL     1      -2.170  -2.420  -4.947  0.00  0.00    +0.068 C 
BRANCH   7  16
ATOM     16  C   UNL     1      -8.490  -3.892  -2.995  0.00  0.00    +0.044 A 
ATOM     17  C   UNL     1      -8.888  -3.971  -1.645  0.00  0.00    +0.069 A 
ATOM     18  N   UNL     1     -10.177  -4.182  -1.614  0.00  0.00    -0.176 NA
ATOM     19  N   UNL     1     -10.650  -4.245  -2.930  0.00  0.00    -0.271 N 
ATOM     20  C   UNL     1      -9.607  -4.060  -3.763  0.00  0.00    +0.045 A 
ATOM     21  C   UNL     1      -9.662  -4.045  -5.269  0.00  0.00    +0.066 C 
ATOM     22  C   UNL     1     -12.040  -4.468  -3.333  0.00  0.00    +0.172 C 
ATOM     23  C   UNL     1      -7.984  -3.837  -0.447  0.00  0.00    +0.068 C 
ENDBRANCH   7  16
ENDBRANCH   2   5
BRANCH   1  26
ATOM     24  N   UNL     1      -2.120   1.858  -1.088  0.00  0.00    -0.269 N 
ATOM     25  C   UNL     1      -2.731   1.006  -1.950  0.00  0.00    +0.132 A 
ATOM     26  C   UNL     1      -3.372   0.070  -1.200  0.00  0.00    +0.084 A 
ATOM     27  C   UNL     1      -3.111   0.426   0.149  0.00  0.00    +0.168 A 
ATOM     28  N   UNL     1      -2.355   1.506   0.125  0.00  0.00    -0.165 NA
BRANCH  27  29
ATOM     29  C   UNL     1      -3.595  -0.279   1.351  0.00  0.00    +0.266 C 
ATOM     30  O   UNL     1      -4.289  -1.271   1.236  0.00  0.00    -0.268 OA
ATOM     31  N   UNL     1      -3.267   0.175   2.577  0.00  0.00    -0.307 N 
ATOM     32  H   UNL     1      -2.638   1.072   2.681  0.00  0.00    +0.149 HD
BRANCH  31  33
ATOM     33  C   UNL     1      -3.747  -0.526   3.771  0.00  0.00    +0.073 C 
ATOM     34  C   UNL     1      -5.151  -0.029   4.123  0.00  0.00    +0.022 C 
ATOM     35  C   UNL     1      -5.652  -0.761   5.370  0.00  0.00    +0.002 C 
ATOM     36  C   UNL     1      -4.705  -0.485   6.539  0.00  0.00    +0.000 C 
ATOM     37  C   UNL     1      -3.301  -0.981   6.186  0.00  0.00    +0.002 C 
ATOM     38  C   UNL     1      -2.800  -0.249   4.940  0.00  0.00    +0.022 C 
ENDBRANCH  31  33
ENDBRANCH  27  29
BRANCH  24  40
ATOM     39  C   UNL     1      -1.867   4.275  -0.815  0.00  0.00    +0.029 C 
ATOM     40  C   UNL     1      -1.313   3.015  -1.483  0.00  0.00    +0.140 C 
ENDBRANCH  24  40
ENDBRANCH   1  26
TORSDOF 6
