REMARK  Name = ZINC32090608
REMARK  6 active torsions:
REMARK  status: ('A' for Active; 'I' for Inactive)
REMARK    1  A    between atoms: C_3  and  S_8
REMARK    2  A    between atoms: S_8  and  N_11
REMARK    3  A    between atoms: C_17  and  C_19
REMARK    4  A    between atoms: C_19  and  C_20
REMARK    5  A    between atoms: C_20  and  C_21
REMARK    6  A    between atoms: C_27  and  C_30
REMARK                            x       y       z     vdW  Elec       q    Type
REMARK                         _______ _______ _______ _____ _____    ______ ____
ROOT
ATOM      1  N   UNL     1       1.304   1.635   4.687  0.00  0.00    -0.174 NA
ATOM      2  C   UNL     1       0.097   2.463   4.553  0.00  0.00    +0.128 C 
ATOM      3  C   UNL     1      -0.919   1.713   3.683  0.00  0.00    +0.125 C 
ATOM      4  N   UNL     1      -0.242   1.246   2.466  0.00  0.00    -0.299 N 
ATOM      5  C   UNL     1       0.961   0.412   2.600  0.00  0.00    +0.125 C 
ATOM      6  C   UNL     1       1.981   1.168   3.469  0.00  0.00    +0.128 C 
ATOM      7  C   UNL     1      -0.718   1.572   1.248  0.00  0.00    +0.216 C 
ATOM      8  O   UNL     1      -1.714   2.256   1.150  0.00  0.00    -0.276 OA
ENDROOT
BRANCH   1   9
ATOM      9  S   UNL     1       1.888   1.233   6.183  0.00  0.00    +0.061 S 
ATOM     10  O   UNL     1       3.271   0.951   6.017  0.00  0.00    -0.153 OA
ATOM     11  O   UNL     1       1.417   2.226   7.083  0.00  0.00    -0.153 OA
BRANCH   9  14
ATOM     12  C   UNL     1       1.107  -2.674   6.696  0.00  0.00    +0.040 A 
ATOM     13  C   UNL     1       1.709  -1.487   6.326  0.00  0.00    +0.031 A 
ATOM     14  C   UNL     1       1.119  -0.280   6.655  0.00  0.00    +0.106 A 
ATOM     15  C   UNL     1      -0.071  -0.260   7.357  0.00  0.00    +0.031 A 
ATOM     16  C   UNL     1      -0.678  -1.447   7.723  0.00  0.00    +0.040 A 
ATOM     17  C   UNL     1      -0.088  -2.655   7.395  0.00  0.00    +0.124 A 
ATOM     18  F   UNL     1      -0.678  -3.816   7.757  0.00  0.00    -0.205 F 
ENDBRANCH   9  14
ENDBRANCH   1   9
BRANCH   7  19
ATOM     19  C   UNL     1      -0.013   1.086   0.008  0.00  0.00    +0.105 C 
BRANCH  19  20
ATOM     20  C   UNL     1      -0.753   1.593  -1.232  0.00  0.00    +0.105 C 
BRANCH  20  21
ATOM     21  C   UNL     1      -0.047   1.107  -2.471  0.00  0.00    +0.216 C 
ATOM     22  O   UNL     1       0.949   0.422  -2.373  0.00  0.00    -0.276 OA
ATOM     23  N   UNL     1      -0.524   1.433  -3.689  0.00  0.00    -0.301 N 
ATOM     24  C   UNL     1      -1.730   2.261  -3.824  0.00  0.00    +0.108 C 
ATOM     25  C   UNL     1      -2.731   1.531  -4.726  0.00  0.00    +0.020 C 
ATOM     26  C   UNL     1      -2.055   1.183  -6.054  0.00  0.00    +0.018 C 
ATOM     27  C   UNL     1      -0.869   0.252  -5.797  0.00  0.00    +0.119 C 
ATOM     28  C   UNL     1       0.156   0.971  -4.907  0.00  0.00    +0.122 C 
BRANCH  27  29
ATOM     29  C   UNL     1      -0.224  -0.116  -7.108  0.00  0.00    +0.361 C 
ATOM     30  O   UNL     1      -0.668   0.322  -8.143  0.00  0.00    -0.246 OA
ATOM     31  O   UNL     1       0.843  -0.930  -7.126  0.00  0.00    -0.246 OA
ENDBRANCH  27  29
ENDBRANCH  20  21
ENDBRANCH  19  20
ENDBRANCH   7  19
TORSDOF 6
