REMARK  Name = ZINC12462719
REMARK  6 active torsions:
REMARK  status: ('A' for Active; 'I' for Inactive)
REMARK    1  A    between atoms: C_1  and  C_2
REMARK    2  A    between atoms: C_6  and  N_8
REMARK    3  A    between atoms: C_14  and  C_15
REMARK    4  A    between atoms: C_18  and  N_21
REMARK    5  A    between atoms: N_21  and  C_22
REMARK    6  A    between atoms: N_21  and  C_23
REMARK                            x       y       z     vdW  Elec       q    Type
REMARK                         _______ _______ _______ _____ _____    ______ ____
ROOT
ATOM      1  N   UNL     1      -0.044  -2.709   2.421  0.00  0.00    -0.226 NA
ATOM      2  C   UNL     1      -0.853  -3.729   2.598  0.00  0.00    +0.166 C 
ATOM      3  N   UNL     1      -1.958  -4.086   1.857  0.00  0.00    -0.260 N 
ATOM      4  C   UNL     1      -2.668  -5.154   2.177  0.00  0.00    +0.256 C 
ATOM      5  O   UNL     1      -3.647  -5.484   1.532  0.00  0.00    -0.269 OA
ATOM      6  C   UNL     1      -2.220  -5.929   3.349  0.00  0.00    +0.078 C 
ATOM      7  C   UNL     1      -2.753  -7.053   3.894  0.00  0.00    +0.028 C 
ATOM      8  S   UNL     1      -0.783  -4.996   3.855  0.00  0.00    -0.049 S 
ATOM      9  H   UNL     1      -2.217  -3.548   1.092  0.00  0.00    +0.157 HD
ENDROOT
BRANCH   1  15
ATOM     10  C   UNL     1      -0.309   1.903   0.799  0.00  0.00    +0.044 C 
ATOM     11  C   UNL     1      -0.398   0.417   0.565  0.00  0.00    -0.048 A 
ATOM     12  C   UNL     1      -0.700  -0.067  -0.696  0.00  0.00    +0.003 A 
ATOM     13  C   UNL     1      -0.783  -1.430  -0.920  0.00  0.00    +0.002 A 
ATOM     14  C   UNL     1      -0.565  -2.316   0.115  0.00  0.00    +0.028 A 
ATOM     15  C   UNL     1      -0.261  -1.835   1.390  0.00  0.00    +0.067 A 
ATOM     16  C   UNL     1      -0.173  -0.458   1.607  0.00  0.00    +0.031 A 
ENDBRANCH   1  15
BRANCH   7  17
ATOM     17  C   UNL     1      -3.842  -7.757   3.206  0.00  0.00    -0.024 A 
ATOM     18  C   UNL     1      -3.818  -7.897   1.812  0.00  0.00    +0.010 A 
ATOM     19  C   UNL     1      -4.837  -8.556   1.173  0.00  0.00    +0.023 A 
ATOM     20  C   UNL     1      -5.895  -9.084   1.908  0.00  0.00    +0.029 A 
ATOM     21  C   UNL     1      -5.924  -8.946   3.293  0.00  0.00    +0.023 A 
ATOM     22  C   UNL     1      -4.906  -8.295   3.941  0.00  0.00    +0.010 A 
BRANCH  20  23
ATOM     23  N   UNL     1      -6.928  -9.752   1.255  0.00  0.00    -0.336 N 
ATOM     24  C   UNL     1      -6.900  -9.898  -0.202  0.00  0.00    +0.129 C 
ATOM     25  C   UNL     1      -8.043 -10.308   2.026  0.00  0.00    +0.129 C 
ENDBRANCH  20  23
ENDBRANCH   7  17
TORSDOF 3
