REMARK  Name = ZINC03572751
REMARK  6 active torsions:
REMARK  status: ('A' for Active; 'I' for Inactive)
REMARK    1  A    between atoms: C_1  and  C_2
REMARK    2  A    between atoms: C_5  and  C_30
REMARK    3  A    between atoms: C_6  and  N_8
REMARK    4  A    between atoms: C_17  and  S_18
REMARK    5  A    between atoms: S_18  and  C_19
REMARK    6  A    between atoms: C_19  and  C_20
REMARK                            x       y       z     vdW  Elec       q    Type
REMARK                         _______ _______ _______ _____ _____    ______ ____
ROOT
ATOM      1  N   UNL     1       4.379   1.813  -0.030  0.00  0.00    -0.255 N 
ATOM      2  C   UNL     1       3.696   0.645  -0.030  0.00  0.00    +0.268 A 
ATOM      3  O   UNL     1       4.261  -0.435  -0.041  0.00  0.00    -0.267 OA
ATOM      4  C   UNL     1       2.267   0.755  -0.015  0.00  0.00    +0.076 A 
ATOM      5  C   UNL     1       1.312  -0.341  -0.012  0.00  0.00    -0.023 A 
ATOM      6  C   UNL     1       0.002  -0.004   0.002  0.00  0.00    -0.004 A 
ATOM      7  S   UNL     1      -0.022   1.771   0.012  0.00  0.00    -0.073 S 
ATOM      8  C   UNL     1       1.719   2.058  -0.003  0.00  0.00    +0.117 A 
ATOM      9  N   UNL     1       2.446   3.168  -0.004  0.00  0.00    -0.215 NA
ATOM     10  C   UNL     1       3.765   3.031  -0.018  0.00  0.00    +0.178 A 
ATOM     11  C   UNL     1      -1.173  -0.932   0.007  0.00  0.00    +0.043 C 
ATOM     12  C   UNL     1      -0.687  -2.336  -0.379  0.00  0.00    +0.005 C 
ATOM     13  C   UNL     1       0.560  -2.666   0.446  0.00  0.00    +0.005 C 
ATOM     14  C   UNL     1       1.735  -1.808  -0.023  0.00  0.00    +0.037 C 
ENDROOT
BRANCH   1  20
ATOM     15  C   UNL     1       8.585   1.696  -2.577  0.00  0.00    +0.044 C 
ATOM     16  C   UNL     1       7.843   1.712  -1.265  0.00  0.00    -0.048 A 
ATOM     17  C   UNL     1       8.545   1.685  -0.074  0.00  0.00    +0.004 A 
ATOM     18  C   UNL     1       7.867   1.701   1.131  0.00  0.00    +0.005 A 
ATOM     19  C   UNL     1       6.487   1.747   1.149  0.00  0.00    -0.026 A 
ATOM     20  C   UNL     1       5.779   1.770  -0.045  0.00  0.00    +0.055 A 
ATOM     21  C   UNL     1       6.462   1.755  -1.254  0.00  0.00    +0.030 A 
ATOM     22  C   UNL     1       5.750   1.769   2.463  0.00  0.00    +0.046 C 
ENDBRANCH   1  20
BRANCH  10  23
ATOM     23  S   UNL     1       4.766   4.482  -0.019  0.00  0.00    -0.078 S 
BRANCH  23  24
ATOM     24  C   UNL     1       3.477   5.753  -0.000  0.00  0.00    +0.173 C 
BRANCH  24  25
ATOM     25  C   UNL     1       4.117   7.117   0.001  0.00  0.00    +0.231 C 
ATOM     26  O   UNL     1       5.325   7.220  -0.009  0.00  0.00    -0.274 OA
ATOM     27  N   UNL     1       3.346   8.223   0.015  0.00  0.00    -0.240 N 
ATOM     28  C   UNL     1       3.918   9.443   0.016  0.00  0.00    +0.303 C 
ATOM     29  O   UNL     1       5.129   9.546   0.005  0.00  0.00    -0.253 OA
ATOM     30  N   UNL     1       3.148  10.549   0.029  0.00  0.00    -0.313 N 
ATOM     31  H   UNL     1       2.380   8.140   0.023  0.00  0.00    +0.159 HD
ATOM     32  H   UNL     1       2.181  10.466   0.038  0.00  0.00    +0.146 HD
ATOM     33  H   UNL     1       3.560  11.427   0.030  0.00  0.00    +0.146 HD
ENDBRANCH  24  25
ENDBRANCH  23  24
ENDBRANCH  10  23
TORSDOF 4
