REMARK  Name = ZINC08972425
REMARK  6 active torsions:
REMARK  status: ('A' for Active; 'I' for Inactive)
REMARK    1  A    between atoms: C_1  and  O_2
REMARK    2  A    between atoms: O_2  and  C_3
REMARK    3  A    between atoms: C_8  and  C_9
REMARK    4  A    between atoms: C_12  and  C_23
REMARK    5  A    between atoms: C_18  and  N_22
REMARK    6  A    between atoms: C_19  and  C_20
REMARK                            x       y       z     vdW  Elec       q    Type
REMARK                         _______ _______ _______ _____ _____    ______ ____
ROOT
ATOM      1  C   UNL     1       0.138  -2.844  -0.006  0.00  0.00    +0.105 C 
ATOM      2  C   UNL     1       0.048  -3.799  -1.168  0.00  0.00    +0.054 A 
ATOM      3  C   UNL     1       0.130  -3.535  -2.539  0.00  0.00    +0.100 A 
ATOM      4  N   UNL     1      -0.004  -4.680  -3.181  0.00  0.00    -0.171 NA
ATOM      5  N   UNL     1      -0.174  -5.701  -2.234  0.00  0.00    -0.246 N 
ATOM      6  H   UNL     1      -0.296  -6.644  -2.428  0.00  0.00    +0.192 HD
ATOM      7  C   UNL     1      -0.139  -5.141  -1.007  0.00  0.00    +0.223 A 
ATOM      8  O   UNL     1      -0.256  -5.723   0.213  0.00  0.00    -0.423 OA
ATOM      9  C   UNL     1       0.089  -4.989   1.291  0.00  0.00    +0.200 C 
ATOM     10  C   UNL     1       0.289  -3.652   1.258  0.00  0.00    +0.098 C 
ENDROOT
BRANCH   3  11
ATOM     11  C   UNL     1       0.332  -2.203  -3.161  0.00  0.00    +0.003 A 
ATOM     12  C   UNL     1       1.260  -1.314  -2.622  0.00  0.00    +0.013 A 
ATOM     13  C   UNL     1       1.445  -0.076  -3.203  0.00  0.00    +0.039 A 
ATOM     14  C   UNL     1       0.711   0.283  -4.322  0.00  0.00    +0.123 A 
ATOM     15  C   UNL     1      -0.212  -0.599  -4.861  0.00  0.00    +0.039 A 
ATOM     16  C   UNL     1      -0.400  -1.840  -4.289  0.00  0.00    +0.013 A 
ATOM     17  F   UNL     1       0.895   1.495  -4.888  0.00  0.00    -0.205 F 
ENDBRANCH   3  11
BRANCH   1  23
ATOM     18  C   UNL     1      -1.034  -0.630   0.111  0.00  0.00    +0.124 A 
ATOM     19  C   UNL     1      -2.193   0.131   0.174  0.00  0.00    +0.046 A 
ATOM     20  C   UNL     1      -3.426  -0.491   0.198  0.00  0.00    +0.004 A 
ATOM     21  C   UNL     1      -3.507  -1.871   0.160  0.00  0.00    +0.001 A 
ATOM     22  C   UNL     1      -2.354  -2.631   0.098  0.00  0.00    +0.008 A 
ATOM     23  C   UNL     1      -1.118  -2.014   0.068  0.00  0.00    +0.007 A 
BRANCH  18  25
ATOM     24  C   UNL     1       0.191   1.407   0.135  0.00  0.00    +0.277 C 
ATOM     25  O   UNL     1       0.180  -0.021   0.087  0.00  0.00    -0.495 OA
ENDBRANCH  18  25
ENDBRANCH   1  23
BRANCH   9  26
ATOM     26  N   UNL     1       0.245  -5.637   2.491  0.00  0.00    -0.328 N 
ATOM     27  H   UNL     1       0.108  -6.596   2.546  0.00  0.00    +0.145 HD
ATOM     28  H   UNL     1       0.493  -5.136   3.284  0.00  0.00    +0.145 HD
ENDBRANCH   9  26
BRANCH  10  29
ATOM     29  C   UNL     1       0.658  -2.979   2.467  0.00  0.00    +0.101 C 
ATOM     30  N   UNL     1       0.950  -2.445   3.426  0.00  0.00    -0.191 NA
ENDBRANCH  10  29
TORSDOF 5
