REMARK  Name = ZINC39446606
REMARK  8 active torsions:
REMARK  status: ('A' for Active; 'I' for Inactive)
REMARK    1  A    between atoms: C_1  and  C_2
REMARK    2  A    between atoms: C_2  and  C_3
REMARK    3  A    between atoms: C_2  and  C_4
REMARK    4  A    between atoms: C_4  and  N_5
REMARK    5  A    between atoms: C_13  and  S_14
REMARK    6  A    between atoms: S_14  and  C_15
REMARK    7  A    between atoms: C_15  and  C_16
REMARK    8  A    between atoms: C_16  and  C_18
REMARK                            x       y       z     vdW  Elec       q    Type
REMARK                         _______ _______ _______ _____ _____    ______ ____
ROOT
ATOM      1  C   UNL     1      -1.246  -4.092   3.458  0.00  0.00    +0.157 C 
ENDROOT
BRANCH   1   2
ATOM      2  C   UNL     1      -1.191  -3.880   4.949  0.00  0.00    +0.173 C 
ATOM      3  O   UNL     1      -1.190  -2.756   5.402  0.00  0.00    -0.291 OA
BRANCH   2   4
ATOM      4  C   UNL     1      -1.138  -5.038   5.854  0.00  0.00    +0.020 A 
ATOM      5  C   UNL     1      -1.133  -6.394   5.295  0.00  0.00    +0.013 A 
ATOM      6  C   UNL     1      -1.086  -7.492   6.080  0.00  0.00    +0.026 A 
ATOM      7  C   UNL     1      -1.038  -7.368   7.484  0.00  0.00    +0.056 A 
ATOM      8  N   UNL     1      -0.988  -8.226   8.482  0.00  0.00    -0.268 N 
ATOM      9  C   UNL     1      -0.959  -7.524   9.653  0.00  0.00    +0.308 C 
ATOM     10  O   UNL     1      -0.910  -8.017  10.760  0.00  0.00    -0.252 OA
ATOM     11  N   UNL     1      -0.992  -6.168   9.387  0.00  0.00    -0.268 N 
ATOM     12  C   UNL     1      -1.041  -6.003   8.094  0.00  0.00    +0.057 A 
ATOM     13  C   UNL     1      -1.088  -4.835   7.205  0.00  0.00    +0.036 A 
ATOM     14  H   UNL     1      -0.981  -5.460  10.050  0.00  0.00    +0.156 HD
ATOM     15  H   UNL     1      -0.974  -9.192   8.400  0.00  0.00    +0.156 HD
ENDBRANCH   2   4
ENDBRANCH   1   2
BRANCH   1  16
ATOM     16  S   UNL     1      -1.302  -2.484   2.620  0.00  0.00    -0.080 S 
BRANCH  16  25
ATOM     17  N   UNL     1      -1.416  -1.993  -0.116  0.00  0.00    -0.318 N 
ATOM     18  C   UNL     1      -1.446  -2.714  -1.298  0.00  0.00    +0.069 A 
ATOM     19  C   UNL     1      -1.496  -2.362  -2.638  0.00  0.00    +0.028 A 
ATOM     20  C   UNL     1      -1.514  -3.344  -3.607  0.00  0.00    +0.002 A 
ATOM     21  C   UNL     1      -1.483  -4.684  -3.249  0.00  0.00    +0.002 A 
ATOM     22  C   UNL     1      -1.434  -5.052  -1.923  0.00  0.00    +0.030 A 
ATOM     23  C   UNL     1      -1.414  -4.069  -0.930  0.00  0.00    +0.090 A 
ATOM     24  N   UNL     1      -1.367  -4.115   0.427  0.00  0.00    -0.222 NA
ATOM     25  C   UNL     1      -1.363  -2.896   0.908  0.00  0.00    +0.170 A 
BRANCH  17  26
ATOM     26  C   UNL     1      -1.433  -0.534   0.013  0.00  0.00    +0.127 C 
BRANCH  26  28
ATOM     27  C   UNL     1      -0.019   1.526   0.010  0.00  0.00    +0.009 C 
ATOM     28  C   UNL     1       0.002  -0.004   0.002  0.00  0.00    +0.003 C 
ATOM     29  C   UNL     1       0.742  -0.511   1.242  0.00  0.00    +0.009 C 
ENDBRANCH  26  28
ENDBRANCH  17  26
ENDBRANCH  16  25
ENDBRANCH   1  16
TORSDOF 6
