REMARK  Name = ZINC41708929
REMARK  10 active torsions:
REMARK  status: ('A' for Active; 'I' for Inactive)
REMARK    1  A    between atoms: C_1  and  C_2
REMARK    2  A    between atoms: C_7  and  C_8
REMARK    3  A    between atoms: C_8  and  C_9
REMARK    4  A    between atoms: C_9  and  C_11
REMARK    5  A    between atoms: C_9  and  N_12
REMARK    6  A    between atoms: C_13  and  C_15
REMARK    7  A    between atoms: C_15  and  C_25
REMARK    8  A    between atoms: C_16  and  C_17
REMARK    9  A    between atoms: C_20  and  O_24
REMARK   10  A    between atoms: C_21  and  O_23
REMARK                            x       y       z     vdW  Elec       q    Type
REMARK                         _______ _______ _______ _____ _____    ______ ____
ROOT
ATOM      1  N   UNL     1      -2.344   0.751   1.681  0.00  0.00    -0.308 N 
ATOM      2  C   UNL     1      -3.668   0.564   1.516  0.00  0.00    +0.255 C 
ATOM      3  O   UNL     1      -4.263  -0.228   2.223  0.00  0.00    -0.269 OA
ATOM      4  H   UNL     1      -1.869   1.383   1.118  0.00  0.00    +0.149 HD
ENDROOT
BRANCH   1   5
ATOM      5  C   UNL     1      -1.620   0.002   2.711  0.00  0.00    +0.074 C 
ATOM      6  C   UNL     1      -1.661   0.776   4.029  0.00  0.00    +0.028 C 
BRANCH   5   7
ATOM      7  C   UNL     1      -0.166  -0.189   2.276  0.00  0.00    +0.057 C 
BRANCH   7  14
ATOM      8  C   UNL     1      -0.417  -3.060   2.481  0.00  0.00    +0.044 C 
ATOM      9  C   UNL     1      -0.240  -2.413   1.131  0.00  0.00    -0.047 A 
ATOM     10  C   UNL     1      -0.204  -3.193  -0.009  0.00  0.00    +0.003 A 
ATOM     11  C   UNL     1      -0.042  -2.601  -1.247  0.00  0.00    +0.000 A 
ATOM     12  C   UNL     1       0.083  -1.227  -1.345  0.00  0.00    +0.000 A 
ATOM     13  C   UNL     1       0.046  -0.447  -0.205  0.00  0.00    +0.004 A 
ATOM     14  C   UNL     1      -0.120  -1.040   1.033  0.00  0.00    -0.043 A 
ENDBRANCH   7  14
ENDBRANCH   5   7
ENDBRANCH   1   5
BRANCH   2  15
ATOM     15  C   UNL     1      -4.395   1.317   0.482  0.00  0.00    +0.114 C 
ATOM     16  C   UNL     1      -5.749   1.125   0.314  0.00  0.00    +0.032 C 
BRANCH  16  17
ATOM     17  C   UNL     1      -6.444   1.758  -0.809  0.00  0.00    -0.020 A 
ATOM     18  C   UNL     1      -7.789   2.133  -0.682  0.00  0.00    +0.012 A 
ATOM     19  C   UNL     1      -8.439   2.728  -1.739  0.00  0.00    +0.050 A 
ATOM     20  C   UNL     1      -7.767   2.959  -2.932  0.00  0.00    +0.158 A 
ATOM     21  C   UNL     1      -6.428   2.590  -3.067  0.00  0.00    +0.159 A 
ATOM     22  C   UNL     1      -5.765   1.998  -2.012  0.00  0.00    +0.057 A 
BRANCH  21  23
ATOM     23  O   UNL     1      -5.775   2.818  -4.238  0.00  0.00    -0.503 OA
ATOM     24  H   UNL     1      -5.337   3.679  -4.282  0.00  0.00    +0.292 HD
ENDBRANCH  21  23
BRANCH  20  25
ATOM     25  O   UNL     1      -8.414   3.547  -3.971  0.00  0.00    -0.503 OA
ATOM     26  H   UNL     1      -8.353   4.512  -3.978  0.00  0.00    +0.292 HD
ENDBRANCH  20  25
ENDBRANCH  16  17
BRANCH  15  27
ATOM     27  C   UNL     1      -3.695   2.249  -0.350  0.00  0.00    +0.104 C 
ATOM     28  N   UNL     1      -3.139   2.988  -1.009  0.00  0.00    -0.191 NA
ENDBRANCH  15  27
ENDBRANCH   2  15
TORSDOF 8
