REMARK  Name = ZINC15967564
REMARK  6 active torsions:
REMARK  status: ('A' for Active; 'I' for Inactive)
REMARK    1  A    between atoms: C_1  and  C_2
REMARK    2  A    between atoms: C_13  and  C_16
REMARK    3  A    between atoms: C_16  and  C_18
REMARK    4  A    between atoms: C_16  and  O_19
REMARK    5  A    between atoms: N_22  and  C_25
REMARK    6  A    between atoms: C_25  and  C_26
REMARK                            x       y       z     vdW  Elec       q    Type
REMARK                         _______ _______ _______ _____ _____    ______ ____
ROOT
ATOM      1  C   UNL     1       0.279   1.669   0.221  0.00  0.00    +0.044 C 
ATOM      2  C   UNL     1       0.155   0.171   0.120  0.00  0.00    -0.050 A 
ATOM      3  C   UNL     1       0.085  -0.437  -1.121  0.00  0.00    +0.005 A 
ATOM      4  C   UNL     1      -0.028  -1.808  -1.220  0.00  0.00    +0.024 A 
ATOM      5  C   UNL     1      -0.072  -2.592  -0.070  0.00  0.00    +0.039 A 
ATOM      6  C   UNL     1      -0.001  -1.970   1.173  0.00  0.00    +0.004 A 
ATOM      7  C   UNL     1       0.117  -0.602   1.267  0.00  0.00    +0.011 A 
ATOM      8  C   UNL     1      -0.073  -3.074   2.190  0.00  0.00    +0.136 C 
ATOM      9  C   UNL     1       1.168  -3.091   3.091  0.00  0.00    +0.123 C 
ATOM     10  C   UNL     1       0.722  -2.349   4.382  0.00  0.00    +0.109 C 
ATOM     11  C   UNL     1      -0.740  -1.934   4.117  0.00  0.00    +0.096 C 
ATOM     12  N   UNL     1      -1.227  -2.905   3.092  0.00  0.00    -0.293 NA
ATOM     13  C   UNL     1       0.766  -3.430   5.438  0.00  0.00    +0.228 C 
ATOM     14  O   UNL     1       0.478  -3.281   6.606  0.00  0.00    -0.275 OA
ATOM     15  N   UNL     1       1.173  -4.578   4.882  0.00  0.00    -0.237 N 
ATOM     16  C   UNL     1       1.438  -4.503   3.558  0.00  0.00    +0.229 C 
ATOM     17  O   UNL     1       1.826  -5.412   2.855  0.00  0.00    -0.275 OA
ATOM     18  C   UNL     1      -0.186  -4.340   1.385  0.00  0.00    +0.243 C 
ATOM     19  O   UNL     1      -0.268  -5.470   1.819  0.00  0.00    -0.273 OA
ATOM     20  N   UNL     1      -0.181  -3.976   0.088  0.00  0.00    -0.283 N 
ATOM     21  H   UNL     1      -2.022  -2.532   2.596  0.00  0.00    +0.124 HD
ATOM     22  H   UNL     1      -0.245  -4.601  -0.650  0.00  0.00    +0.155 HD
ENDROOT
BRANCH  11  23
ATOM     23  C   UNL     1      -1.571  -2.067   5.395  0.00  0.00    +0.129 C 
ATOM     24  C   UNL     1      -1.088  -1.046   6.426  0.00  0.00    +0.039 C 
BRANCH  23  25
ATOM     25  O   UNL     1      -2.947  -1.826   5.095  0.00  0.00    -0.390 OA
ATOM     26  H   UNL     1      -3.123  -0.948   4.731  0.00  0.00    +0.210 HD
ENDBRANCH  23  25
ENDBRANCH  11  23
BRANCH  15  27
ATOM     27  C   UNL     1       1.325  -5.818   5.647  0.00  0.00    +0.151 C 
BRANCH  27  28
ATOM     28  C   UNL     1       0.028  -6.584   5.627  0.00  0.00    -0.026 A 
ATOM     29  C   UNL     1      -0.921  -6.361   6.607  0.00  0.00    +0.009 A 
ATOM     30  C   UNL     1      -2.113  -7.061   6.592  0.00  0.00    +0.050 A 
ATOM     31  C   UNL     1      -2.359  -7.989   5.593  0.00  0.00    +0.166 A 
ATOM     32  C   UNL     1      -1.403  -8.214   4.605  0.00  0.00    +0.167 A 
ATOM     33  C   UNL     1      -0.213  -7.504   4.623  0.00  0.00    +0.054 A 
ATOM     34  O   UNL     1      -1.878  -9.163   3.747  0.00  0.00    -0.453 OA
ATOM     35  C   UNL     1      -2.956  -9.811   4.448  0.00  0.00    +0.466 C 
ATOM     36  O   UNL     1      -3.433  -8.798   5.353  0.00  0.00    -0.453 OA
ENDBRANCH  27  28
ENDBRANCH  15  27
TORSDOF 4
