REMARK  Name = ZINC35669007
REMARK  3 active torsions:
REMARK  status: ('A' for Active; 'I' for Inactive)
REMARK    1  A    between atoms: C_4  and  C_7
REMARK    2  A    between atoms: C_13  and  C_21
REMARK    3  A    between atoms: C_15  and  C_18
REMARK                            x       y       z     vdW  Elec       q    Type
REMARK                         _______ _______ _______ _____ _____    ______ ____
ROOT
ATOM      1  C   UNL     1       3.695  -0.685  -0.038  0.00  0.00    +0.182 A 
ATOM      2  N   UNL     1       4.873  -0.168  -0.316  0.00  0.00    -0.127 NA
ATOM      3  N   UNL     1       5.783  -1.079  -0.246  0.00  0.00    -0.121 NA
ATOM      4  C   UNL     1       5.238  -2.215   0.075  0.00  0.00    +0.210 A 
ATOM      5  N   UNL     1       3.892  -2.014   0.238  0.00  0.00    -0.221 N 
ATOM      6  N   UNL     1       2.974  -2.941   0.609  0.00  0.00    -0.272 N 
ATOM      7  C   UNL     1       3.341  -4.324   0.308  0.00  0.00    +0.140 C 
ATOM      8  C   UNL     1       4.621  -4.728   1.057  0.00  0.00    +0.166 C 
ATOM      9  S   UNL     1       5.998  -3.797   0.293  0.00  0.00    -0.069 S 
ATOM     10  H   UNL     1       2.726  -2.836   1.581  0.00  0.00    +0.167 HD
ENDROOT
BRANCH   1  14
ATOM     11  C   UNL     1      -0.017   1.379   0.010  0.00  0.00    +0.000 A 
ATOM     12  C   UNL     1       1.168   2.094   0.002  0.00  0.00    +0.001 A 
ATOM     13  C   UNL     1       2.377   1.429  -0.013  0.00  0.00    +0.011 A 
ATOM     14  C   UNL     1       2.403   0.034  -0.021  0.00  0.00    +0.021 A 
ATOM     15  C   UNL     1       1.204  -0.681  -0.013  0.00  0.00    +0.011 A 
ATOM     16  C   UNL     1       0.002  -0.004   0.002  0.00  0.00    +0.001 A 
ENDBRANCH   1  14
BRANCH   7  17
ATOM     17  C   UNL     1       2.217  -5.237   0.724  0.00  0.00    -0.024 A 
ATOM     18  C   UNL     1       1.529  -4.996   1.899  0.00  0.00    +0.005 A 
ATOM     19  C   UNL     1       0.498  -5.833   2.280  0.00  0.00    +0.000 A 
ATOM     20  C   UNL     1       0.153  -6.911   1.487  0.00  0.00    +0.000 A 
ATOM     21  C   UNL     1       0.840  -7.152   0.312  0.00  0.00    +0.000 A 
ATOM     22  C   UNL     1       1.869  -6.312  -0.072  0.00  0.00    +0.005 A 
ENDBRANCH   7  17
BRANCH   8  23
ATOM     23  C   UNL     1       4.858  -6.209   0.908  0.00  0.00    +0.226 C 
ATOM     24  O   UNL     1       4.564  -6.769  -0.126  0.00  0.00    -0.275 OA
ATOM     25  N   UNL     1       5.397  -6.910   1.925  0.00  0.00    -0.328 N 
ATOM     26  H   UNL     1       5.633  -6.462   2.752  0.00  0.00    +0.145 HD
ATOM     27  H   UNL     1       5.550  -7.863   1.830  0.00  0.00    +0.145 HD
ENDBRANCH   8  23
TORSDOF 3
