REMARK  Name = ZINC41078411
REMARK  5 active torsions:
REMARK  status: ('A' for Active; 'I' for Inactive)
REMARK    1  A    between atoms: C_1  and  C_2
REMARK    2  A    between atoms: C_9  and  C_10
REMARK    3  A    between atoms: C_13  and  O_17
REMARK    4  A    between atoms: O_17  and  C_18
REMARK    5  A    between atoms: C_18  and  C_20
REMARK                            x       y       z     vdW  Elec       q    Type
REMARK                         _______ _______ _______ _____ _____    ______ ____
ROOT
ATOM      1  C   UNL     1       2.638  -5.560   1.229  0.00  0.00    -0.023 A 
ATOM      2  C   UNL     1       3.389  -4.417   0.923  0.00  0.00    +0.011 A 
ATOM      3  C   UNL     1       4.751  -4.419   1.118  0.00  0.00    +0.048 A 
ATOM      4  C   UNL     1       5.383  -5.553   1.617  0.00  0.00    +0.146 A 
ATOM      5  C   UNL     1       4.644  -6.691   1.922  0.00  0.00    +0.061 A 
ATOM      6  C   UNL     1       3.279  -6.699   1.738  0.00  0.00    +0.027 A 
ATOM      7 BR   UNL     1       5.513  -8.228   2.599  0.00  0.00    -0.046 Br
ENDROOT
BRANCH   1  16
ATOM      8  C   UNL     1       0.759  -0.414  -4.064  0.00  0.00    +0.089 C 
ATOM      9  C   UNL     1       0.564  -1.568  -3.115  0.00  0.00    +0.134 C 
ATOM     10  C   UNL     1      -0.623  -1.977  -2.615  0.00  0.00    +0.091 C 
ATOM     11  C   UNL     1      -0.395  -3.079  -1.780  0.00  0.00    +0.168 C 
ATOM     12  N   UNL     1      -1.258  -3.779  -1.045  0.00  0.00    -0.156 NA
ATOM     13  C   UNL     1      -0.815  -4.764  -0.250  0.00  0.00    +0.273 C 
ATOM     14  O   UNL     1      -1.603  -5.492   0.331  0.00  0.00    -0.268 OA
ATOM     15  C   UNL     1       0.648  -4.957  -0.087  0.00  0.00    +0.084 C 
ATOM     16  C   UNL     1       1.187  -5.564   1.024  0.00  0.00    +0.024 C 
ATOM     17  C   UNL     1       1.498  -4.452  -1.209  0.00  0.00    +0.176 C 
ATOM     18  N   UNL     1       2.636  -4.994  -1.554  0.00  0.00    -0.280 NA
ATOM     19  N   UNL     1       0.949  -3.347  -1.845  0.00  0.00    -0.142 N 
ATOM     20  O   UNL     1       1.543  -2.354  -2.637  0.00  0.00    -0.375 OA
ATOM     21  H   UNL     1       2.927  -5.819  -1.136  0.00  0.00    +0.188 HD
ENDBRANCH   1  16
BRANCH   4  22
ATOM     22  O   UNL     1       6.728  -5.550   1.806  0.00  0.00    -0.421 OA
BRANCH  22  23
ATOM     23  C   UNL     1       7.507  -6.023   0.814  0.00  0.00    +0.344 C 
ATOM     24  O   UNL     1       7.001  -6.519  -0.172  0.00  0.00    -0.245 OA
BRANCH  23  25
ATOM     25  C   UNL     1       8.978  -5.937   0.925  0.00  0.00    +0.059 A 
ATOM     26  C   UNL     1       9.563  -5.372   2.060  0.00  0.00    +0.015 A 
ATOM     27  C   UNL     1      10.937  -5.296   2.158  0.00  0.00    +0.001 A 
ATOM     28  C   UNL     1      11.734  -5.777   1.135  0.00  0.00    +0.000 A 
ATOM     29  C   UNL     1      11.161  -6.339   0.007  0.00  0.00    +0.001 A 
ATOM     30  C   UNL     1       9.788  -6.427  -0.101  0.00  0.00    +0.015 A 
ENDBRANCH  23  25
ENDBRANCH  22  23
ENDBRANCH   4  22
TORSDOF 4
