REMARK  Name = ZINC20873147
REMARK  10 active torsions:
REMARK  status: ('A' for Active; 'I' for Inactive)
REMARK    1  A    between atoms: C_1  and  C_2
REMARK    2  A    between atoms: C_2  and  C_3
REMARK    3  A    between atoms: C_2  and  C_4
REMARK    4  A    between atoms: C_2  and  N_5
REMARK    5  A    between atoms: C_6  and  C_8
REMARK    6  A    between atoms: C_8  and  O_9
REMARK    7  A    between atoms: O_9  and  C_10
REMARK    8  A    between atoms: C_15  and  C_16
REMARK    9  A    between atoms: C_16  and  N_17
REMARK   10  A    between atoms: N_17  and  C_18
REMARK                            x       y       z     vdW  Elec       q    Type
REMARK                         _______ _______ _______ _____ _____    ______ ____
ROOT
ATOM      1  C   UNL     1      -1.089   7.820  -1.493  0.00  0.00    +0.123 A 
ATOM      2  C   UNL     1      -1.092   9.207  -1.453  0.00  0.00    +0.047 A 
ATOM      3  C   UNL     1      -2.214   9.882  -1.014  0.00  0.00    +0.019 A 
ATOM      4  C   UNL     1      -3.335   9.176  -0.614  0.00  0.00    +0.018 A 
ATOM      5  C   UNL     1      -3.336   7.794  -0.657  0.00  0.00    +0.020 A 
ATOM      6  C   UNL     1      -2.214   7.115  -1.091  0.00  0.00    -0.022 A 
ATOM      7 BR   UNL     1      -4.870  10.103  -0.013  0.00  0.00    -0.050 Br
ENDROOT
BRANCH   1   8
ATOM      8  O   UNL     1       0.014   7.154  -1.926  0.00  0.00    -0.483 OA
BRANCH   8   9
ATOM      9  C   UNL     1       1.135   7.946  -2.324  0.00  0.00    +0.324 C 
BRANCH   9  11
ATOM     10  N   UNL     1       3.421   7.570  -3.192  0.00  0.00    -0.308 N 
ATOM     11  C   UNL     1       2.255   7.041  -2.770  0.00  0.00    +0.251 C 
ATOM     12  O   UNL     1       2.108   5.838  -2.749  0.00  0.00    -0.272 OA
ATOM     13  H   UNL     1       3.554   8.662  -3.211  0.00  0.00    +0.149 HD
BRANCH  10  15
ATOM     14  C   UNL     1       4.039   5.842  -4.808  0.00  0.00    +0.031 C 
ATOM     15  C   UNL     1       4.510   6.691  -3.626  0.00  0.00    +0.026 C 
ATOM     16  C   UNL     1       5.710   7.538  -4.052  0.00  0.00    +0.031 C 
ATOM     17  C   UNL     1       4.916   5.775  -2.470  0.00  0.00    +0.031 C 
ENDBRANCH  10  15
ENDBRANCH   9  11
ENDBRANCH   8   9
ENDBRANCH   1   8
BRANCH   6  18
ATOM     18  C   UNL     1      -2.214   5.608  -1.135  0.00  0.00    -0.042 C 
BRANCH  18  19
ATOM     19  N   UNL     1      -1.510   5.085   0.044  0.00  0.00    +0.386 N 
ATOM     20  H   UNL     1      -0.472   5.452   0.044  0.00  0.00    -0.085 HD
ATOM     21  H   UNL     1      -2.019   5.426   0.957  0.00  0.00    -0.085 HD
BRANCH  19  22
ATOM     22  C   UNL     1      -1.490   3.616   0.036  0.00  0.00    -0.067 C 
ATOM     23  C   UNL     1      -0.773   3.123  -1.223  0.00  0.00    -0.009 C 
ATOM     24  C   UNL     1      -0.753   1.593  -1.232  0.00  0.00    -0.012 C 
ATOM     25  C   UNL     1      -0.013   1.086   0.008  0.00  0.00    +0.007 C 
ATOM     26  C   UNL     1      -0.729   1.579   1.267  0.00  0.00    -0.012 C 
ATOM     27  C   UNL     1      -0.750   3.109   1.275  0.00  0.00    -0.009 C 
ATOM     28  C   UNL     1      -2.164   1.050   1.278  0.00  0.00    +0.007 C 
ATOM     29  C   UNL     1      -2.904   1.556   0.038  0.00  0.00    -0.012 C 
ATOM     30  C   UNL     1      -2.188   1.063  -1.221  0.00  0.00    +0.007 C 
ATOM     31  C   UNL     1      -2.925   3.086   0.047  0.00  0.00    -0.009 C 
ENDBRANCH  19  22
ENDBRANCH  18  19
ENDBRANCH   6  18
TORSDOF 7
