REMARK  Name = ZINC09663378
REMARK  6 active torsions:
REMARK  status: ('A' for Active; 'I' for Inactive)
REMARK    1  A    between atoms: C_4  and  N_7
REMARK    2  A    between atoms: N_12  and  C_26
REMARK    3  A    between atoms: C_14  and  C_17
REMARK    4  A    between atoms: N_19  and  C_20
REMARK    5  A    between atoms: C_20  and  C_21
REMARK    6  A    between atoms: C_26  and  C_27
REMARK                            x       y       z     vdW  Elec       q    Type
REMARK                         _______ _______ _______ _____ _____    ______ ____
ROOT
ATOM      1  N   UNL     1       1.054   2.042   0.003  0.00  0.00    -0.196 N 
ATOM      2  C   UNL     1      -0.015   1.216   0.009  0.00  0.00    +0.283 A 
ATOM      3  O   UNL     1       0.002  -0.004   0.002  0.00  0.00    -0.265 OA
ATOM      4  C   UNL     1      -1.193   2.077   0.018  0.00  0.00    +0.085 A 
ATOM      5  C   UNL     1      -2.551   1.891   0.037  0.00  0.00    +0.101 A 
ATOM      6  N   UNL     1      -3.390   2.945   0.051  0.00  0.00    -0.349 N 
ATOM      7  C   UNL     1      -2.971   4.234   0.053  0.00  0.00    +0.101 A 
ATOM      8  C   UNL     1      -1.646   4.560   0.042  0.00  0.00    +0.081 A 
ATOM      9  C   UNL     1      -0.662   3.460   0.027  0.00  0.00    +0.112 A 
ATOM     10  N   UNL     1       0.637   3.376   0.014  0.00  0.00    -0.162 NA
ENDROOT
BRANCH   1  14
ATOM     11  C   UNL     1       5.029   0.793  -0.041  0.00  0.00    +0.000 A 
ATOM     12  C   UNL     1       4.659   1.940  -0.719  0.00  0.00    +0.002 A 
ATOM     13  C   UNL     1       3.342   2.357  -0.707  0.00  0.00    +0.028 A 
ATOM     14  C   UNL     1       2.389   1.622  -0.012  0.00  0.00    +0.069 A 
ATOM     15  C   UNL     1       2.765   0.474   0.672  0.00  0.00    +0.028 A 
ATOM     16  C   UNL     1       4.082   0.059   0.651  0.00  0.00    +0.002 A 
ENDBRANCH   1  14
BRANCH   8  17
ATOM     17  C   UNL     1      -1.212   5.966   0.045  0.00  0.00    +0.248 C 
ATOM     18  O   UNL     1      -0.026   6.236   0.035  0.00  0.00    -0.270 OA
ATOM     19  N   UNL     1      -2.128   6.954   0.059  0.00  0.00    -0.307 N 
ATOM     20  H   UNL     1      -3.074   6.739   0.068  0.00  0.00    +0.149 HD
BRANCH  19  21
ATOM     21  C   UNL     1      -1.695   8.354   0.062  0.00  0.00    +0.147 C 
BRANCH  21  22
ATOM     22  C   UNL     1      -2.904   9.254   0.079  0.00  0.00    +0.007 A 
ATOM     23  C   UNL     1      -3.578   9.758   1.141  0.00  0.00    +0.013 A 
ATOM     24  C   UNL     1      -4.672  10.572   0.915  0.00  0.00    +0.008 A 
ATOM     25  C   UNL     1      -5.038  10.842  -0.361  0.00  0.00    +0.045 A 
ATOM     26  S   UNL     1      -3.815   9.938  -1.296  0.00  0.00    -0.100 S 
ENDBRANCH  21  22
ENDBRANCH  19  21
ENDBRANCH   8  17
BRANCH   6  27
ATOM     27  C   UNL     1      -4.832   2.684   0.064  0.00  0.00    +0.152 C 
BRANCH  27  28
ATOM     28  C   UNL     1      -5.348   2.601  -1.374  0.00  0.00    +0.138 C 
ATOM     29  C   UNL     1      -6.862   2.271  -1.383  0.00  0.00    +0.035 C 
ATOM     30  C   UNL     1      -7.283   2.858  -2.758  0.00  0.00    +0.031 C 
ATOM     31  C   UNL     1      -6.359   4.088  -2.886  0.00  0.00    +0.160 C 
ATOM     32  O   UNL     1      -5.239   3.880  -2.018  0.00  0.00    -0.375 OA
ENDBRANCH  27  28
ENDBRANCH   6  27
TORSDOF 6
