REMARK  Name = ZINC12908744
REMARK  5 active torsions:
REMARK  status: ('A' for Active; 'I' for Inactive)
REMARK    1  A    between atoms: C_1  and  O_2
REMARK    2  A    between atoms: O_2  and  C_3
REMARK    3  A    between atoms: C_3  and  C_5
REMARK    4  A    between atoms: C_6  and  C_10
REMARK    5  A    between atoms: C_18  and  O_19
REMARK                            x       y       z     vdW  Elec       q    Type
REMARK                         _______ _______ _______ _____ _____    ______ ____
ROOT
ATOM      1  C   UNL     1      -2.449   6.674   0.062  0.00  0.00    +0.019 C 
ATOM      2  C   UNL     1      -1.787   5.496   0.050  0.00  0.00    +0.005 C 
ATOM      3  C   UNL     1      -2.397   4.114   0.047  0.00  0.00    +0.078 C 
ATOM      4  C   UNL     1      -1.247   3.138   0.030  0.00  0.00    +0.009 A 
ATOM      5  C   UNL     1      -0.052   3.853   0.023  0.00  0.00    +0.029 A 
ATOM      6  C   UNL     1       1.165   3.161   0.007  0.00  0.00    +0.012 A 
ATOM      7  C   UNL     1       1.176   1.782   0.000  0.00  0.00    +0.004 A 
ATOM      8  C   UNL     1      -0.013   1.076   0.008  0.00  0.00    +0.046 A 
ATOM      9  C   UNL     1      -1.225   1.752   0.017  0.00  0.00    +0.121 A 
ATOM     10  C   UNL     1      -0.335   5.304   0.034  0.00  0.00    +0.190 C 
ATOM     11  O   UNL     1       0.498   6.191   0.032  0.00  0.00    -0.287 OA
ENDROOT
BRANCH   1  13
ATOM     12  C   UNL     1      -4.744   7.814   0.091  0.00  0.00    +0.218 A 
ATOM     13  C   UNL     1      -3.919   6.691   0.077  0.00  0.00    +0.028 A 
ATOM     14  C   UNL     1      -4.785   5.568   0.072  0.00  0.00    +0.050 A 
ATOM     15  C   UNL     1      -6.045   6.043   0.092  0.00  0.00    +0.196 A 
ATOM     16  O   UNL     1      -6.019   7.381   0.100  0.00  0.00    -0.456 OA
BRANCH  12  17
ATOM     17  C   UNL     1      -4.303   9.212   0.095  0.00  0.00    +0.375 C 
ATOM     18  O   UNL     1      -3.116   9.476   0.085  0.00  0.00    -0.241 OA
BRANCH  17  20
ATOM     19  C   UNL     1      -4.715  11.545   0.112  0.00  0.00    +0.280 C 
ATOM     20  O   UNL     1      -5.215  10.207   0.109  0.00  0.00    -0.462 OA
ENDBRANCH  17  20
ENDBRANCH  12  17
ENDBRANCH   1  13
BRANCH   9  21
ATOM     21  O   UNL     1      -2.391   1.055   0.019  0.00  0.00    -0.506 OA
ATOM     22  H   UNL     1      -2.725   0.848   0.903  0.00  0.00    +0.292 HD
ENDBRANCH   9  21
TORSDOF 4
