REMARK  Name = ZINC14669705
REMARK  10 active torsions:
REMARK  status: ('A' for Active; 'I' for Inactive)
REMARK    1  A    between atoms: C_4  and  C_7
REMARK    2  A    between atoms: C_7  and  C_8
REMARK    3  A    between atoms: C_8  and  O_9
REMARK    4  A    between atoms: O_9  and  C_10
REMARK    5  A    between atoms: C_13  and  C_17
REMARK    6  A    between atoms: N_19  and  N_20
REMARK    7  A    between atoms: C_21  and  C_23
REMARK    8  A    between atoms: C_23  and  O_24
REMARK    9  A    between atoms: O_24  and  C_25
REMARK   10  A    between atoms: C_28  and  N_31
REMARK                            x       y       z     vdW  Elec       q    Type
REMARK                         _______ _______ _______ _____ _____    ______ ____
ROOT
ATOM      1  C   UNL     1      -1.183  -2.069   0.002  0.00  0.00    +0.260 C 
ATOM      2  O   UNL     1      -0.122  -2.662  -0.011  0.00  0.00    -0.269 OA
ATOM      3  N   UNL     1      -1.202  -0.721   0.010  0.00  0.00    -0.230 N 
ATOM      4  H   UNL     1      -2.048  -0.247   0.020  0.00  0.00    +0.173 HD
ENDROOT
BRANCH   1   8
ATOM      5  C   UNL     1      -4.833  -4.241   0.026  0.00  0.00    +0.134 A 
ATOM      6  C   UNL     1      -4.853  -2.852   0.033  0.00  0.00    +0.047 A 
ATOM      7  C   UNL     1      -3.672  -2.144   0.031  0.00  0.00    +0.017 A 
ATOM      8  C   UNL     1      -2.451  -2.824   0.010  0.00  0.00    +0.039 A 
ATOM      9  C   UNL     1      -2.434  -4.221   0.003  0.00  0.00    +0.032 A 
ATOM     10  C   UNL     1      -3.621  -4.922   0.011  0.00  0.00    +0.060 A 
ATOM     11 BR   UNL     1      -3.600  -6.813   0.000  0.00  0.00    -0.046 Br
BRANCH   5  12
ATOM     12  O   UNL     1      -5.999  -4.935   0.033  0.00  0.00    -0.491 OA
BRANCH  12  13
ATOM     13  C   UNL     1      -7.208  -4.173   0.049  0.00  0.00    +0.234 C 
BRANCH  13  14
ATOM     14  C   UNL     1      -8.409  -5.121   0.055  0.00  0.00    +0.076 C 
BRANCH  14  18
ATOM     15  C   UNL     1     -12.021  -2.842   0.102  0.00  0.00    +0.000 A 
ATOM     16  C   UNL     1     -11.448  -3.204  -1.102  0.00  0.00    +0.000 A 
ATOM     17  C   UNL     1     -10.279  -3.941  -1.118  0.00  0.00    +0.004 A 
ATOM     18  C   UNL     1      -9.683  -4.316   0.072  0.00  0.00    -0.044 A 
ATOM     19  C   UNL     1     -10.259  -3.959   1.277  0.00  0.00    +0.004 A 
ATOM     20  C   UNL     1     -11.425  -3.217   1.292  0.00  0.00    +0.000 A 
ENDBRANCH  14  18
ENDBRANCH  13  14
ENDBRANCH  12  13
ENDBRANCH   5  12
ENDBRANCH   1   8
BRANCH   3  21
ATOM     21  N   UNL     1       0.002  -0.004   0.002  0.00  0.00    -0.231 N 
ATOM     22  C   UNL     1      -0.016   1.344   0.009  0.00  0.00    +0.267 C 
ATOM     23  O   UNL     1      -1.075   1.936   0.018  0.00  0.00    -0.271 OA
ATOM     24  H   UNL     1       0.849  -0.478  -0.009  0.00  0.00    +0.173 HD
BRANCH  22  25
ATOM     25  C   UNL     1       1.278   2.115   0.001  0.00  0.00    +0.326 C 
BRANCH  25  26
ATOM     26  O   UNL     1       0.998   3.516   0.011  0.00  0.00    -0.483 OA
BRANCH  26  27
ATOM     27  C   UNL     1       2.065   4.358   0.006  0.00  0.00    +0.121 A 
ATOM     28  C   UNL     1       3.354   3.847  -0.004  0.00  0.00    +0.048 A 
ATOM     29  C   UNL     1       4.437   4.705  -0.014  0.00  0.00    +0.036 A 
ATOM     30  C   UNL     1       4.236   6.073  -0.005  0.00  0.00    +0.126 A 
ATOM     31  C   UNL     1       2.951   6.586   0.010  0.00  0.00    +0.036 A 
ATOM     32  C   UNL     1       1.866   5.731   0.015  0.00  0.00    +0.048 A 
BRANCH  30  33
ATOM     33  N   UNL     1       5.397   6.991  -0.011  0.00  0.00    +0.056 N 
ATOM     34  O   UNL     1       5.221   8.196  -0.003  0.00  0.00    -0.126 OA
ATOM     35  O   UNL     1       6.529   6.541  -0.024  0.00  0.00    -0.126 OA
ENDBRANCH  30  33
ENDBRANCH  26  27
ENDBRANCH  25  26
ENDBRANCH  22  25
ENDBRANCH   3  21
TORSDOF 10
