REMARK  Name = ZINC63654262
REMARK  13 active torsions:
REMARK  status: ('A' for Active; 'I' for Inactive)
REMARK    1  A    between atoms: C_1  and  C_2
REMARK    2  A    between atoms: C_2  and  C_3
REMARK    3  A    between atoms: C_3  and  C_4
REMARK    4  A    between atoms: C_4  and  C_5
REMARK    5  A    between atoms: C_4  and  N_21
REMARK    6  A    between atoms: N_7  and  C_8
REMARK    7  A    between atoms: C_8  and  C_9
REMARK    8  A    between atoms: C_9  and  C_10
REMARK    9  A    between atoms: C_9  and  N_18
REMARK   10  A    between atoms: C_13  and  C_16
REMARK   11  A    between atoms: C_16  and  C_17
REMARK   12  A    between atoms: N_18  and  C_19
REMARK   13  A    between atoms: N_18  and  C_20
REMARK                            x       y       z     vdW  Elec       q    Type
REMARK                         _______ _______ _______ _____ _____    ______ ____
ROOT
ATOM      1  C   UNL     1       2.481  -4.912   3.773  0.00  0.00    +0.233 C 
ATOM      2  O   UNL     1       2.837  -4.096   2.949  0.00  0.00    -0.274 OA
ATOM      3  N   UNL     1       1.623  -4.554   4.748  0.00  0.00    -0.315 N 
ATOM      4  H   UNL     1       1.338  -5.206   5.407  0.00  0.00    +0.149 HD
ENDROOT
BRANCH   1   5
ATOM      5  C   UNL     1       2.998  -6.326   3.705  0.00  0.00    +0.160 C 
BRANCH   5   6
ATOM      6  N   UNL     1       4.226  -6.359   2.908  0.00  0.00    -0.288 N 
ATOM      7  C   UNL     1       4.206  -5.959   1.621  0.00  0.00    +0.298 C 
ATOM      8  O   UNL     1       3.167  -5.570   1.122  0.00  0.00    -0.253 OA
ATOM      9  N   UNL     1       5.336  -5.989   0.888  0.00  0.00    -0.313 N 
ATOM     10  H   UNL     1       5.054  -6.670   3.306  0.00  0.00    +0.151 HD
ATOM     11  H   UNL     1       6.164  -6.300   1.286  0.00  0.00    +0.146 HD
ATOM     12  H   UNL     1       5.321  -5.701  -0.038  0.00  0.00    +0.146 HD
ENDBRANCH   5   6
BRANCH   5  13
ATOM     13  C   UNL     1       1.943  -7.224   3.056  0.00  0.00    +0.031 C 
BRANCH  13  15
ATOM     14  C   UNL     1       1.361  -9.577   2.450  0.00  0.00    +0.004 C 
ATOM     15  C   UNL     1       2.415  -8.679   3.100  0.00  0.00    -0.001 C 
ENDBRANCH  13  15
ENDBRANCH   5  13
ENDBRANCH   1   5
BRANCH   3  16
ATOM     16  C   UNL     1       1.120  -3.179   4.814  0.00  0.00    +0.093 C 
BRANCH  16  17
ATOM     17  C   UNL     1       0.086  -3.067   5.935  0.00  0.00    -0.021 C 
BRANCH  17  18
ATOM     18  C   UNL     1       0.753  -3.324   7.262  0.00  0.00    -0.059 A 
ATOM     19  C   UNL     1       1.473  -2.319   7.880  0.00  0.00    +0.002 A 
ATOM     20  C   UNL     1       2.085  -2.555   9.097  0.00  0.00    +0.004 A 
ATOM     21  C   UNL     1       1.977  -3.797   9.695  0.00  0.00    -0.048 A 
ATOM     22  C   UNL     1       1.256  -4.801   9.078  0.00  0.00    +0.004 A 
ATOM     23  C   UNL     1       0.640  -4.564   7.863  0.00  0.00    +0.002 A 
BRANCH  21  24
ATOM     24  C   UNL     1       2.645  -4.054  11.021  0.00  0.00    +0.032 C 
ATOM     25  C   UNL     1       1.679  -3.707  12.155  0.00  0.00    +0.009 C 
ENDBRANCH  21  24
ENDBRANCH  17  18
BRANCH  17  26
ATOM     26  N   UNL     1      -0.495  -1.718   5.933  0.00  0.00    +0.382 N 
ATOM     27  C   UNL     1      -1.146  -1.467   4.640  0.00  0.00    -0.096 C 
ATOM     28  C   UNL     1      -1.487  -1.609   7.011  0.00  0.00    -0.096 C 
ATOM     29  H   UNL     1       0.236  -1.037   6.079  0.00  0.00    -0.082 HD
ENDBRANCH  17  26
ENDBRANCH  16  17
ENDBRANCH   3  16
TORSDOF 9
