REMARK  Name = ZINC15305338
REMARK  6 active torsions:
REMARK  status: ('A' for Active; 'I' for Inactive)
REMARK    1  A    between atoms: C_1  and  C_2
REMARK    2  A    between atoms: C_2  and  C_3
REMARK    3  A    between atoms: C_3  and  C_29
REMARK    4  A    between atoms: C_8  and  C_10
REMARK    5  A    between atoms: C_15  and  O_16
REMARK    6  A    between atoms: N_19  and  C_22
REMARK                            x       y       z     vdW  Elec       q    Type
REMARK                         _______ _______ _______ _____ _____    ______ ____
ROOT
ATOM      1  C   UNL     1      -0.133   0.066  -0.070  0.00  0.00    +0.048 C 
ATOM      2  C   UNL     1      -1.320  -0.600  -0.627  0.00  0.00    +0.086 C 
ATOM      3  C   UNL     1      -1.015  -0.616  -2.179  0.00  0.00    +0.077 C 
ATOM      4  C   UNL     1       0.399  -1.198  -2.062  0.00  0.00    -0.023 C 
ATOM      5  C   UNL     1      -2.157  -1.522  -2.550  0.00  0.00    +0.229 C 
ATOM      6  O   UNL     1      -2.168  -2.371  -3.414  0.00  0.00    -0.275 OA
ATOM      7  N   UNL     1      -3.181  -1.187  -1.708  0.00  0.00    -0.210 N 
ATOM      8  C   UNL     1      -2.759  -0.450  -0.636  0.00  0.00    +0.229 C 
ATOM      9  O   UNL     1      -3.443   0.186   0.136  0.00  0.00    -0.275 OA
ATOM     10  N   UNL     1       0.981  -0.393  -0.950  0.00  0.00    +0.396 N 
ATOM     11  H   UNL     1       1.635  -0.971  -0.409  0.00  0.00    -0.083 HD
ATOM     12  H   UNL     1       1.478   0.419  -1.333  0.00  0.00    -0.083 HD
ENDROOT
BRANCH   7  13
ATOM     13  C   UNL     1      -4.517  -1.550  -1.929  0.00  0.00    +0.045 A 
ATOM     14  C   UNL     1      -4.861  -2.289  -3.053  0.00  0.00    +0.024 A 
ATOM     15  C   UNL     1      -6.178  -2.644  -3.269  0.00  0.00    +0.003 A 
ATOM     16  C   UNL     1      -7.155  -2.265  -2.366  0.00  0.00    +0.020 A 
ATOM     17  C   UNL     1      -6.816  -1.529  -1.245  0.00  0.00    +0.043 A 
ATOM     18  C   UNL     1      -5.498  -1.175  -1.022  0.00  0.00    +0.044 A 
ATOM     19 CL   UNL     1      -8.045  -1.056  -0.114  0.00  0.00    -0.083 Cl
ENDBRANCH   7  13
BRANCH   4  20
ATOM     20  C   UNL     1       1.169  -0.995  -3.341  0.00  0.00    -0.019 A 
ATOM     21  C   UNL     1       0.721  -0.085  -4.280  0.00  0.00    +0.005 A 
ATOM     22  C   UNL     1       1.430   0.106  -5.452  0.00  0.00    +0.000 A 
ATOM     23  C   UNL     1       2.582  -0.620  -5.692  0.00  0.00    +0.004 A 
ATOM     24  C   UNL     1       3.031  -1.534  -4.759  0.00  0.00    +0.045 A 
ATOM     25  C   UNL     1       2.324  -1.724  -3.580  0.00  0.00    +0.118 A 
BRANCH  25  26
ATOM     26  O   UNL     1       2.763  -2.623  -2.660  0.00  0.00    -0.507 OA
ATOM     27  H   UNL     1       2.474  -3.530  -2.828  0.00  0.00    +0.292 HD
ENDBRANCH  25  26
ENDBRANCH   4  20
BRANCH   1  28
ATOM     28  C   UNL     1      -0.285   1.564  -0.143  0.00  0.00    +0.346 C 
ATOM     29  O   UNL     1      -1.387   2.058  -0.179  0.00  0.00    -0.248 OA
ATOM     30  O   UNL     1       0.803   2.349  -0.175  0.00  0.00    -0.248 OA
ENDBRANCH   1  28
BRANCH   1  32
ATOM     31  C   UNL     1       1.363   0.295   1.919  0.00  0.00    +0.003 C 
ATOM     32  C   UNL     1       0.099  -0.376   1.377  0.00  0.00    -0.004 C 
ENDBRANCH   1  32
TORSDOF 5
