REMARK  Name = ZINC02763500
REMARK  7 active torsions:
REMARK  status: ('A' for Active; 'I' for Inactive)
REMARK    1  A    between atoms: C_1  and  C_2
REMARK    2  A    between atoms: C_3  and  N_16
REMARK    3  A    between atoms: C_4  and  C_15
REMARK    4  A    between atoms: N_5  and  C_7
REMARK    5  A    between atoms: C_7  and  C_8
REMARK    6  A    between atoms: C_17  and  C_19
REMARK    7  A    between atoms: C_25  and  C_27
REMARK                            x       y       z     vdW  Elec       q    Type
REMARK                         _______ _______ _______ _____ _____    ______ ____
ROOT
ATOM      1  C   UNL     1       0.420  -1.837  -1.244  0.00  0.00    +0.069 C 
ATOM      2  C   UNL     1       1.188  -0.796  -0.471  0.00  0.00    +0.081 A 
ATOM      3  C   UNL     1       1.598   0.454  -0.959  0.00  0.00    +0.077 A 
ATOM      4  C   UNL     1       2.259   1.094   0.039  0.00  0.00    +0.058 A 
ATOM      5  N   UNL     1       2.264   0.272   1.120  0.00  0.00    -0.262 N 
ATOM      6  N   UNL     1       1.582  -0.901   0.772  0.00  0.00    -0.174 NA
ATOM      7  C   UNL     1       2.875   2.467  -0.038  0.00  0.00    +0.067 C 
ENDROOT
BRANCH   3   8
ATOM      8  N   UNL     1       1.365   0.955  -2.254  0.00  0.00    -0.282 N 
ATOM      9  C   UNL     1       0.132   0.881  -2.793  0.00  0.00    +0.221 C 
ATOM     10  O   UNL     1      -0.782   0.404  -2.154  0.00  0.00    -0.275 OA
ATOM     11  H   UNL     1       2.092   1.353  -2.757  0.00  0.00    +0.155 HD
BRANCH   9  12
ATOM     12  C   UNL     1      -0.110   1.391  -4.190  0.00  0.00    +0.093 C 
ATOM     13  C   UNL     1       0.860   2.534  -4.496  0.00  0.00    +0.040 C 
ATOM     14  C   UNL     1       0.497   3.749  -3.693  0.00  0.00    -0.030 C 
ATOM     15  C   UNL     1      -0.651   3.923  -3.120  0.00  0.00    -0.030 C 
ATOM     16  C   UNL     1      -1.774   2.930  -3.169  0.00  0.00    +0.042 C 
ATOM     17  C   UNL     1      -1.545   1.923  -4.303  0.00  0.00    +0.118 C 
BRANCH  17  18
ATOM     18  C   UNL     1      -2.520   0.780  -4.182  0.00  0.00    +0.360 C 
ATOM     19  O   UNL     1      -3.626   0.971  -3.707  0.00  0.00    -0.246 OA
ATOM     20  O   UNL     1      -2.201  -0.335  -4.558  0.00  0.00    -0.246 OA
ENDBRANCH  17  18
ENDBRANCH   9  12
ENDBRANCH   3   8
BRANCH   5  21
ATOM     21  C   UNL     1       2.871   0.562   2.421  0.00  0.00    +0.179 C 
BRANCH  21  22
ATOM     22  C   UNL     1       1.857   1.236   3.310  0.00  0.00    -0.026 A 
ATOM     23  C   UNL     1       1.744   2.614   3.308  0.00  0.00    +0.007 A 
ATOM     24  C   UNL     1       0.814   3.232   4.123  0.00  0.00    +0.020 A 
ATOM     25  C   UNL     1      -0.004   2.472   4.940  0.00  0.00    +0.041 A 
ATOM     26  C   UNL     1       0.110   1.093   4.941  0.00  0.00    +0.020 A 
ATOM     27  C   UNL     1       1.036   0.475   4.122  0.00  0.00    +0.007 A 
ATOM     28 CL   UNL     1      -1.172   3.248   5.963  0.00  0.00    -0.084 Cl
ENDBRANCH  21  22
ENDBRANCH   5  21
TORSDOF 5
