REMARK  Name = ZINC14991152
REMARK  8 active torsions:
REMARK  status: ('A' for Active; 'I' for Inactive)
REMARK    1  A    between atoms: C_1  and  C_2
REMARK    2  A    between atoms: N_4  and  C_5
REMARK    3  A    between atoms: C_8  and  C_10
REMARK    4  A    between atoms: C_10  and  N_59
REMARK    5  A    between atoms: C_13  and  C_16
REMARK    6  A    between atoms: C_16  and  C_31
REMARK    7  A    between atoms: N_19  and  C_23
REMARK    8  A    between atoms: C_23  and  C_24
REMARK                            x       y       z     vdW  Elec       q    Type
REMARK                         _______ _______ _______ _____ _____    ______ ____
ROOT
ATOM      1  C   UNL     1      -4.545  -4.112  -5.394  0.00  0.00    -0.078 C 
ATOM      2  C   UNL     1      -3.606  -2.936  -5.116  0.00  0.00    -0.013 C 
ATOM      3  C   UNL     1      -3.038  -3.066  -3.700  0.00  0.00    +0.018 C 
ATOM      4  C   UNL     1      -2.314  -4.408  -3.569  0.00  0.00    -0.013 C 
ATOM      5  C   UNL     1      -3.289  -5.542  -3.893  0.00  0.00    -0.078 C 
ATOM      6  N   UNL     1      -3.781  -5.373  -5.277  0.00  0.00    +0.383 N 
ATOM      7  H   UNL     1      -2.977  -5.335  -5.914  0.00  0.00    -0.081 HD
ENDROOT
BRANCH   3   8
ATOM      8  C   UNL     1      -2.052  -1.925  -3.438  0.00  0.00    +0.112 C 
ATOM      9  C   UNL     1      -1.380  -2.100  -2.091  0.00  0.00    +0.247 C 
ATOM     10  O   UNL     1      -0.677  -3.023  -1.737  0.00  0.00    -0.273 OA
ATOM     11  N   UNL     1      -1.726  -1.017  -1.367  0.00  0.00    -0.220 N 
ATOM     12  C   UNL     1      -2.519  -0.193  -2.062  0.00  0.00    +0.310 C 
ATOM     13  O   UNL     1      -2.965   0.848  -1.620  0.00  0.00    -0.252 OA
ATOM     14  N   UNL     1      -2.766  -0.643  -3.305  0.00  0.00    -0.285 N 
ATOM     15  C   UNL     1      -1.008  -1.847  -4.554  0.00  0.00    +0.042 C 
ATOM     16  H   UNL     1      -3.311  -0.211  -3.981  0.00  0.00    +0.151 HD
BRANCH  11  17
ATOM     17  C   UNL     1      -1.293  -0.775   0.011  0.00  0.00    +0.153 C 
BRANCH  17  18
ATOM     18  C   UNL     1       0.002  -0.004   0.002  0.00  0.00    -0.029 A 
ATOM     19  C   UNL     1      -0.017   1.378   0.010  0.00  0.00    +0.008 A 
ATOM     20  C   UNL     1       1.170   2.086   0.002  0.00  0.00    +0.038 A 
ATOM     21  C   UNL     1       2.379   1.410  -0.013  0.00  0.00    +0.123 A 
ATOM     22  C   UNL     1       2.396   0.026  -0.021  0.00  0.00    +0.038 A 
ATOM     23  C   UNL     1       1.208  -0.680  -0.013  0.00  0.00    +0.008 A 
ATOM     24  F   UNL     1       3.540   2.101  -0.020  0.00  0.00    -0.205 F 
ENDBRANCH  17  18
ENDBRANCH  11  17
ENDBRANCH   3   8
BRANCH   6  25
ATOM     25  C   UNL     1      -4.637  -6.517  -5.652  0.00  0.00    -0.036 C 
BRANCH  25  29
ATOM     26  C   UNL     1      -2.503 -10.068  -5.024  0.00  0.00    +0.072 A 
ATOM     27  C   UNL     1      -3.288  -9.666  -3.986  0.00  0.00    +0.031 A 
ATOM     28  C   UNL     1      -4.019  -8.499  -4.115  0.00  0.00    +0.011 A 
ATOM     29  C   UNL     1      -3.942  -7.799  -5.272  0.00  0.00    -0.025 A 
ATOM     30  S   UNL     1      -2.798  -8.782  -6.227  0.00  0.00    -0.080 S 
BRANCH  26  34
ATOM     31  C   UNL     1      -0.088 -12.630  -6.355  0.00  0.00    +0.109 C 
ATOM     32  C   UNL     1      -0.975 -11.416  -6.249  0.00  0.00    +0.214 C 
ATOM     33  O   UNL     1      -1.053 -10.639  -7.177  0.00  0.00    -0.276 OA
ATOM     34  N   UNL     1      -1.680 -11.193  -5.122  0.00  0.00    -0.280 N 
ATOM     35  H   UNL     1      -1.617 -11.814  -4.380  0.00  0.00    +0.155 HD
ENDBRANCH  26  34
ENDBRANCH  25  29
ENDBRANCH   6  25
TORSDOF 6
