REMARK  Name = ZINC12581891
REMARK  6 active torsions:
REMARK  status: ('A' for Active; 'I' for Inactive)
REMARK    1  A    between atoms: C_1  and  C_2
REMARK    2  A    between atoms: C_7  and  C_8
REMARK    3  A    between atoms: C_8  and  N_55
REMARK    4  A    between atoms: C_9  and  N_55
REMARK    5  A    between atoms: C_10  and  C_11
REMARK    6  A    between atoms: C_10  and  N_55
REMARK                            x       y       z     vdW  Elec       q    Type
REMARK                         _______ _______ _______ _____ _____    ______ ____
ROOT
ATOM      1  C   UNL     1       3.493   3.573   0.726  0.00  0.00    +0.204 C 
ATOM      2  O   UNL     1       4.541   4.170   0.594  0.00  0.00    -0.277 OA
ATOM      3  N   UNL     1       2.344   4.123   0.286  0.00  0.00    -0.256 N 
ATOM      4  C   UNL     1       1.175   3.356   0.141  0.00  0.00    +0.058 A 
ATOM      5  C   UNL     1       1.235   2.010  -0.171  0.00  0.00    +0.025 A 
ATOM      6  C   UNL     1       0.065   1.288  -0.320  0.00  0.00    +0.002 A 
ATOM      7  C   UNL     1      -1.161   1.912  -0.169  0.00  0.00    +0.002 A 
ATOM      8  C   UNL     1      -1.227   3.256   0.149  0.00  0.00    +0.025 A 
ATOM      9  C   UNL     1      -0.060   3.985   0.307  0.00  0.00    +0.055 A 
ATOM     10  N   UNL     1      -0.105   5.344   0.641  0.00  0.00    -0.282 N 
ATOM     11  C   UNL     1       0.981   6.126   0.470  0.00  0.00    +0.241 C 
ATOM     12  O   UNL     1       0.922   7.306   0.747  0.00  0.00    -0.273 OA
ATOM     13  C   UNL     1       2.263   5.547  -0.061  0.00  0.00    +0.118 C 
ATOM     14  C   UNL     1       2.324   5.714  -1.589  0.00  0.00    +0.036 C 
ATOM     15  C   UNL     1       3.162   7.002  -1.794  0.00  0.00    +0.003 C 
ATOM     16  C   UNL     1       4.231   6.898  -0.677  0.00  0.00    +0.003 C 
ATOM     17  C   UNL     1       3.467   6.298   0.522  0.00  0.00    +0.036 C 
ATOM     18  H   UNL     1      -0.922   5.726   0.998  0.00  0.00    +0.155 HD
ENDROOT
BRANCH   1  19
ATOM     19  C   UNL     1       3.477   2.216   1.382  0.00  0.00    +0.019 C 
BRANCH  19  21
ATOM     20  C   UNL     1       5.035   2.878   3.113  0.00  0.00    -0.095 C 
ATOM     21  N   UNL     1       4.804   1.959   1.979  0.00  0.00    +0.386 N 
ATOM     22  H   UNL     1       5.527   2.119   1.267  0.00  0.00    -0.081 HD
BRANCH  21  23
ATOM     23  C   UNL     1       4.887   0.557   2.440  0.00  0.00    -0.042 C 
BRANCH  23  30
ATOM     24  C   UNL     1       6.712   0.163   0.235  0.00  0.00    +0.044 C 
ATOM     25  C   UNL     1       7.205   0.032   1.653  0.00  0.00    -0.049 A 
ATOM     26  C   UNL     1       8.530  -0.276   1.899  0.00  0.00    +0.003 A 
ATOM     27  C   UNL     1       8.982  -0.396   3.200  0.00  0.00    +0.000 A 
ATOM     28  C   UNL     1       8.108  -0.207   4.255  0.00  0.00    +0.000 A 
ATOM     29  C   UNL     1       6.785   0.106   4.009  0.00  0.00    +0.002 A 
ATOM     30  C   UNL     1       6.332   0.220   2.708  0.00  0.00    -0.061 A 
ENDBRANCH  23  30
ENDBRANCH  21  23
ENDBRANCH  19  21
ENDBRANCH   1  19
TORSDOF 4
