REMARK  Name = ZINC02442677
REMARK  5 active torsions:
REMARK  status: ('A' for Active; 'I' for Inactive)
REMARK    1  A    between atoms: C_1  and  C_2
REMARK    2  A    between atoms: C_4  and  C_36
REMARK    3  A    between atoms: N_20  and  C_23
REMARK    4  A    between atoms: C_27  and  N_30
REMARK    5  A    between atoms: C_28  and  C_29
REMARK                            x       y       z     vdW  Elec       q    Type
REMARK                         _______ _______ _______ _____ _____    ______ ____
ROOT
ATOM      1  C   UNL     1      -0.795   0.048  -0.343  0.00  0.00    +0.044 C 
ATOM      2  C   UNL     1       0.643  -0.396  -0.268  0.00  0.00    -0.050 A 
ATOM      3  C   UNL     1       0.951  -1.743  -0.218  0.00  0.00    +0.008 A 
ATOM      4  C   UNL     1       2.266  -2.154  -0.155  0.00  0.00    -0.029 A 
ATOM      5  C   UNL     1       3.295  -1.215  -0.141  0.00  0.00    +0.039 A 
ATOM      6  C   UNL     1       2.973   0.138  -0.190  0.00  0.00    -0.027 A 
ATOM      7  C   UNL     1       1.658   0.544  -0.254  0.00  0.00    +0.008 A 
ATOM      8  C   UNL     1       4.282   0.874  -0.159  0.00  0.00    +0.053 C 
ATOM      9  C   UNL     1       4.467   1.749  -1.403  0.00  0.00    +0.089 C 
ATOM     10  C   UNL     1       4.075   3.179  -0.942  0.00  0.00    +0.074 C 
ATOM     11  C   UNL     1       3.692   3.033   0.543  0.00  0.00    -0.054 C 
ATOM     12  C   UNL     1       5.777   2.174   1.228  0.00  0.00    -0.076 C 
ATOM     13  C   UNL     1       5.709   3.597   1.819  0.00  0.00    -0.020 C 
ATOM     14  C   UNL     1       4.354   4.163   1.353  0.00  0.00    -0.016 C 
ATOM     15  C   UNL     1       5.372   3.949  -1.052  0.00  0.00    +0.228 C 
ATOM     16  O   UNL     1       5.516   5.122  -0.783  0.00  0.00    -0.275 OA
ATOM     17  N   UNL     1       6.337   3.134  -1.494  0.00  0.00    -0.210 N 
ATOM     18  C   UNL     1       5.939   1.877  -1.723  0.00  0.00    +0.229 C 
ATOM     19  O   UNL     1       6.649   0.980  -2.125  0.00  0.00    -0.275 OA
ATOM     20  C   UNL     1       5.332  -0.202  -0.087  0.00  0.00    +0.212 C 
ATOM     21  O   UNL     1       6.534  -0.040  -0.043  0.00  0.00    -0.277 OA
ATOM     22  N   UNL     1       4.680  -1.380  -0.082  0.00  0.00    -0.286 N 
ATOM     23  C   UNL     1       2.591  -3.625  -0.101  0.00  0.00    +0.045 C 
ATOM     24  H   UNL     1       5.121  -2.243  -0.041  0.00  0.00    +0.155 HD
ATOM     25  N   UNL     1       4.368   1.824   0.955  0.00  0.00    +0.395 N 
ATOM     26  H   UNL     1       3.930   1.428   1.795  0.00  0.00    -0.079 HD
ENDROOT
BRANCH  17  27
ATOM     27  C   UNL     1       7.656   3.561  -1.698  0.00  0.00    +0.049 A 
ATOM     28  C   UNL     1       8.581   3.480  -0.665  0.00  0.00    +0.024 A 
ATOM     29  C   UNL     1       9.880   3.902  -0.870  0.00  0.00    +0.004 A 
ATOM     30  C   UNL     1      10.260   4.405  -2.101  0.00  0.00    +0.033 A 
ATOM     31  C   UNL     1       9.342   4.486  -3.131  0.00  0.00    +0.131 A 
ATOM     32  C   UNL     1       8.042   4.060  -2.934  0.00  0.00    +0.002 A 
ATOM     33  C   UNL     1       7.043   4.144  -4.059  0.00  0.00    +0.048 C 
BRANCH  31  34
ATOM     34  N   UNL     1       9.752   5.025  -4.447  0.00  0.00    +0.057 N 
ATOM     35  O   UNL     1      10.923   5.285  -4.660  0.00  0.00    -0.126 OA
ATOM     36  O   UNL     1       8.919   5.208  -5.316  0.00  0.00    -0.126 OA
ENDBRANCH  31  34
ENDBRANCH  17  27
TORSDOF 2
