REMARK  Name = ZINC39452058
REMARK  5 active torsions:
REMARK  status: ('A' for Active; 'I' for Inactive)
REMARK    1  A    between atoms: C_1  and  S_2
REMARK    2  A    between atoms: S_2  and  C_3
REMARK    3  A    between atoms: C_16  and  S_19
REMARK    4  A    between atoms: S_19  and  O_22
REMARK    5  A    between atoms: O_22  and  C_23
REMARK                            x       y       z     vdW  Elec       q    Type
REMARK                         _______ _______ _______ _____ _____    ______ ____
ROOT
ATOM      1  C   UNL     1       0.170   0.114   1.696  0.00  0.00    +0.026 A 
ATOM      2  C   UNL     1       0.555  -1.215   1.857  0.00  0.00    +0.031 A 
ATOM      3  C   UNL     1       1.369  -1.531   2.943  0.00  0.00    +0.071 A 
ATOM      4  C   UNL     1       1.769  -0.506   3.829  0.00  0.00    +0.099 A 
ATOM      5  C   UNL     1       2.625  -0.867   4.965  0.00  0.00    +0.086 A 
ATOM      6  C   UNL     1       3.019  -2.182   5.139  0.00  0.00    +0.154 A 
ATOM      7  N   UNL     1       2.609  -3.173   4.253  0.00  0.00    -0.088 N 
ATOM      8  C   UNL     1       1.824  -2.906   3.194  0.00  0.00    +0.297 A 
ATOM      9  O   UNL     1       1.490  -3.804   2.443  0.00  0.00    -0.264 OA
ATOM     10  O   UNL     1       3.033  -4.506   4.474  0.00  0.00    -0.160 OA
ATOM     11  C   UNL     1       3.852  -2.528   6.225  0.00  0.00    +0.188 C 
ATOM     12  O   UNL     1       4.156  -3.690   6.403  0.00  0.00    -0.290 OA
ATOM     13  C   UNL     1       4.368  -1.469   7.164  0.00  0.00    +0.130 C 
ATOM     14  C   UNL     1       3.358  -0.318   7.237  0.00  0.00    +0.263 C 
ATOM     15  N   UNL     1       3.037   0.099   5.864  0.00  0.00    -0.316 N 
ATOM     16  N   UNL     1       1.374   0.746   3.630  0.00  0.00    -0.252 NA
ATOM     17  C   UNL     1       0.611   1.072   2.610  0.00  0.00    +0.126 A 
ATOM     18  H   UNL     1       3.111   1.028   5.596  0.00  0.00    +0.148 HD
ENDROOT
BRANCH  14  19
ATOM     19  S   UNL     1       1.851  -0.879   8.076  0.00  0.00    +0.140 S 
ATOM     20  O   UNL     1       0.990   0.224   8.325  0.00  0.00    -0.135 OA
ATOM     21  O   UNL     1       1.356  -2.058   7.457  0.00  0.00    -0.135 OA
BRANCH  19  22
ATOM     22  O   UNL     1       2.314  -1.329   9.454  0.00  0.00    -0.345 OA
BRANCH  22  23
ATOM     23  C   UNL     1       2.599  -0.306  10.303  0.00  0.00    +0.156 A 
ATOM     24  C   UNL     1       3.888   0.205  10.367  0.00  0.00    +0.048 A 
ATOM     25  C   UNL     1       4.175   1.245  11.230  0.00  0.00    +0.004 A 
ATOM     26  C   UNL     1       3.179   1.776  12.030  0.00  0.00    +0.000 A 
ATOM     27  C   UNL     1       1.895   1.268  11.968  0.00  0.00    +0.004 A 
ATOM     28  C   UNL     1       1.601   0.232  11.102  0.00  0.00    +0.048 A 
ENDBRANCH  22  23
ENDBRANCH  19  22
ENDBRANCH  14  19
BRANCH   1  30
ATOM     29  C   UNL     1      -1.071   2.372   0.554  0.00  0.00    +0.090 C 
ATOM     30  S   UNL     1      -0.858   0.582   0.344  0.00  0.00    -0.127 S 
ENDBRANCH   1  30
TORSDOF 4
