REMARK  Name = ZINC12705403
REMARK  9 active torsions:
REMARK  status: ('A' for Active; 'I' for Inactive)
REMARK    1  A    between atoms: C_4  and  O_18
REMARK    2  A    between atoms: C_5  and  C_7
REMARK    3  A    between atoms: C_7  and  N_63
REMARK    4  A    between atoms: C_8  and  N_63
REMARK    5  A    between atoms: O_18  and  C_19
REMARK    6  A    between atoms: C_19  and  C_20
REMARK    7  A    between atoms: C_20  and  C_22
REMARK    8  A    between atoms: C_20  and  O_28
REMARK    9  A    between atoms: C_22  and  N_66
REMARK                            x       y       z     vdW  Elec       q    Type
REMARK                         _______ _______ _______ _____ _____    ______ ____
ROOT
ATOM      1  C   UNL     1      -3.334   9.176  -0.612  0.00  0.00    +0.000 A 
ATOM      2  C   UNL     1      -2.214   9.882  -1.011  0.00  0.00    +0.004 A 
ATOM      3  C   UNL     1      -1.092   9.207  -1.451  0.00  0.00    +0.046 A 
ATOM      4  C   UNL     1      -1.087   7.820  -1.488  0.00  0.00    +0.122 A 
ATOM      5  C   UNL     1      -2.214   7.115  -1.091  0.00  0.00    -0.023 A 
ATOM      6  C   UNL     1      -3.334   7.794  -0.652  0.00  0.00    +0.005 A 
ENDROOT
BRANCH   5   7
ATOM      7  C   UNL     1      -2.214   5.608  -1.135  0.00  0.00    -0.042 C 
BRANCH   7   8
ATOM      8  N   UNL     1      -1.505   5.091   0.051  0.00  0.00    +0.386 N 
ATOM      9  H   UNL     1      -1.983   5.415   0.900  0.00  0.00    -0.085 HD
ATOM     10  H   UNL     1      -0.539   5.440   0.048  0.00  0.00    -0.085 HD
BRANCH   8  11
ATOM     11  C   UNL     1      -1.490   3.616   0.036  0.00  0.00    -0.067 C 
ATOM     12  C   UNL     1      -0.773   3.123  -1.223  0.00  0.00    -0.009 C 
ATOM     13  C   UNL     1      -0.753   1.593  -1.232  0.00  0.00    -0.012 C 
ATOM     14  C   UNL     1      -0.013   1.086   0.008  0.00  0.00    +0.007 C 
ATOM     15  C   UNL     1      -0.729   1.579   1.267  0.00  0.00    -0.012 C 
ATOM     16  C   UNL     1      -0.750   3.109   1.275  0.00  0.00    -0.009 C 
ATOM     17  C   UNL     1      -2.164   1.050   1.278  0.00  0.00    +0.007 C 
ATOM     18  C   UNL     1      -2.904   1.556   0.038  0.00  0.00    -0.012 C 
ATOM     19  C   UNL     1      -2.188   1.063  -1.221  0.00  0.00    +0.007 C 
ATOM     20  C   UNL     1      -2.925   3.086   0.047  0.00  0.00    -0.009 C 
ENDBRANCH   8  11
ENDBRANCH   7   8
ENDBRANCH   5   7
BRANCH   4  21
ATOM     21  O   UNL     1       0.018   7.154  -1.915  0.00  0.00    -0.489 OA
BRANCH  21  22
ATOM     22  C   UNL     1       1.141   7.946  -2.308  0.00  0.00    +0.258 C 
BRANCH  22  23
ATOM     23  C   UNL     1       2.280   7.028  -2.755  0.00  0.00    +0.135 C 
BRANCH  23  24
ATOM     24  O   UNL     1       1.887   6.320  -3.932  0.00  0.00    -0.390 OA
ATOM     25  H   UNL     1       1.670   6.891  -4.681  0.00  0.00    +0.210 HD
ENDBRANCH  23  24
BRANCH  23  26
ATOM     26  C   UNL     1       3.523   7.868  -3.057  0.00  0.00    -0.044 C 
BRANCH  26  32
ATOM     27  C   UNL     1       5.011   6.075  -2.409  0.00  0.00    -0.068 C 
ATOM     28  C   UNL     1       5.796   4.893  -2.989  0.00  0.00    +0.050 C 
ATOM     29  S   UNL     1       7.299   5.540  -3.785  0.00  0.00    -0.164 S 
ATOM     30  C   UNL     1       6.651   6.862  -4.853  0.00  0.00    +0.050 C 
ATOM     31  C   UNL     1       5.744   7.764  -4.008  0.00  0.00    -0.068 C 
ATOM     32  N   UNL     1       4.596   6.967  -3.515  0.00  0.00    +0.382 N 
ATOM     33  H   UNL     1       4.239   6.391  -4.286  0.00  0.00    -0.082 HD
ENDBRANCH  26  32
ENDBRANCH  23  26
ENDBRANCH  22  23
ENDBRANCH  21  22
ENDBRANCH   4  21
TORSDOF 9
