REMARK  Name = ZINC39625238
REMARK  6 active torsions:
REMARK  status: ('A' for Active; 'I' for Inactive)
REMARK    1  A    between atoms: C_3  and  C_8
REMARK    2  A    between atoms: C_12  and  C_21
REMARK    3  A    between atoms: N_23  and  C_24
REMARK    4  A    between atoms: C_24  and  C_25
REMARK    5  A    between atoms: C_25  and  C_26
REMARK    6  A    between atoms: C_26  and  N_27
REMARK                            x       y       z     vdW  Elec       q    Type
REMARK                         _______ _______ _______ _____ _____    ______ ____
ROOT
ATOM      1  C   UNL     1       3.554   1.949   1.226  0.00  0.00    +0.219 C 
ATOM      2  O   UNL     1       3.884   2.828   0.459  0.00  0.00    -0.275 OA
ATOM      3  N   UNL     1       4.396   1.554   2.201  0.00  0.00    -0.300 N 
ATOM      4  C   UNL     1       4.221   0.431   3.153  0.00  0.00    +0.121 C 
ATOM      5  C   UNL     1       5.627  -0.198   3.278  0.00  0.00    +0.100 C 
ATOM      6  C   UNL     1       6.597   0.932   2.892  0.00  0.00    -0.004 C 
ATOM      7  C   UNL     1       5.710   2.140   2.560  0.00  0.00    +0.115 C 
ATOM      8  C   UNL     1       7.413   0.532   1.667  0.00  0.00    -0.010 C 
ATOM      9  C   UNL     1       8.410   1.646   1.337  0.00  0.00    -0.082 C 
ATOM     10  N   UNL     1       9.294   1.870   2.487  0.00  0.00    +0.379 N 
ATOM     11  C   UNL     1       8.513   2.344   3.636  0.00  0.00    -0.082 C 
ATOM     12  C   UNL     1       7.520   1.258   4.062  0.00  0.00    -0.010 C 
ATOM     13  H   UNL     1       9.755   1.005   2.729  0.00  0.00    -0.086 HD
ATOM     14  H   UNL     1       9.989   2.561   2.247  0.00  0.00    -0.086 HD
ENDROOT
BRANCH   1  17
ATOM     15  C   UNL     1      -0.215   1.698   0.664  0.00  0.00    +0.027 C 
ATOM     16  C   UNL     1       1.175   2.336   0.618  0.00  0.00    +0.017 C 
ATOM     17  C   UNL     1       2.202   1.298   1.088  0.00  0.00    +0.079 C 
ATOM     18  C   UNL     1       2.268   0.177   0.048  0.00  0.00    +0.039 C 
ATOM     19  C   UNL     1       0.886  -0.300  -0.287  0.00  0.00    -0.030 C 
ATOM     20  C   UNL     1      -0.194   0.364  -0.024  0.00  0.00    -0.031 C 
ENDBRANCH   1  17
BRANCH   5  21
ATOM     21  C   UNL     1       5.877  -0.646   4.694  0.00  0.00    +0.218 C 
ATOM     22  O   UNL     1       5.290  -0.113   5.612  0.00  0.00    -0.275 OA
ATOM     23  N   UNL     1       6.752  -1.641   4.942  0.00  0.00    -0.315 N 
ATOM     24  H   UNL     1       7.221  -2.068   4.208  0.00  0.00    +0.149 HD
BRANCH  23  25
ATOM     25  C   UNL     1       6.995  -2.078   6.319  0.00  0.00    +0.105 C 
BRANCH  25  26
ATOM     26  C   UNL     1       8.023  -3.211   6.321  0.00  0.00    +0.034 C 
BRANCH  26  27
ATOM     27  C   UNL     1       8.276  -3.667   7.759  0.00  0.00    +0.086 C 
BRANCH  27  28
ATOM     28  N   UNL     1       9.263  -4.755   7.761  0.00  0.00    -0.298 NA
ATOM     29  C   UNL     1       8.723  -5.957   7.111  0.00  0.00    +0.112 C 
ATOM     30  C   UNL     1       9.802  -7.043   7.082  0.00  0.00    +0.175 C 
ATOM     31  O   UNL     1      10.246  -7.303   8.416  0.00  0.00    -0.377 OA
ATOM     32  C   UNL     1      10.779  -6.154   9.079  0.00  0.00    +0.175 C 
ATOM     33  C   UNL     1       9.710  -5.058   9.129  0.00  0.00    +0.112 C 
ENDBRANCH  27  28
ENDBRANCH  26  27
ENDBRANCH  25  26
ENDBRANCH  23  25
ENDBRANCH   5  21
TORSDOF 6
