REMARK  Name = ZINC39631656
REMARK  12 active torsions:
REMARK  status: ('A' for Active; 'I' for Inactive)
REMARK    1  A    between atoms: C_1  and  C_2
REMARK    2  A    between atoms: C_6  and  C_9
REMARK    3  A    between atoms: C_13  and  C_22
REMARK    4  A    between atoms: N_24  and  C_25
REMARK    5  A    between atoms: C_25  and  C_27
REMARK    6  A    between atoms: C_25  and  C_28
REMARK    7  A    between atoms: C_28  and  C_29
REMARK    8  A    between atoms: C_29  and  C_30
REMARK    9  A    between atoms: C_30  and  C_31
REMARK   10  A    between atoms: C_31  and  C_32
REMARK   11  A    between atoms: C_31  and  C_33
REMARK   12  A    between atoms: C_31  and  O_34
REMARK                            x       y       z     vdW  Elec       q    Type
REMARK                         _______ _______ _______ _____ _____    ______ ____
ROOT
ATOM      1  C   UNL     1      -0.056  -2.661   2.316  0.00  0.00    +0.251 C 
ATOM      2  O   UNL     1       1.040  -2.895   2.786  0.00  0.00    -0.270 OA
ATOM      3  N   UNL     1      -1.167  -3.086   2.950  0.00  0.00    -0.296 N 
ATOM      4  C   UNL     1      -2.577  -2.904   2.532  0.00  0.00    +0.121 C 
ATOM      5  C   UNL     1      -3.264  -4.243   2.883  0.00  0.00    +0.100 C 
ATOM      6  C   UNL     1      -2.392  -4.852   3.994  0.00  0.00    -0.004 C 
ATOM      7  C   UNL     1      -1.253  -3.846   4.220  0.00  0.00    +0.115 C 
ATOM      8  C   UNL     1      -3.208  -5.023   5.272  0.00  0.00    -0.010 C 
ATOM      9  C   UNL     1      -2.336  -5.684   6.344  0.00  0.00    -0.082 C 
ATOM     10  N   UNL     1      -1.866  -6.988   5.861  0.00  0.00    +0.379 N 
ATOM     11  C   UNL     1      -1.006  -6.806   4.686  0.00  0.00    -0.082 C 
ATOM     12  C   UNL     1      -1.822  -6.193   3.543  0.00  0.00    -0.010 C 
ATOM     13  H   UNL     1      -1.343  -7.447   6.591  0.00  0.00    -0.086 HD
ATOM     14  H   UNL     1      -2.660  -7.558   5.610  0.00  0.00    -0.086 HD
ENDROOT
BRANCH   1  20
ATOM     15  C   UNL     1      -0.484   1.681  -0.113  0.00  0.00    +0.047 C 
ATOM     16  C   UNL     1      -0.377   0.178  -0.126  0.00  0.00    -0.014 A 
ATOM     17  C   UNL     1      -0.386  -0.504  -1.329  0.00  0.00    +0.007 A 
ATOM     18  C   UNL     1      -0.289  -1.883  -1.352  0.00  0.00    +0.021 A 
ATOM     19  C   UNL     1      -0.181  -2.592  -0.172  0.00  0.00    +0.056 A 
ATOM     20  C   UNL     1      -0.171  -1.911   1.049  0.00  0.00    +0.091 A 
ATOM     21  C   UNL     1      -0.264  -0.516   1.064  0.00  0.00    +0.140 A 
ATOM     22  F   UNL     1      -0.250   0.152   2.239  0.00  0.00    -0.204 F 
ATOM     23 CL   UNL     1      -0.060  -4.323  -0.204  0.00  0.00    -0.083 Cl
ENDBRANCH   1  20
BRANCH   5  24
ATOM     24  C   UNL     1      -3.292  -5.149   1.680  0.00  0.00    +0.218 C 
ATOM     25  O   UNL     1      -2.423  -5.067   0.838  0.00  0.00    -0.275 OA
ATOM     26  N   UNL     1      -4.283  -6.051   1.538  0.00  0.00    -0.312 N 
ATOM     27  H   UNL     1      -4.979  -6.117   2.212  0.00  0.00    +0.149 HD
BRANCH  26  28
ATOM     28  C   UNL     1      -4.311  -6.933   0.368  0.00  0.00    +0.070 C 
ATOM     29  C   UNL     1      -4.998  -6.214  -0.795  0.00  0.00    +0.028 C 
BRANCH  28  30
ATOM     30  C   UNL     1      -5.085  -8.208   0.708  0.00  0.00    +0.022 C 
BRANCH  30  31
ATOM     31  C   UNL     1      -4.331  -8.990   1.786  0.00  0.00    +0.005 C 
BRANCH  31  32
ATOM     32  C   UNL     1      -5.105 -10.265   2.126  0.00  0.00    +0.034 C 
BRANCH  32  33
ATOM     33  C   UNL     1      -4.351 -11.047   3.204  0.00  0.00    +0.061 C 
ATOM     34  C   UNL     1      -5.058 -12.380   3.455  0.00  0.00    +0.041 C 
ATOM     35  C   UNL     1      -2.919 -11.309   2.736  0.00  0.00    +0.041 C 
BRANCH  33  36
ATOM     36  O   UNL     1      -4.325 -10.287   4.414  0.00  0.00    -0.389 OA
ATOM     37  H   UNL     1      -5.202 -10.083   4.769  0.00  0.00    +0.210 HD
ENDBRANCH  33  36
ENDBRANCH  32  33
ENDBRANCH  31  32
ENDBRANCH  30  31
ENDBRANCH  28  30
ENDBRANCH  26  28
ENDBRANCH   5  24
TORSDOF 8
