REMARK  Name = ZINC21874256
REMARK  9 active torsions:
REMARK  status: ('A' for Active; 'I' for Inactive)
REMARK    1  A    between atoms: C_1  and  C_2
REMARK    2  A    between atoms: C_5  and  C_8
REMARK    3  A    between atoms: C_8  and  C_9
REMARK    4  A    between atoms: C_9  and  N_10
REMARK    5  A    between atoms: C_11  and  C_13
REMARK    6  A    between atoms: C_19  and  C_24
REMARK    7  A    between atoms: C_19  and  C_25
REMARK    8  A    between atoms: N_20  and  C_23
REMARK    9  A    between atoms: N_27  and  C_28
REMARK                            x       y       z     vdW  Elec       q    Type
REMARK                         _______ _______ _______ _____ _____    ______ ____
ROOT
ATOM      1  C   UNL     1       0.031  -0.152  -0.322  0.00  0.00    +0.148 A 
ATOM      2  C   UNL     1       0.014   1.236  -0.056  0.00  0.00    +0.067 A 
ATOM      3  C   UNL     1       1.315   1.606  -0.021  0.00  0.00    +0.124 A 
ATOM      4  N   UNL     1       2.072   0.477  -0.259  0.00  0.00    -0.256 N 
ATOM      5  N   UNL     1       1.297  -0.522  -0.428  0.00  0.00    -0.166 NA
ATOM      6  C   UNL     1       3.538   0.542  -0.288  0.00  0.00    +0.179 C 
ATOM      7  C   UNL     1       3.971   1.924  -0.774  0.00  0.00    +0.130 C 
ATOM      8  N   UNL     1       3.266   3.006  -0.097  0.00  0.00    -0.284 N 
ATOM      9  C   UNL     1       1.950   2.914   0.214  0.00  0.00    +0.265 C 
ATOM     10  O   UNL     1       1.328   3.858   0.662  0.00  0.00    -0.268 OA
ATOM     11  C   UNL     1       3.999   4.225   0.255  0.00  0.00    +0.133 C 
ATOM     12  C   UNL     1       3.704   2.025  -2.277  0.00  0.00    +0.044 C 
ENDROOT
BRANCH   1  14
ATOM     13  N   UNL     1      -0.987  -2.343  -0.714  0.00  0.00    -0.310 N 
ATOM     14  C   UNL     1      -1.150  -1.029  -0.458  0.00  0.00    +0.264 C 
ATOM     15  O   UNL     1      -2.268  -0.567  -0.340  0.00  0.00    -0.268 OA
ATOM     16  H   UNL     1       0.024  -2.761  -0.822  0.00  0.00    +0.149 HD
BRANCH  13  17
ATOM     17  C   UNL     1      -2.158  -3.213  -0.849  0.00  0.00    +0.109 C 
BRANCH  17  18
ATOM     18  C   UNL     1      -1.700  -4.644  -1.135  0.00  0.00    +0.054 C 
BRANCH  18  23
ATOM     19  C   UNL     1      -6.317  -8.077  -1.668  0.00  0.00    +0.044 C 
ATOM     20  C   UNL     1      -5.113  -7.182  -1.529  0.00  0.00    -0.050 A 
ATOM     21  C   UNL     1      -4.593  -6.546  -2.640  0.00  0.00    +0.003 A 
ATOM     22  C   UNL     1      -3.488  -5.725  -2.513  0.00  0.00    +0.004 A 
ATOM     23  C   UNL     1      -2.904  -5.539  -1.274  0.00  0.00    -0.046 A 
ATOM     24  C   UNL     1      -3.421  -6.179  -0.163  0.00  0.00    +0.004 A 
ATOM     25  C   UNL     1      -4.529  -6.997  -0.290  0.00  0.00    +0.003 A 
ENDBRANCH  18  23
ENDBRANCH  17  18
ENDBRANCH  13  17
ENDBRANCH   1  14
BRANCH   7  26
ATOM     26  C   UNL     1       5.450   2.084  -0.532  0.00  0.00    +0.238 C 
ATOM     27  O   UNL     1       6.228   2.009  -1.460  0.00  0.00    -0.273 OA
ATOM     28  N   UNL     1       5.908   2.310   0.715  0.00  0.00    -0.311 N 
ATOM     29  H   UNL     1       5.213   2.296   1.567  0.00  0.00    +0.149 HD
BRANCH  28  30
ATOM     30  C   UNL     1       7.332   2.576   0.935  0.00  0.00    +0.073 C 
ATOM     31  C   UNL     1       8.096   1.247   1.113  0.00  0.00    +0.022 C 
ATOM     32  C   UNL     1       9.161   1.564   2.192  0.00  0.00    +0.002 C 
ATOM     33  C   UNL     1       8.398   2.500   3.163  0.00  0.00    +0.002 C 
ATOM     34  C   UNL     1       7.524   3.372   2.238  0.00  0.00    +0.022 C 
ENDBRANCH  28  30
ENDBRANCH   7  26
TORSDOF 6
