REMARK  Name = ZINC40735081
REMARK  8 active torsions:
REMARK  status: ('A' for Active; 'I' for Inactive)
REMARK    1  A    between atoms: C_1  and  C_2
REMARK    2  A    between atoms: C_7  and  C_8
REMARK    3  A    between atoms: N_10  and  N_11
REMARK    4  A    between atoms: C_13  and  N_30
REMARK    5  A    between atoms: C_14  and  N_18
REMARK    6  A    between atoms: C_20  and  C_29
REMARK    7  A    between atoms: C_25  and  C_27
REMARK    8  A    between atoms: C_25  and  C_28
REMARK                            x       y       z     vdW  Elec       q    Type
REMARK                         _______ _______ _______ _____ _____    ______ ____
ROOT
ATOM      1  N   UNL     1       1.551   0.205   4.962  0.00  0.00    -0.247 N 
ATOM      2  C   UNL     1       1.288  -0.579   6.079  0.00  0.00    +0.161 A 
ATOM      3  C   UNL     1       0.866   0.008   7.274  0.00  0.00    +0.107 A 
ATOM      4  C   UNL     1       0.615  -0.826   8.365  0.00  0.00    +0.148 A 
ATOM      5  N   UNL     1       0.786  -2.138   8.226  0.00  0.00    -0.219 NA
ATOM      6  C   UNL     1       1.186  -2.652   7.081  0.00  0.00    +0.225 A 
ATOM      7  N   UNL     1       1.429  -1.901   6.025  0.00  0.00    -0.217 NA
ATOM      8  H   UNL     1       1.446   1.168   5.010  0.00  0.00    +0.172 HD
ENDROOT
BRANCH   4   9
ATOM      9  N   UNL     1       0.193  -0.293   9.578  0.00  0.00    -0.310 N 
ATOM     10  C   UNL     1       0.086   1.139   9.898  0.00  0.00    +0.113 C 
ATOM     11  C   UNL     1      -0.371   1.222  11.373  0.00  0.00    -0.014 C 
ATOM     12  C   UNL     1      -1.162  -0.102  11.548  0.00  0.00    +0.030 C 
ATOM     13  C   UNL     1      -0.236  -1.063  10.762  0.00  0.00    +0.076 C 
ATOM     14  C   UNL     1       0.978  -1.344  11.643  0.00  0.00    +0.029 C 
ATOM     15  C   UNL     1       1.706  -0.095  12.107  0.00  0.00    -0.033 C 
ATOM     16  C   UNL     1       0.856   1.149  12.278  0.00  0.00    +0.014 C 
ATOM     17  C   UNL     1       2.880   0.200  11.160  0.00  0.00    +0.011 C 
ATOM     18  C   UNL     1       2.329  -0.417  13.488  0.00  0.00    +0.011 C 
ATOM     19  C   UNL     1      -1.237   2.462  11.646  0.00  0.00    +0.013 C 
ENDBRANCH   4   9
BRANCH   1  22
ATOM     20  C   UNL     1       2.224   0.364   2.684  0.00  0.00    +0.260 C 
ATOM     21  O   UNL     1       2.092   1.571   2.744  0.00  0.00    -0.269 OA
ATOM     22  N   UNL     1       1.969  -0.396   3.767  0.00  0.00    -0.231 N 
ATOM     23  H   UNL     1       2.074  -1.359   3.720  0.00  0.00    +0.173 HD
BRANCH  20  30
ATOM     24  C   UNL     1       2.459   1.963   0.284  0.00  0.00    +0.044 C 
ATOM     25  C   UNL     1       2.782   0.491   0.260  0.00  0.00    -0.038 A 
ATOM     26  C   UNL     1       3.199  -0.105  -0.912  0.00  0.00    +0.004 A 
ATOM     27  C   UNL     1       3.496  -1.456  -0.937  0.00  0.00    +0.000 A 
ATOM     28  C   UNL     1       3.376  -2.218   0.212  0.00  0.00    +0.001 A 
ATOM     29  C   UNL     1       2.959  -1.634   1.390  0.00  0.00    +0.013 A 
ATOM     30  C   UNL     1       2.664  -0.270   1.423  0.00  0.00    +0.041 A 
ENDBRANCH  20  30
ENDBRANCH   1  22
BRANCH   3  31
ATOM     31  N   UNL     1       0.699   1.399   7.375  0.00  0.00    -0.353 N 
ATOM     32  H   UNL     1       0.439   1.914   6.595  0.00  0.00    +0.143 HD
ATOM     33  H   UNL     1       0.844   1.844   8.224  0.00  0.00    +0.143 HD
ENDBRANCH   3  31
TORSDOF 4
