REMARK  Name = ZINC14609002
REMARK  4 active torsions:
REMARK  status: ('A' for Active; 'I' for Inactive)
REMARK    1  A    between atoms: C_4  and  N_7
REMARK    2  A    between atoms: N_7  and  C_8
REMARK    3  A    between atoms: C_8  and  C_9
REMARK    4  A    between atoms: C_17  and  C_19
REMARK                            x       y       z     vdW  Elec       q    Type
REMARK                         _______ _______ _______ _____ _____    ______ ____
ROOT
ATOM      1  C   UNL     1       5.069  -2.595  -0.061  0.00  0.00    +0.067 A 
ATOM      2  C   UNL     1       5.562  -3.297   1.002  0.00  0.00    +0.097 A 
ATOM      3  C   UNL     1       6.898  -3.737   0.966  0.00  0.00    +0.276 A 
ATOM      4  O   UNL     1       7.371  -4.367   1.897  0.00  0.00    -0.266 OA
ATOM      5  N   UNL     1       7.643  -3.449  -0.117  0.00  0.00    -0.159 N 
ATOM      6  C   UNL     1       7.103  -2.742  -1.159  0.00  0.00    +0.257 A 
ATOM      7  N   UNL     1       5.840  -2.338  -1.112  0.00  0.00    -0.214 NA
ATOM      8  N   UNL     1       8.053  -2.597  -2.097  0.00  0.00    -0.189 NA
ATOM      9  C   UNL     1       9.169  -3.176  -1.705  0.00  0.00    +0.184 A 
ATOM     10  N   UNL     1       8.971  -3.728  -0.467  0.00  0.00    -0.140 NA
ENDROOT
BRANCH   9  11
ATOM     11  C   UNL     1      10.428  -3.221  -2.474  0.00  0.00    +0.021 A 
ATOM     12  C   UNL     1      11.547  -3.875  -1.950  0.00  0.00    +0.013 A 
ATOM     13  C   UNL     1      12.720  -3.914  -2.673  0.00  0.00    +0.021 A 
ATOM     14  C   UNL     1      12.791  -3.307  -3.917  0.00  0.00    +0.041 A 
ATOM     15  C   UNL     1      11.686  -2.657  -4.441  0.00  0.00    +0.021 A 
ATOM     16  C   UNL     1      10.505  -2.616  -3.731  0.00  0.00    +0.013 A 
ATOM     17 CL   UNL     1      14.273  -3.360  -4.820  0.00  0.00    -0.084 Cl
ENDBRANCH   9  11
BRANCH   1  18
ATOM     18  C   UNL     1       3.641  -2.114  -0.044  0.00  0.00    +0.157 C 
BRANCH  18  19
ATOM     19  N   UNL     1       3.620  -0.649  -0.036  0.00  0.00    -0.338 N 
ATOM     20  H   UNL     1       4.452  -0.152  -0.042  0.00  0.00    +0.146 HD
BRANCH  19  24
ATOM     21  C   UNL     1      -0.017   1.379   0.010  0.00  0.00    +0.000 A 
ATOM     22  C   UNL     1       1.169   2.089   0.002  0.00  0.00    +0.002 A 
ATOM     23  C   UNL     1       2.377   1.420  -0.013  0.00  0.00    +0.023 A 
ATOM     24  C   UNL     1       2.400   0.031  -0.021  0.00  0.00    +0.027 A 
ATOM     25  C   UNL     1       1.206  -0.680  -0.013  0.00  0.00    +0.023 A 
ATOM     26  C   UNL     1       0.002  -0.004   0.002  0.00  0.00    +0.002 A 
ENDBRANCH  19  24
ENDBRANCH  18  19
ENDBRANCH   1  18
TORSDOF 4
