REMARK  Name = ZINC08986633
REMARK  8 active torsions:
REMARK  status: ('A' for Active; 'I' for Inactive)
REMARK    1  A    between atoms: C_1  and  C_2
REMARK    2  A    between atoms: C_5  and  C_7
REMARK    3  A    between atoms: C_7  and  N_8
REMARK    4  A    between atoms: C_9  and  N_28
REMARK    5  A    between atoms: C_10  and  C_13
REMARK    6  A    between atoms: C_13  and  C_14
REMARK    7  A    between atoms: C_13  and  C_23
REMARK    8  A    between atoms: C_13  and  O_27
REMARK                            x       y       z     vdW  Elec       q    Type
REMARK                         _______ _______ _______ _____ _____    ______ ____
ROOT
ATOM      1  C   UNL     1       1.544   7.294  -0.048  0.00  0.00    +0.239 C 
ENDROOT
BRANCH   1   2
ATOM      2  C   UNL     1       0.973   7.648   1.301  0.00  0.00    +0.125 A 
ATOM      3  N   UNL     1       0.896   8.821   1.864  0.00  0.00    -0.240 NA
ATOM      4  C   UNL     1       0.357   9.004   3.087  0.00  0.00    +0.079 A 
ATOM      5  C   UNL     1       0.203  10.200   3.823  0.00  0.00    +0.029 A 
ATOM      6  C   UNL     1      -0.376  10.189   5.054  0.00  0.00    +0.002 A 
ATOM      7  C   UNL     1      -0.824   9.011   5.637  0.00  0.00    +0.001 A 
ATOM      8  C   UNL     1      -0.691   7.820   4.949  0.00  0.00    +0.017 A 
ATOM      9  C   UNL     1      -0.113   7.822   3.703  0.00  0.00    +0.039 A 
ATOM     10  S   UNL     1       0.261   6.591   2.480  0.00  0.00    -0.069 S 
ENDBRANCH   1   2
BRANCH   1  13
ATOM     11  N   UNL     1      -0.827   8.760  -2.409  0.00  0.00    -0.243 N 
ATOM     12  C   UNL     1      -0.548   7.942  -1.369  0.00  0.00    +0.122 A 
ATOM     13  C   UNL     1       0.788   8.032  -1.123  0.00  0.00    +0.058 A 
ATOM     14  C   UNL     1       1.334   8.925  -2.048  0.00  0.00    +0.143 A 
ATOM     15  N   UNL     1       0.370   9.361  -2.818  0.00  0.00    -0.177 NA
BRANCH  12  16
ATOM     16  N   UNL     1      -1.462   7.154  -0.674  0.00  0.00    -0.343 N 
ATOM     17  H   UNL     1      -1.178   6.662   0.113  0.00  0.00    +0.144 HD
ATOM     18  H   UNL     1      -2.381   7.096  -0.977  0.00  0.00    +0.144 HD
ENDBRANCH  12  16
BRANCH  11  19
ATOM     19  C   UNL     1      -2.148   8.975  -3.007  0.00  0.00    +0.219 C 
BRANCH  19  24
ATOM     20  C   UNL     1      -2.188   6.849  -7.581  0.00  0.00    +0.086 C 
ATOM     21  C   UNL     1      -2.385   7.049  -6.101  0.00  0.00    +0.102 A 
ATOM     22  C   UNL     1      -2.932   6.160  -5.253  0.00  0.00    +0.045 A 
ATOM     23  C   UNL     1      -2.921   6.755  -3.970  0.00  0.00    +0.047 A 
ATOM     24  C   UNL     1      -2.368   7.973  -4.112  0.00  0.00    +0.127 A 
ATOM     25  O   UNL     1      -2.051   8.148  -5.405  0.00  0.00    -0.463 OA
ENDBRANCH  19  24
ENDBRANCH  11  19
ENDBRANCH   1  13
BRANCH   1  26
ATOM     26  C   UNL     1       3.020   7.693  -0.098  0.00  0.00    +0.429 C 
ATOM     27  F   UNL     1       3.718   7.028   0.916  0.00  0.00    -0.167 F 
ATOM     28  F   UNL     1       3.557   7.341  -1.341  0.00  0.00    -0.167 F 
ATOM     29  F   UNL     1       3.136   9.075   0.086  0.00  0.00    -0.167 F 
ENDBRANCH   1  26
BRANCH   1  30
ATOM     30  O   UNL     1       1.424   5.886  -0.262  0.00  0.00    -0.370 OA
ATOM     31  H   UNL     1       0.513   5.562  -0.243  0.00  0.00    +0.211 HD
ENDBRANCH   1  30
TORSDOF 7
