REMARK  Name = ZINC39467481
REMARK  7 active torsions:
REMARK  status: ('A' for Active; 'I' for Inactive)
REMARK    1  A    between atoms: C_1  and  C_2
REMARK    2  A    between atoms: C_2  and  O_3
REMARK    3  A    between atoms: O_3  and  C_4
REMARK    4  A    between atoms: P_13  and  C_24
REMARK    5  A    between atoms: C_21  and  O_22
REMARK    6  A    between atoms: O_22  and  C_23
REMARK    7  A    between atoms: C_29  and  O_30
REMARK                            x       y       z     vdW  Elec       q    Type
REMARK                         _______ _______ _______ _____ _____    ______ ____
ROOT
ATOM      1  C   UNL     1       0.777  -1.810  -1.336  0.00  0.00    +0.158 C 
ATOM      2  C   UNL     1       0.264  -2.638  -0.424  0.00  0.00    +0.026 C 
ATOM      3  C   UNL     1       0.380  -4.131  -0.624  0.00  0.00    +0.019 C 
ATOM      4  C   UNL     1       1.774  -4.577  -0.181  0.00  0.00    -0.002 C 
ATOM      5  C   UNL     1       1.986  -6.064  -0.489  0.00  0.00    -0.020 C 
ATOM      6  C   UNL     1       3.403  -6.424  -0.021  0.00  0.00    +0.157 C 
ATOM      7  O   UNL     1       3.640  -7.826  -0.237  0.00  0.00    -0.316 OA
ATOM      8  P   UNL     1       3.310  -8.429  -1.712  0.00  0.00    +0.291 P 
ATOM      9  O   UNL     1       3.083  -9.889  -1.631  0.00  0.00    -0.269 OA
ATOM     10  N   UNL     1       1.931  -7.662  -2.194  0.00  0.00    -0.288 NA
ATOM     11  N   UNL     1       1.821  -6.314  -1.923  0.00  0.00    +0.398 N 
ATOM     12  C   UNL     1       0.470  -5.924  -2.358  0.00  0.00    -0.046 C 
ATOM     13  C   UNL     1       0.201  -4.444  -2.113  0.00  0.00    +0.008 C 
ATOM     14  C   UNL     1       1.167  -3.616  -2.918  0.00  0.00    +0.025 C 
ATOM     15  C   UNL     1       1.456  -2.364  -2.528  0.00  0.00    +0.158 C 
ATOM     16  H   UNL     1       1.225  -8.142  -2.654  0.00  0.00    +0.111 HD
ATOM     17  H   UNL     1       2.519  -5.801  -2.440  0.00  0.00    -0.055 HD
ENDROOT
BRANCH   8  18
ATOM     18  C   UNL     1       4.669  -8.067  -2.858  0.00  0.00    +0.091 A 
ATOM     19  C   UNL     1       4.661  -6.897  -3.593  0.00  0.00    +0.018 A 
ATOM     20  C   UNL     1       5.696  -6.622  -4.467  0.00  0.00    +0.001 A 
ATOM     21  C   UNL     1       6.742  -7.515  -4.607  0.00  0.00    +0.004 A 
ATOM     22  C   UNL     1       6.755  -8.686  -3.874  0.00  0.00    +0.046 A 
ATOM     23  C   UNL     1       5.720  -8.963  -2.993  0.00  0.00    +0.131 A 
BRANCH  23  24
ATOM     24  O   UNL     1       5.733 -10.111  -2.267  0.00  0.00    -0.506 OA
ATOM     25  H   UNL     1       5.301 -10.858  -2.704  0.00  0.00    +0.292 HD
ENDBRANCH  23  24
ENDBRANCH   8  18
BRANCH  15  26
ATOM     26  O   UNL     1       2.340  -1.606  -3.228  0.00  0.00    -0.492 OA
ATOM     27  C   UNL     1       2.955  -2.212  -4.367  0.00  0.00    +0.277 C 
ENDBRANCH  15  26
BRANCH   1  28
ATOM     28  O   UNL     1       0.671  -0.465  -1.174  0.00  0.00    -0.489 OA
BRANCH  28  30
ATOM     29  C   UNL     1      -0.019   1.526   0.010  0.00  0.00    +0.048 C 
ATOM     30  C   UNL     1       0.002  -0.004   0.002  0.00  0.00    +0.226 C 
ENDBRANCH  28  30
ENDBRANCH   1  28
TORSDOF 5
