REMARK  Name = ZINC20600755
REMARK  5 active torsions:
REMARK  status: ('A' for Active; 'I' for Inactive)
REMARK    1  A    between atoms: N_10  and  C_13
REMARK    2  A    between atoms: N_17  and  C_22
REMARK    3  A    between atoms: C_19  and  O_21
REMARK    4  A    between atoms: C_22  and  C_23
REMARK    5  A    between atoms: C_26  and  N_29
REMARK                            x       y       z     vdW  Elec       q    Type
REMARK                         _______ _______ _______ _____ _____    ______ ____
ROOT
ATOM      1  C   UNL     1      -5.024  -2.240  -1.016  0.00  0.00    +0.082 C 
ATOM      2  C   UNL     1      -5.123  -3.062   0.272  0.00  0.00    +0.003 C 
ATOM      3  C   UNL     1      -6.404  -3.898   0.241  0.00  0.00    -0.077 C 
ATOM      4  N   UNL     1      -6.381  -4.787  -0.927  0.00  0.00    +0.384 N 
ATOM      5  C   UNL     1      -6.334  -4.020  -2.178  0.00  0.00    -0.045 C 
ATOM      6  C   UNL     1      -5.051  -3.187  -2.219  0.00  0.00    +0.115 C 
ATOM      7  H   UNL     1      -5.464  -5.392  -0.870  0.00  0.00    -0.081 HD
ENDROOT
BRANCH   1  17
ATOM      8  C   UNL     1       2.319   0.139   0.022  0.00  0.00    +0.005 A 
ATOM      9  C   UNL     1       2.240   1.525   0.028  0.00  0.00    +0.018 A 
ATOM     10  C   UNL     1       1.000   2.132   0.035  0.00  0.00    +0.084 A 
ATOM     11  N   UNL     1      -0.106   1.411   0.038  0.00  0.00    -0.350 N 
ATOM     12  C   UNL     1      -0.072   0.087   0.032  0.00  0.00    +0.099 A 
ATOM     13  C   UNL     1       1.144  -0.590   0.024  0.00  0.00    +0.042 A 
ATOM     14  N   UNL     1      -1.261  -0.632   0.034  0.00  0.00    -0.314 N 
ATOM     15  C   UNL     1      -1.321  -1.553  -1.109  0.00  0.00    +0.122 C 
ATOM     16  C   UNL     1      -2.606  -2.381  -1.027  0.00  0.00    +0.103 C 
ATOM     17  N   UNL     1      -3.767  -1.480  -1.018  0.00  0.00    -0.294 NA
ATOM     18  C   UNL     1      -3.707  -0.559   0.125  0.00  0.00    +0.103 C 
ATOM     19  C   UNL     1      -2.422   0.269   0.043  0.00  0.00    +0.122 C 
ATOM     20  H   UNL     1      -1.087   1.909   0.044  0.00  0.00    +0.166 HD
ENDBRANCH   1  17
BRANCH   6  21
ATOM     21  O   UNL     1      -5.014  -2.425  -3.427  0.00  0.00    -0.392 OA
ATOM     22  H   UNL     1      -5.027  -2.937  -4.401  0.00  0.00    +0.210 HD
ENDBRANCH   6  21
BRANCH   4  23
ATOM     23  C   UNL     1      -7.530  -5.703  -0.913  0.00  0.00    -0.043 C 
BRANCH  23  24
ATOM     24  C   UNL     1      -7.690  -6.288   0.466  0.00  0.00    -0.064 A 
ATOM     25  C   UNL     1      -7.047  -7.468   0.793  0.00  0.00    +0.003 A 
ATOM     26  C   UNL     1      -7.188  -8.005   2.058  0.00  0.00    +0.024 A 
ATOM     27  C   UNL     1      -7.984  -7.364   2.998  0.00  0.00    +0.038 A 
ATOM     28  C   UNL     1      -8.633  -6.182   2.664  0.00  0.00    +0.024 A 
ATOM     29  C   UNL     1      -8.484  -5.648   1.399  0.00  0.00    +0.003 A 
BRANCH  27  30
ATOM     30  N   UNL     1      -8.134  -7.908   4.279  0.00  0.00    -0.254 N 
ATOM     31  C   UNL     1      -8.847  -7.272   5.397  0.00  0.00    +0.134 C 
ATOM     32  C   UNL     1      -8.706  -8.287   6.549  0.00  0.00    +0.125 C 
ATOM     33  N   UNL     1      -7.929  -9.386   5.957  0.00  0.00    -0.297 N 
ATOM     34  C   UNL     1      -7.655  -9.093   4.679  0.00  0.00    +0.307 C 
ATOM     35  O   UNL     1      -7.026  -9.835   3.949  0.00  0.00    -0.252 OA
ATOM     36  H   UNL     1      -7.669 -10.265   6.565  0.00  0.00    +0.150 HD
ENDBRANCH  27  30
ENDBRANCH  23  24
ENDBRANCH   4  23
TORSDOF 5
