REMARK  Name = ZINC46877248
REMARK  4 active torsions:
REMARK  status: ('A' for Active; 'I' for Inactive)
REMARK    1  A    between atoms: C_1  and  C_2
REMARK    2  A    between atoms: N_10  and  C_23
REMARK    3  A    between atoms: C_11  and  S_13
REMARK    4  A    between atoms: S_13  and  C_14
REMARK                            x       y       z     vdW  Elec       q    Type
REMARK                         _______ _______ _______ _____ _____    ______ ____
ROOT
ATOM      1  C   UNL     1      -0.018   1.503   0.010  0.00  0.00    +0.044 C 
ATOM      2  C   UNL     1       0.002  -0.004   0.002  0.00  0.00    -0.050 A 
ATOM      3  C   UNL     1       0.006  -0.684  -1.209  0.00  0.00    +0.005 A 
ATOM      4  C   UNL     1       0.024  -2.050  -1.248  0.00  0.00    +0.029 A 
ATOM      5  C   UNL     1       0.039  -2.776  -0.054  0.00  0.00    +0.079 A 
ATOM      6  C   UNL     1       0.036  -2.081   1.176  0.00  0.00    +0.065 A 
ATOM      7  C   UNL     1       0.023  -0.687   1.187  0.00  0.00    +0.018 A 
ATOM      8  C   UNL     1       0.053  -2.866   2.418  0.00  0.00    +0.262 A 
ATOM      9  O   UNL     1       0.051  -2.325   3.508  0.00  0.00    -0.267 OA
ATOM     10  N   UNL     1       0.071  -4.215   2.304  0.00  0.00    -0.290 N 
ATOM     11  C   UNL     1       0.072  -4.805   1.072  0.00  0.00    +0.173 A 
ATOM     12  N   UNL     1       0.057  -4.125  -0.047  0.00  0.00    -0.223 NA
ATOM     13  C   UNL     1       0.089  -5.046   3.510  0.00  0.00    +0.154 C 
ENDROOT
BRANCH  11  14
ATOM     14  S   UNL     1       0.097  -6.565   0.985  0.00  0.00    -0.075 S 
BRANCH  14  15
ATOM     15  C   UNL     1       0.092  -6.916  -0.795  0.00  0.00    +0.140 C 
ATOM     16  C   UNL     1      -0.004  -8.427  -1.021  0.00  0.00    +0.024 C 
ATOM     17  C   UNL     1       0.748  -9.181   0.061  0.00  0.00    +0.003 C 
ATOM     18  C   UNL     1       2.251  -8.972   0.022  0.00  0.00    +0.019 C 
ATOM     19  C   UNL     1       2.610  -7.527   0.372  0.00  0.00    +0.104 C 
ATOM     20  N   UNL     1       2.554  -6.717  -0.855  0.00  0.00    -0.314 N 
ATOM     21  C   UNL     1       1.379  -6.414  -1.416  0.00  0.00    +0.226 C 
ATOM     22  O   UNL     1       1.341  -5.742  -2.425  0.00  0.00    -0.275 OA
ATOM     23  H   UNL     1       3.376  -6.398  -1.260  0.00  0.00    +0.149 HD
ENDBRANCH  14  15
ENDBRANCH  11  14
TORSDOF 2
