REMARK  Name = ZINC55597797
REMARK  4 active torsions:
REMARK  status: ('A' for Active; 'I' for Inactive)
REMARK    1  A    between atoms: C_3  and  N_13
REMARK    2  A    between atoms: C_5  and  N_7
REMARK    3  A    between atoms: N_13  and  S_14
REMARK    4  A    between atoms: S_14  and  C_17
REMARK                            x       y       z     vdW  Elec       q    Type
REMARK                         _______ _______ _______ _____ _____    ______ ____
ROOT
ATOM      1  C   UNL     1      -0.017   1.377  -0.006  0.00  0.00    +0.004 A 
ATOM      2  C   UNL     1       1.169   2.087   0.002  0.00  0.00    +0.027 A 
ATOM      3  C   UNL     1       2.384   1.413   0.002  0.00  0.00    +0.076 A 
ATOM      4  C   UNL     1       2.406   0.025  -0.005  0.00  0.00    +0.050 A 
ATOM      5  C   UNL     1       1.214  -0.684  -0.013  0.00  0.00    +0.040 A 
ATOM      6  C   UNL     1       0.002  -0.004  -0.014  0.00  0.00    +0.024 A 
ENDROOT
BRANCH   5   7
ATOM      7  N   UNL     1       1.232  -2.083  -0.021  0.00  0.00    -0.254 N 
ATOM      8  C   UNL     1       0.049  -2.951   0.084  0.00  0.00    +0.134 C 
ATOM      9  C   UNL     1       0.631  -4.377   0.023  0.00  0.00    +0.125 C 
ATOM     10  N   UNL     1       2.079  -4.161  -0.109  0.00  0.00    -0.297 N 
ATOM     11  C   UNL     1       2.328  -2.845  -0.131  0.00  0.00    +0.307 C 
ATOM     12  O   UNL     1       3.448  -2.383  -0.238  0.00  0.00    -0.252 OA
ATOM     13  H   UNL     1       2.748  -4.860  -0.173  0.00  0.00    +0.150 HD
ENDBRANCH   5   7
BRANCH   3  14
ATOM     14  N   UNL     1       3.582   2.131   0.010  0.00  0.00    -0.098 NA
BRANCH  14  15
ATOM     15  S   UNL     1       3.554   3.787   0.018  0.00  0.00    +0.092 S 
ATOM     16  O   UNL     1       3.001   4.191  -1.227  0.00  0.00    -0.148 OA
ATOM     17  O   UNL     1       2.993   4.178   1.264  0.00  0.00    -0.148 OA
BRANCH  15  18
ATOM     18  C   UNL     1       5.229   4.336   0.027  0.00  0.00    +0.113 A 
ATOM     19  C   UNL     1       5.883   4.539   1.227  0.00  0.00    +0.049 A 
ATOM     20  C   UNL     1       7.198   4.971   1.234  0.00  0.00    +0.044 A 
ATOM     21  C   UNL     1       7.857   5.198   0.040  0.00  0.00    +0.040 A 
ATOM     22  C   UNL     1       7.202   4.993  -1.161  0.00  0.00    +0.044 A 
ATOM     23  C   UNL     1       5.889   4.557  -1.167  0.00  0.00    +0.049 A 
ATOM     24 CL   UNL     1       8.029   5.279  -2.661  0.00  0.00    -0.083 Cl
ATOM     25 CL   UNL     1       8.019   5.227   2.742  0.00  0.00    -0.083 Cl
ENDBRANCH  15  18
ENDBRANCH  14  15
ENDBRANCH   3  14
TORSDOF 4
