REMARK  Name = ZINC38643620
REMARK  5 active torsions:
REMARK  status: ('A' for Active; 'I' for Inactive)
REMARK    1  A    between atoms: C_1  and  C_2
REMARK    2  A    between atoms: C_3  and  C_26
REMARK    3  A    between atoms: N_6  and  C_25
REMARK    4  A    between atoms: N_10  and  N_11
REMARK    5  A    between atoms: N_15  and  C_17
REMARK                            x       y       z     vdW  Elec       q    Type
REMARK                         _______ _______ _______ _____ _____    ______ ____
ROOT
ATOM      1  N   UNL     1      -0.051  -0.765   3.479  0.00  0.00    -0.219 N 
ATOM      2  C   UNL     1      -0.154  -0.095   4.697  0.00  0.00    +0.160 A 
ATOM      3  C   UNL     1      -0.240  -0.696   5.965  0.00  0.00    +0.066 A 
ATOM      4  C   UNL     1      -0.324   0.288   6.887  0.00  0.00    +0.116 A 
ATOM      5  N   UNL     1      -0.292   1.477   6.230  0.00  0.00    -0.238 N 
ATOM      6  N   UNL     1      -0.180   1.209   4.859  0.00  0.00    -0.150 NA
ATOM      7  H   UNL     1      -0.039  -1.735   3.459  0.00  0.00    +0.176 HD
ENDROOT
BRANCH   1  17
ATOM      8  C   UNL     1       0.580   1.443   0.035  0.00  0.00    +0.047 C 
ATOM      9  C   UNL     1       0.269  -0.031   0.013  0.00  0.00    +0.004 C 
ATOM     10  C   UNL     1       0.242  -0.730  -1.183  0.00  0.00    +0.119 C 
ATOM     11  C   UNL     1      -0.064  -2.163  -1.178  0.00  0.00    +0.264 C 
ATOM     12  O   UNL     1      -0.087  -2.776  -2.230  0.00  0.00    -0.269 OA
ATOM     13  N   UNL     1      -0.318  -2.810  -0.028  0.00  0.00    -0.235 N 
ATOM     14  C   UNL     1      -0.301  -2.168   1.155  0.00  0.00    +0.273 C 
ATOM     15  O   UNL     1      -0.535  -2.781   2.179  0.00  0.00    -0.268 OA
ATOM     16  C   UNL     1       0.004  -0.730   1.214  0.00  0.00    +0.148 C 
ATOM     17  N   UNL     1       0.026  -0.096   2.379  0.00  0.00    -0.176 NA
ATOM     18  C   UNL     1      -0.619  -4.243  -0.062  0.00  0.00    +0.142 C 
BRANCH  10  19
ATOM     19  C   UNL     1       0.510  -0.055  -2.418  0.00  0.00    +0.105 C 
ATOM     20  N   UNL     1       0.723   0.480  -3.397  0.00  0.00    -0.191 NA
ENDBRANCH  10  19
ENDBRANCH   1  17
BRANCH   5  21
ATOM     21  C   UNL     1      -0.355   2.746   6.819  0.00  0.00    +0.067 A 
ATOM     22  C   UNL     1      -0.455   2.869   8.199  0.00  0.00    +0.029 A 
ATOM     23  C   UNL     1      -0.517   4.121   8.778  0.00  0.00    +0.023 A 
ATOM     24  C   UNL     1      -0.481   5.254   7.985  0.00  0.00    +0.059 A 
ATOM     25  C   UNL     1      -0.383   5.136   6.609  0.00  0.00    +0.061 A 
ATOM     26  C   UNL     1      -0.313   3.884   6.025  0.00  0.00    +0.049 A 
ATOM     27 CL   UNL     1      -0.339   6.559   5.616  0.00  0.00    -0.082 Cl
ATOM     28 CL   UNL     1      -0.560   6.827   8.716  0.00  0.00    -0.082 Cl
ENDBRANCH   5  21
TORSDOF 3
