REMARK  Name = ZINC17090433
REMARK  6 active torsions:
REMARK  status: ('A' for Active; 'I' for Inactive)
REMARK    1  A    between atoms: C_1  and  C_2
REMARK    2  A    between atoms: C_9  and  N_32
REMARK    3  A    between atoms: C_10  and  C_30
REMARK    4  A    between atoms: C_11  and  C_13
REMARK    5  A    between atoms: N_15  and  C_22
REMARK    6  A    between atoms: C_22  and  C_23
REMARK                            x       y       z     vdW  Elec       q    Type
REMARK                         _______ _______ _______ _____ _____    ______ ____
ROOT
ATOM      1  C   UNL     1      -1.657   4.875  -1.315  0.00  0.00    -0.009 A 
ATOM      2  C   UNL     1      -1.978   4.306  -2.487  0.00  0.00    +0.091 A 
ATOM      3  N   UNL     1      -1.871   5.225  -3.496  0.00  0.00    -0.342 N 
ATOM      4  C   UNL     1      -1.459   6.435  -2.985  0.00  0.00    +0.050 A 
ATOM      5  C   UNL     1      -1.308   6.269  -1.596  0.00  0.00    +0.004 A 
ATOM      6  C   UNL     1      -0.894   7.344  -0.807  0.00  0.00    +0.010 A 
ATOM      7  C   UNL     1      -0.638   8.554  -1.389  0.00  0.00    +0.001 A 
ATOM      8  C   UNL     1      -0.786   8.723  -2.759  0.00  0.00    +0.002 A 
ATOM      9  C   UNL     1      -1.193   7.675  -3.556  0.00  0.00    +0.026 A 
ENDROOT
BRANCH   1  20
ATOM     10  C   UNL     1       1.575   4.278   0.007  0.00  0.00    +0.068 C 
ATOM     11  C   UNL     1       0.697   3.052   0.010  0.00  0.00    +0.068 A 
ATOM     12  C   UNL     1      -0.691   3.044   0.023  0.00  0.00    +0.049 A 
ATOM     13  C   UNL     1      -1.107   1.742   0.016  0.00  0.00    +0.222 A 
ATOM     14  N   UNL     1      -0.011   0.966   0.007  0.00  0.00    -0.246 N 
ATOM     15  H   UNL     1       0.003  -0.034   0.006  0.00  0.00    +0.192 HD
ATOM     16  N   UNL     1       1.112   1.808   0.001  0.00  0.00    -0.176 NA
ATOM     17  O   UNL     1      -2.417   1.391   0.033  0.00  0.00    -0.423 OA
ATOM     18  C   UNL     1      -3.318   2.352   0.324  0.00  0.00    +0.200 C 
ATOM     19  C   UNL     1      -3.029   3.672   0.344  0.00  0.00    +0.098 C 
ATOM     20  C   UNL     1      -1.652   4.204   0.035  0.00  0.00    +0.103 C 
BRANCH  18  21
ATOM     21  N   UNL     1      -4.603   1.966   0.615  0.00  0.00    -0.328 N 
ATOM     22  H   UNL     1      -5.273   2.635   0.827  0.00  0.00    +0.145 HD
ATOM     23  H   UNL     1      -4.840   1.026   0.609  0.00  0.00    +0.145 HD
ENDBRANCH  18  21
BRANCH  19  24
ATOM     24  C   UNL     1      -4.070   4.600   0.671  0.00  0.00    +0.101 C 
ATOM     25  N   UNL     1      -4.895   5.336   0.931  0.00  0.00    -0.191 NA
ENDBRANCH  19  24
ENDBRANCH   1  20
BRANCH   3  26
ATOM     26  C   UNL     1      -2.147   4.958  -4.910  0.00  0.00    +0.157 C 
BRANCH  26  27
ATOM     27  C   UNL     1      -0.863   4.606  -5.615  0.00  0.00    -0.028 A 
ATOM     28  C   UNL     1      -0.099   5.601  -6.196  0.00  0.00    +0.007 A 
ATOM     29  C   UNL     1       1.082   5.279  -6.838  0.00  0.00    +0.020 A 
ATOM     30  C   UNL     1       1.494   3.960  -6.909  0.00  0.00    +0.041 A 
ATOM     31  C   UNL     1       0.726   2.965  -6.332  0.00  0.00    +0.020 A 
ATOM     32  C   UNL     1      -0.452   3.288  -5.686  0.00  0.00    +0.007 A 
ATOM     33 CL   UNL     1       2.973   3.555  -7.722  0.00  0.00    -0.084 Cl
ENDBRANCH  26  27
ENDBRANCH   3  26
TORSDOF 5
