REMARK  Name = ZINC39965233
REMARK  5 active torsions:
REMARK  status: ('A' for Active; 'I' for Inactive)
REMARK    1  A    between atoms: C_3  and  C_8
REMARK    2  A    between atoms: C_8  and  N_9
REMARK    3  A    between atoms: N_12  and  C_15
REMARK    4  A    between atoms: C_15  and  C_16
REMARK    5  A    between atoms: N_18  and  C_19
REMARK                            x       y       z     vdW  Elec       q    Type
REMARK                         _______ _______ _______ _____ _____    ______ ____
ROOT
ATOM      1  N   UNL     1       4.106   2.427   1.360  0.00  0.00    -0.302 NA
ATOM      2  C   UNL     1       3.174   3.326   2.054  0.00  0.00    +0.066 C 
ATOM      3  C   UNL     1       3.628   3.506   3.505  0.00  0.00    -0.063 C 
ATOM      4  N   UNL     1       4.985   4.068   3.526  0.00  0.00    +0.387 N 
ATOM      5  C   UNL     1       5.909   3.147   2.851  0.00  0.00    -0.063 C 
ATOM      6  C   UNL     1       5.473   2.965   1.395  0.00  0.00    +0.066 C 
ATOM      7  H   UNL     1       4.988   4.957   3.050  0.00  0.00    -0.081 HD
ENDROOT
BRANCH   1   8
ATOM      8  C   UNL     1       3.672   2.183  -0.022  0.00  0.00    +0.119 C 
BRANCH   8  11
ATOM      9  C   UNL     1      -0.017   1.378   0.010  0.00  0.00    +0.001 A 
ATOM     10  C   UNL     1       1.171   2.086   0.002  0.00  0.00    +0.005 A 
ATOM     11  C   UNL     1       2.378   1.411  -0.013  0.00  0.00    -0.032 A 
ATOM     12  C   UNL     1       2.397   0.029  -0.022  0.00  0.00    +0.020 A 
ATOM     13  C   UNL     1       1.210  -0.679  -0.014  0.00  0.00    +0.018 A 
ATOM     14  C   UNL     1       0.002  -0.004   0.002  0.00  0.00    +0.015 A 
ATOM     15 BR   UNL     1       1.236  -2.570  -0.025  0.00  0.00    -0.050 Br
ENDBRANCH   8  11
ENDBRANCH   1   8
BRANCH   4  16
ATOM     16  C   UNL     1       5.413   4.257   4.919  0.00  0.00    +0.019 C 
BRANCH  16  17
ATOM     17  C   UNL     1       6.753   4.946   4.942  0.00  0.00    +0.197 C 
ATOM     18  O   UNL     1       7.298   5.250   3.902  0.00  0.00    -0.278 OA
ATOM     19  N   UNL     1       7.347   5.225   6.120  0.00  0.00    -0.311 N 
ATOM     20  H   UNL     1       6.912   4.983   6.952  0.00  0.00    +0.149 HD
BRANCH  19  21
ATOM     21  C   UNL     1       8.650   5.895   6.143  0.00  0.00    +0.035 C 
ATOM     22  C   UNL     1       9.678   5.036   5.405  0.00  0.00    +0.029 C 
ATOM     23  C   UNL     1      11.039   5.736   5.429  0.00  0.00    -0.008 C 
ATOM     24  C   UNL     1      11.485   5.933   6.879  0.00  0.00    +0.007 C 
ATOM     25  C   UNL     1      10.457   6.792   7.617  0.00  0.00    -0.008 C 
ATOM     26  C   UNL     1       9.096   6.093   7.593  0.00  0.00    +0.029 C 
ATOM     27  C   UNL     1      10.342   8.154   6.929  0.00  0.00    +0.007 C 
ATOM     28  C   UNL     1       9.896   7.957   5.479  0.00  0.00    -0.008 C 
ATOM     29  C   UNL     1      10.924   7.097   4.741  0.00  0.00    +0.007 C 
ATOM     30  C   UNL     1       8.535   7.257   5.455  0.00  0.00    +0.029 C 
ENDBRANCH  19  21
ENDBRANCH  16  17
ENDBRANCH   4  16
TORSDOF 5
