REMARK  Name = ZINC39496786
REMARK  6 active torsions:
REMARK  status: ('A' for Active; 'I' for Inactive)
REMARK    1  A    between atoms: C_4  and  S_7
REMARK    2  A    between atoms: S_7  and  C_10
REMARK    3  A    between atoms: C_14  and  C_17
REMARK    4  A    between atoms: C_17  and  C_19
REMARK    5  A    between atoms: C_17  and  N_22
REMARK    6  A    between atoms: C_19  and  C_20
REMARK                            x       y       z     vdW  Elec       q    Type
REMARK                         _______ _______ _______ _____ _____    ______ ____
ROOT
ATOM      1  C   UNL     1       4.803  -0.874   1.980  0.00  0.00    +0.154 A 
ATOM      2  C   UNL     1       5.619  -0.092   2.776  0.00  0.00    +0.047 A 
ATOM      3  C   UNL     1       5.896  -0.479   4.075  0.00  0.00    +0.018 A 
ATOM      4  C   UNL     1       5.357  -1.648   4.580  0.00  0.00    +0.010 A 
ATOM      5  C   UNL     1       4.541  -2.433   3.788  0.00  0.00    +0.022 A 
ATOM      6  C   UNL     1       4.257  -2.044   2.487  0.00  0.00    +0.210 A 
ATOM      7  O   UNL     1       3.451  -2.812   1.708  0.00  0.00    -0.285 OA
ATOM      8 BR   UNL     1       6.358   1.507   2.088  0.00  0.00    -0.048 Br
ENDROOT
BRANCH   1   9
ATOM      9  S   UNL     1       4.450  -0.381   0.326  0.00  0.00    +0.030 S 
ATOM     10  O   UNL     1       4.098  -1.561  -0.384  0.00  0.00    -0.164 OA
ATOM     11  O   UNL     1       5.517   0.464  -0.083  0.00  0.00    -0.164 OA
BRANCH   9  15
ATOM     12  C   UNL     1       0.736   2.204   0.461  0.00  0.00    +0.000 A 
ATOM     13  C   UNL     1       1.985   2.782   0.586  0.00  0.00    +0.002 A 
ATOM     14  C   UNL     1       3.119   1.993   0.544  0.00  0.00    +0.027 A 
ATOM     15  C   UNL     1       3.004   0.625   0.379  0.00  0.00    +0.094 A 
ATOM     16  C   UNL     1       1.755   0.047   0.255  0.00  0.00    +0.027 A 
ATOM     17  C   UNL     1       0.621   0.836   0.295  0.00  0.00    +0.002 A 
ENDBRANCH   9  15
ENDBRANCH   1   9
BRANCH   5  18
ATOM     18  C   UNL     1       3.955  -3.707   4.340  0.00  0.00    +0.113 C 
BRANCH  18  19
ATOM     19  N   UNL     1       4.673  -4.856   3.784  0.00  0.00    -0.311 N 
ATOM     20  C   UNL     1       6.011  -4.945   3.921  0.00  0.00    +0.326 C 
ATOM     21  O   UNL     1       6.609  -4.121   4.580  0.00  0.00    -0.280 OA
ATOM     22  H   UNL     1       4.186  -5.552   3.317  0.00  0.00    +0.149 HD
ENDBRANCH  18  19
BRANCH  18  23
ATOM     23  C   UNL     1       4.088  -3.711   5.864  0.00  0.00    +0.097 C 
BRANCH  23  24
ATOM     24  C   UNL     1       3.393  -4.925   6.425  0.00  0.00    +0.225 C 
ATOM     25  O   UNL     1       3.996  -5.689   7.140  0.00  0.00    -0.301 OA
ENDBRANCH  23  24
ENDBRANCH  18  23
ENDBRANCH   5  18
TORSDOF 6
