REMARK  Name = ZINC19362436
REMARK  8 active torsions:
REMARK  status: ('A' for Active; 'I' for Inactive)
REMARK    1  A    between atoms: C_1  and  C_2
REMARK    2  A    between atoms: C_2  and  C_34
REMARK    3  A    between atoms: C_6  and  C_7
REMARK    4  A    between atoms: N_8  and  C_9
REMARK    5  A    between atoms: C_9  and  C_10
REMARK    6  A    between atoms: C_10  and  N_11
REMARK    7  A    between atoms: N_14  and  C_17
REMARK    8  A    between atoms: N_22  and  C_25
REMARK                            x       y       z     vdW  Elec       q    Type
REMARK                         _______ _______ _______ _____ _____    ______ ____
ROOT
ATOM      1  N   UNL     1       3.061  -8.054   2.377  0.00  0.00    -0.298 NA
ATOM      2  C   UNL     1       2.902  -8.388   0.954  0.00  0.00    +0.100 C 
ATOM      3  C   UNL     1       2.671  -9.894   0.809  0.00  0.00    +0.100 C 
ATOM      4  N   UNL     1       3.806 -10.620   1.394  0.00  0.00    -0.289 NA
ATOM      5  C   UNL     1       3.965 -10.286   2.816  0.00  0.00    +0.100 C 
ATOM      6  C   UNL     1       4.196  -8.780   2.961  0.00  0.00    +0.100 C 
ENDROOT
BRANCH   4   7
ATOM      7  C   UNL     1       3.657 -12.069   1.206  0.00  0.00    +0.153 C 
ATOM      8  C   UNL     1       4.887 -12.817   1.760  0.00  0.00    +0.125 C 
ATOM      9  C   UNL     1       4.309 -13.692   2.851  0.00  0.00    +0.228 C 
ATOM     10  O   UNL     1       4.942 -14.453   3.550  0.00  0.00    -0.275 OA
ATOM     11  N   UNL     1       2.987 -13.492   2.921  0.00  0.00    -0.209 N 
ATOM     12  C   UNL     1       2.511 -12.599   2.040  0.00  0.00    +0.244 C 
ATOM     13  O   UNL     1       1.350 -12.268   1.928  0.00  0.00    -0.273 OA
BRANCH  11  14
ATOM     14  C   UNL     1       2.166 -14.161   3.840  0.00  0.00    +0.044 A 
ATOM     15  C   UNL     1       1.230 -15.084   3.393  0.00  0.00    +0.024 A 
ATOM     16  C   UNL     1       0.423 -15.742   4.301  0.00  0.00    +0.002 A 
ATOM     17  C   UNL     1       0.547 -15.482   5.653  0.00  0.00    +0.000 A 
ATOM     18  C   UNL     1       1.478 -14.563   6.101  0.00  0.00    +0.002 A 
ATOM     19  C   UNL     1       2.292 -13.907   5.199  0.00  0.00    +0.024 A 
ENDBRANCH  11  14
ENDBRANCH   4   7
BRANCH   1  20
ATOM     20  C   UNL     1       3.210  -6.605   2.564  0.00  0.00    +0.107 C 
BRANCH  20  21
ATOM     21  C   UNL     1       1.908  -5.903   2.172  0.00  0.00    +0.157 C 
BRANCH  21  23
ATOM     22  C   UNL     1       2.013  -3.664   1.335  0.00  0.00    +0.119 C 
ATOM     23  N   UNL     1       2.057  -4.458   2.359  0.00  0.00    -0.289 NA
BRANCH  22  29
ATOM     24  C   UNL     1       1.942   2.043   2.138  0.00  0.00    +0.012 C 
ATOM     25  C   UNL     1       1.739   0.538   1.949  0.00  0.00    -0.021 C 
ATOM     26  C   UNL     1       2.266   0.120   0.573  0.00  0.00    +0.086 C 
ATOM     27  C   UNL     1       2.114  -1.370   0.413  0.00  0.00    +0.168 C 
ATOM     28  O   UNL     1       1.946  -1.845  -0.700  0.00  0.00    -0.292 OA
ATOM     29  C   UNL     1       2.162  -2.213   1.523  0.00  0.00    +0.077 C 
ATOM     30  C   UNL     1       2.351  -1.704   2.808  0.00  0.00    +0.168 C 
ATOM     31  O   UNL     1       2.388  -2.467   3.761  0.00  0.00    -0.292 OA
ATOM     32  C   UNL     1       2.509  -0.223   3.031  0.00  0.00    +0.086 C 
ATOM     33  C   UNL     1       0.249   0.206   2.051  0.00  0.00    +0.012 C 
ENDBRANCH  22  29
ENDBRANCH  21  23
ENDBRANCH  20  21
ENDBRANCH   1  20
TORSDOF 6
