REMARK  Name = ZINC63122536
REMARK  6 active torsions:
REMARK  status: ('A' for Active; 'I' for Inactive)
REMARK    1  A    between atoms: C_1  and  C_2
REMARK    2  A    between atoms: C_7  and  N_8
REMARK    3  A    between atoms: C_9  and  C_25
REMARK    4  A    between atoms: C_12  and  S_13
REMARK    5  A    between atoms: S_13  and  C_14
REMARK    6  A    between atoms: C_14  and  C_15
REMARK                            x       y       z     vdW  Elec       q    Type
REMARK                         _______ _______ _______ _____ _____    ______ ____
ROOT
ATOM      1  N   UNL     1       0.025  -0.021   2.423  0.00  0.00    -0.270 N 
ATOM      2  C   UNL     1      -1.079   0.371   3.165  0.00  0.00    +0.168 A 
ATOM      3  N   UNL     1      -0.618   0.994   4.241  0.00  0.00    -0.128 NA
ATOM      4  N   UNL     1       0.666   1.014   4.216  0.00  0.00    -0.122 NA
ATOM      5  C   UNL     1       1.112   0.402   3.128  0.00  0.00    +0.197 A 
ENDROOT
BRANCH   2   6
ATOM      6  C   UNL     1      -2.425   0.150   2.839  0.00  0.00    +0.025 C 
ATOM      7  C   UNL     1      -3.546   0.543   3.572  0.00  0.00    +0.006 A 
ATOM      8  C   UNL     1      -3.691   1.240   4.791  0.00  0.00    +0.010 A 
ATOM      9  C   UNL     1      -4.933   1.490   5.279  0.00  0.00    +0.001 A 
ATOM     10  C   UNL     1      -6.082   1.073   4.604  0.00  0.00    +0.002 A 
ATOM     11  C   UNL     1      -6.017   0.399   3.429  0.00  0.00    +0.026 A 
ATOM     12  C   UNL     1      -4.754   0.102   2.856  0.00  0.00    +0.043 A 
ATOM     13  N   UNL     1      -4.427  -0.527   1.744  0.00  0.00    -0.380 N 
ATOM     14  C   UNL     1      -2.967  -0.557   1.616  0.00  0.00    +0.152 C 
ATOM     15  H   UNL     1      -5.054  -0.908   1.110  0.00  0.00    +0.160 HD
ENDBRANCH   2   6
BRANCH   1  22
ATOM     16  C   UNL     1      -0.022   1.495   0.015  0.00  0.00    +0.046 C 
ATOM     17  C   UNL     1       0.000  -0.012   0.007  0.00  0.00    -0.026 A 
ATOM     18  C   UNL     1       0.004  -0.697  -1.193  0.00  0.00    +0.005 A 
ATOM     19  C   UNL     1       0.025  -2.080  -1.201  0.00  0.00    +0.000 A 
ATOM     20  C   UNL     1       0.042  -2.781  -0.009  0.00  0.00    +0.002 A 
ATOM     21  C   UNL     1       0.038  -2.102   1.194  0.00  0.00    +0.026 A 
ATOM     22  C   UNL     1       0.023  -0.713   1.205  0.00  0.00    +0.053 A 
ENDBRANCH   1  22
BRANCH   5  23
ATOM     23  S   UNL     1       2.800   0.179   2.675  0.00  0.00    -0.076 S 
BRANCH  23  24
ATOM     24  C   UNL     1       3.724   0.964   4.024  0.00  0.00    +0.173 C 
BRANCH  24  25
ATOM     25  C   UNL     1       5.202   0.843   3.758  0.00  0.00    +0.229 C 
ATOM     26  O   UNL     1       5.594   0.282   2.756  0.00  0.00    -0.275 OA
ATOM     27  N   UNL     1       6.089   1.358   4.632  0.00  0.00    -0.270 N 
ATOM     28  C   UNL     1       7.456   1.154   4.441  0.00  0.00    +0.125 A 
ATOM     29  C   UNL     1       8.358   1.596   5.402  0.00  0.00    +0.045 A 
ATOM     30  C   UNL     1       9.711   1.388   5.200  0.00  0.00    +0.025 A 
ATOM     31  C   UNL     1      10.117   0.742   4.039  0.00  0.00    +0.059 A 
ATOM     32  C   UNL     1       9.164   0.329   3.127  0.00  0.00    +0.132 A 
ATOM     33  N   UNL     1       7.880   0.537   3.350  0.00  0.00    -0.239 NA
ATOM     34 CL   UNL     1      11.802   0.456   3.736  0.00  0.00    -0.082 Cl
ATOM     35  H   UNL     1       5.777   1.870   5.395  0.00  0.00    +0.156 HD
ENDBRANCH  24  25
ENDBRANCH  23  24
ENDBRANCH   5  23
TORSDOF 5
