REMARK  Name = ZINC39579477
REMARK  4 active torsions:
REMARK  status: ('A' for Active; 'I' for Inactive)
REMARK    1  A    between atoms: C_5  and  N_8
REMARK    2  A    between atoms: N_8  and  S_9
REMARK    3  A    between atoms: S_9  and  C_12
REMARK    4  A    between atoms: CA_15  and  C_18
REMARK                            x       y       z     vdW  Elec       q    Type
REMARK                         _______ _______ _______ _____ _____    ______ ____
ROOT
ATOM      1  S   UNL     1      -0.176  -2.931   0.114  0.00  0.00    +0.074 S 
ATOM      2  O   UNL     1      -0.733  -2.515   1.353  0.00  0.00    -0.153 OA
ATOM      3  O   UNL     1      -0.862  -2.689  -1.107  0.00  0.00    -0.153 OA
ENDROOT
BRANCH   1   4
ATOM      4  C   UNL     1       0.334  -4.669   0.210  0.00  0.00    +0.217 C 
ATOM      5  C   UNL     1      -0.874  -5.586   0.156  0.00  0.00    +0.039 C 
ATOM      6  CA  UNL     1      -0.697  -6.329  -0.953  0.00  0.00    +0.127 C 
ATOM      7  N   UNL     1       0.456  -6.002  -1.602  0.00  0.00    -0.357 N 
ATOM      8  C   UNL     1       1.126  -5.064  -1.020  0.00  0.00    +0.088 C 
ATOM      9  H   UNL     1       0.747  -6.434  -2.420  0.00  0.00    +0.165 HD
BRANCH   6  10
ATOM     10  C   UNL     1      -1.638  -7.368  -1.411  0.00  0.00    +0.402 C 
ATOM     11  O   UNL     1      -2.653  -7.600  -0.769  0.00  0.00    -0.239 OA
ATOM     12  OXT UNL     1      -1.402  -7.999  -2.432  0.00  0.00    -0.239 OA
ENDBRANCH   6  10
ENDBRANCH   1   4
BRANCH   1  13
ATOM     13  N   UNL     1       1.238  -2.079  -0.021  0.00  0.00    -0.099 NA
BRANCH  13  18
ATOM     14  C   UNL     1       0.602   1.462  -0.786  0.00  0.00    +0.037 A 
ATOM     15  C   UNL     1       1.206   2.076   0.296  0.00  0.00    +0.021 A 
ATOM     16  C   UNL     1       1.821   1.314   1.274  0.00  0.00    +0.037 A 
ATOM     17  C   UNL     1       1.833  -0.065   1.171  0.00  0.00    +0.068 A 
ATOM     18  C   UNL     1       1.227  -0.685   0.086  0.00  0.00    +0.110 A 
ATOM     19  C   UNL     1       0.611   0.084  -0.894  0.00  0.00    +0.068 A 
ATOM     20 CL   UNL     1      -0.148  -0.686  -2.253  0.00  0.00    -0.081 Cl
ATOM     21 CL   UNL     1       2.606  -1.020   2.398  0.00  0.00    -0.081 Cl
ATOM     22 BR   UNL     1       1.192   3.961   0.441  0.00  0.00    -0.050 Br
ENDBRANCH  13  18
ENDBRANCH   1  13
TORSDOF 4
