REMARK  Name = ZINC06409983
REMARK  7 active torsions:
REMARK  status: ('A' for Active; 'I' for Inactive)
REMARK    1  A    between atoms: C_1  and  C_2
REMARK    2  A    between atoms: C_7  and  C_14
REMARK    3  A    between atoms: C_14  and  C_16
REMARK    4  A    between atoms: C_14  and  N_70
REMARK    5  A    between atoms: N_20  and  C_21
REMARK    6  A    between atoms: C_28  and  C_31
REMARK    7  A    between atoms: C_31  and  C_32
REMARK                            x       y       z     vdW  Elec       q    Type
REMARK                         _______ _______ _______ _____ _____    ______ ____
ROOT
ATOM      1  C   UNL     1       1.187  -2.235  -0.021  0.00  0.00    +0.039 C 
ENDROOT
BRANCH   1   8
ATOM      2  C   UNL     1       2.058   5.691  -0.228  0.00  0.00    +0.044 C 
ATOM      3  C   UNL     1       2.126   4.186  -0.213  0.00  0.00    -0.048 A 
ATOM      4  C   UNL     1       3.355   3.552  -0.340  0.00  0.00    +0.004 A 
ATOM      5  C   UNL     1       3.438   2.188  -0.330  0.00  0.00    +0.010 A 
ATOM      6  C   UNL     1       2.275   1.424  -0.191  0.00  0.00    -0.001 A 
ATOM      7  C   UNL     1       2.328  -0.040  -0.177  0.00  0.00    +0.017 A 
ATOM      8  C   UNL     1       1.168  -0.728  -0.039  0.00  0.00    +0.011 A 
ATOM      9  C   UNL     1      -0.057  -0.039   0.086  0.00  0.00    +0.251 A 
ATOM     10  O   UNL     1      -1.088  -0.678   0.209  0.00  0.00    -0.268 OA
ATOM     11  N   UNL     1      -0.116   1.304   0.075  0.00  0.00    -0.322 N 
ATOM     12  H   UNL     1      -0.975   1.746   0.159  0.00  0.00    +0.169 HD
ATOM     13  C   UNL     1       1.028   2.062  -0.061  0.00  0.00    +0.049 A 
ATOM     14  C   UNL     1       0.967   3.452  -0.074  0.00  0.00    +0.029 A 
ENDBRANCH   1   8
BRANCH   1  20
ATOM     15  C   UNL     1       0.365  -4.181   1.160  0.00  0.00    -0.077 C 
ATOM     16  C   UNL     1      -0.482  -4.636   2.351  0.00  0.00    -0.015 C 
ATOM     17  C   UNL     1       0.191  -4.185   3.651  0.00  0.00    -0.010 C 
ATOM     18  C   UNL     1       0.361  -2.664   3.627  0.00  0.00    -0.015 C 
ATOM     19  C   UNL     1       1.184  -2.266   2.399  0.00  0.00    -0.077 C 
ATOM     20  N   UNL     1       0.471  -2.707   1.181  0.00  0.00    +0.389 N 
ATOM     21  H   UNL     1      -0.474  -2.305   1.185  0.00  0.00    -0.080 HD
BRANCH  17  22
ATOM     22  C   UNL     1      -0.682  -4.583   4.843  0.00  0.00    +0.038 C 
BRANCH  22  23
ATOM     23  C   UNL     1      -0.748  -6.086   4.937  0.00  0.00    -0.047 A 
ATOM     24  C   UNL     1      -1.747  -6.777   4.277  0.00  0.00    +0.003 A 
ATOM     25  C   UNL     1      -1.805  -8.155   4.360  0.00  0.00    +0.000 A 
ATOM     26  C   UNL     1      -0.870  -8.843   5.111  0.00  0.00    +0.000 A 
ATOM     27  C   UNL     1       0.127  -8.152   5.774  0.00  0.00    +0.000 A 
ATOM     28  C   UNL     1       0.188  -6.774   5.688  0.00  0.00    +0.003 A 
ENDBRANCH  22  23
ENDBRANCH  17  22
ENDBRANCH   1  20
BRANCH   1  29
ATOM     29  C   UNL     1       0.487  -2.761  -1.247  0.00  0.00    +0.143 A 
ATOM     30  N   UNL     1      -0.807  -2.790  -1.458  0.00  0.00    -0.115 NA
ATOM     31  N   UNL     1      -1.010  -3.310  -2.619  0.00  0.00    -0.023 NA
ATOM     32  N   UNL     1       0.120  -3.621  -3.151  0.00  0.00    -0.044 NA
ATOM     33  N   UNL     1       1.067  -3.298  -2.337  0.00  0.00    -0.227 N 
BRANCH  33  34
ATOM     34  C   UNL     1       2.504  -3.482  -2.555  0.00  0.00    +0.111 C 
ATOM     35  C   UNL     1       2.942  -2.746  -3.838  0.00  0.00    +0.027 C 
ATOM     36  C   UNL     1       4.006  -3.681  -4.467  0.00  0.00    +0.002 C 
ATOM     37  C   UNL     1       3.434  -5.092  -4.183  0.00  0.00    +0.002 C 
ATOM     38  C   UNL     1       2.817  -4.973  -2.774  0.00  0.00    +0.027 C 
ENDBRANCH  33  34
ENDBRANCH   1  29
TORSDOF 6
