REMARK  Name = ZINC64138769
REMARK  9 active torsions:
REMARK  status: ('A' for Active; 'I' for Inactive)
REMARK    1  A    between atoms: C_1  and  C_2
REMARK    2  A    between atoms: C_2  and  C_4
REMARK    3  A    between atoms: C_2  and  N_9
REMARK    4  A    between atoms: C_10  and  C_12
REMARK    5  A    between atoms: C_12  and  S_13
REMARK    6  A    between atoms: S_13  and  C_14
REMARK    7  A    between atoms: C_18  and  C_26
REMARK    8  A    between atoms: N_19  and  C_20
REMARK    9  A    between atoms: C_20  and  C_21
REMARK                            x       y       z     vdW  Elec       q    Type
REMARK                         _______ _______ _______ _____ _____    ______ ____
ROOT
ATOM      1  C   UNL     1      -5.950  -1.946  -2.660  0.00  0.00    +0.237 C 
ATOM      2  N   UNL     1      -6.135  -3.277  -2.061  0.00  0.00    -0.237 N 
ATOM      3  N   UNL     1      -6.699  -3.069  -0.797  0.00  0.00    -0.169 NA
ATOM      4  C   UNL     1      -6.875  -1.796  -0.559  0.00  0.00    +0.147 C 
ATOM      5  N   UNL     1      -6.451  -1.012  -1.639  0.00  0.00    -0.278 N 
ATOM      6  H   UNL     1      -5.912  -4.131  -2.463  0.00  0.00    +0.171 HD
ENDROOT
BRANCH   4   7
ATOM      7  C   UNL     1      -7.423  -1.281   0.626  0.00  0.00    +0.022 C 
ATOM      8  C   UNL     1      -7.764  -1.992   1.777  0.00  0.00    +0.006 A 
ATOM      9  C   UNL     1      -7.680  -3.361   2.111  0.00  0.00    +0.010 A 
ATOM     10  C   UNL     1      -8.094  -3.782   3.334  0.00  0.00    +0.001 A 
ATOM     11  C   UNL     1      -8.606  -2.891   4.279  0.00  0.00    +0.002 A 
ATOM     12  C   UNL     1      -8.716  -1.563   4.026  0.00  0.00    +0.026 A 
ATOM     13  C   UNL     1      -8.303  -1.049   2.769  0.00  0.00    +0.043 A 
ATOM     14  N   UNL     1      -8.306   0.178   2.286  0.00  0.00    -0.380 N 
ATOM     15  C   UNL     1      -7.760   0.163   0.925  0.00  0.00    +0.152 C 
ATOM     16  H   UNL     1      -8.615   0.967   2.758  0.00  0.00    +0.160 HD
ENDBRANCH   4   7
BRANCH   1  17
ATOM     17  S   UNL     1      -4.194  -1.638  -2.994  0.00  0.00    -0.109 S 
BRANCH  17  18
ATOM     18  C   UNL     1      -3.397  -1.851  -1.378  0.00  0.00    +0.168 C 
BRANCH  18  20
ATOM     19  N   UNL     1      -1.113  -1.725  -0.436  0.00  0.00    -0.305 N 
ATOM     20  C   UNL     1      -1.914  -1.620  -1.515  0.00  0.00    +0.224 C 
ATOM     21  O   UNL     1      -1.441  -1.340  -2.597  0.00  0.00    -0.275 OA
ATOM     22  H   UNL     1      -1.491  -1.949   0.428  0.00  0.00    +0.149 HD
BRANCH  19  24
ATOM     23  C   UNL     1       0.624  -0.003  -0.461  0.00  0.00    +0.036 C 
ATOM     24  C   UNL     1       0.329  -1.501  -0.570  0.00  0.00    +0.136 C 
BRANCH  24  25
ATOM     25  C   UNL     1       1.055  -2.237   0.526  0.00  0.00    +0.125 A 
ATOM     26  C   UNL     1       2.217  -2.902   0.391  0.00  0.00    +0.046 A 
ATOM     27  C   UNL     1       2.532  -3.437   1.661  0.00  0.00    +0.041 A 
ATOM     28  C   UNL     1       1.544  -3.067   2.496  0.00  0.00    +0.195 A 
ATOM     29  O   UNL     1       0.655  -2.336   1.805  0.00  0.00    -0.466 OA
ENDBRANCH  24  25
ENDBRANCH  19  24
ENDBRANCH  18  20
ENDBRANCH  17  18
ENDBRANCH   1  17
BRANCH   5  30
ATOM     30  C   UNL     1      -6.496   0.449  -1.734  0.00  0.00    +0.183 C 
BRANCH  30  31
ATOM     31  C   UNL     1      -5.195   1.025  -1.236  0.00  0.00    +0.122 A 
ATOM     32  C   UNL     1      -4.150   1.386  -2.003  0.00  0.00    +0.046 A 
ATOM     33  C   UNL     1      -3.150   1.871  -1.129  0.00  0.00    +0.041 A 
ATOM     34  C   UNL     1      -3.643   1.778   0.118  0.00  0.00    +0.195 A 
ATOM     35  O   UNL     1      -4.885   1.271   0.047  0.00  0.00    -0.466 OA
ENDBRANCH  30  31
ENDBRANCH   5  30
TORSDOF 8
