REMARK  Name = ZINC65691439
REMARK  5 active torsions:
REMARK  status: ('A' for Active; 'I' for Inactive)
REMARK    1  A    between atoms: C_3  and  C_6
REMARK    2  A    between atoms: C_8  and  C_11
REMARK    3  A    between atoms: C_11  and  N_12
REMARK    4  A    between atoms: C_13  and  C_14
REMARK    5  A    between atoms: C_19  and  O_20
REMARK                            x       y       z     vdW  Elec       q    Type
REMARK                         _______ _______ _______ _____ _____    ______ ____
ROOT
ATOM      1  N   UNL     1       7.787   1.171  -1.453  0.00  0.00    -0.381 N 
ATOM      2  C   UNL     1       8.731   1.928  -1.913  0.00  0.00    +0.090 C 
ATOM      3  H   UNL     1       7.375   0.507  -2.028  0.00  0.00    +0.160 HD
ENDROOT
BRANCH   2   4
ATOM      4  C   UNL     1       9.255   1.708  -3.273  0.00  0.00    +0.033 A 
ATOM      5  C   UNL     1      10.350   2.445  -3.731  0.00  0.00    +0.028 A 
ATOM      6  C   UNL     1      10.836   2.234  -5.004  0.00  0.00    +0.019 A 
ATOM      7  C   UNL     1      10.242   1.294  -5.832  0.00  0.00    +0.019 A 
ATOM      8  C   UNL     1       9.159   0.560  -5.391  0.00  0.00    +0.047 A 
ATOM      9  C   UNL     1       8.662   0.755  -4.112  0.00  0.00    +0.125 A 
ATOM     10 BR   UNL     1      12.318   3.232  -5.624  0.00  0.00    -0.050 Br
BRANCH   9  11
ATOM     11  O   UNL     1       7.601   0.030  -3.675  0.00  0.00    -0.506 OA
ATOM     12  H   UNL     1       6.743   0.436  -3.860  0.00  0.00    +0.292 HD
ENDBRANCH   9  11
ENDBRANCH   2   4
BRANCH   1  13
ATOM     13  C   UNL     1       7.342   1.317  -0.065  0.00  0.00    +0.211 C 
BRANCH  13  16
ATOM     14  C   UNL     1       3.742   1.788  -0.016  0.00  0.00    +0.209 A 
ATOM     15  N   UNL     1       4.857   1.032  -0.035  0.00  0.00    -0.189 NA
ATOM     16  C   UNL     1       5.912   1.794  -0.044  0.00  0.00    +0.247 A 
ATOM     17  O   UNL     1       5.514   3.073  -0.031  0.00  0.00    -0.336 OA
ATOM     18  N   UNL     1       4.095   3.053  -0.018  0.00  0.00    -0.055 NA
BRANCH  14  21
ATOM     19  C   UNL     1      -0.008   1.284   0.026  0.00  0.00    +0.008 A 
ATOM     20  C   UNL     1       1.179   1.981   0.014  0.00  0.00    +0.019 A 
ATOM     21  C   UNL     1       2.355   1.279  -0.001  0.00  0.00    +0.060 A 
ATOM     22  S   UNL     1       1.776  -0.409   0.002  0.00  0.00    -0.093 S 
ATOM     23  C   UNL     1       0.023  -0.075   0.023  0.00  0.00    +0.046 A 
ENDBRANCH  14  21
ENDBRANCH  13  16
ENDBRANCH   1  13
TORSDOF 5
