REMARK  Name = ZINC06930345
REMARK  7 active torsions:
REMARK  status: ('A' for Active; 'I' for Inactive)
REMARK    1  A    between atoms: C_1  and  C_2
REMARK    2  A    between atoms: C_2  and  O_3
REMARK    3  A    between atoms: O_3  and  C_4
REMARK    4  A    between atoms: C_7  and  N_10
REMARK    5  A    between atoms: C_18  and  S_19
REMARK    6  A    between atoms: S_19  and  C_20
REMARK    7  A    between atoms: C_20  and  C_21
REMARK                            x       y       z     vdW  Elec       q    Type
REMARK                         _______ _______ _______ _____ _____    ______ ____
ROOT
ATOM      1  N   UNL     1      -4.205   3.645   2.433  0.00  0.00    -0.287 N 
ATOM      2  C   UNL     1      -5.283   4.249   1.804  0.00  0.00    +0.074 A 
ATOM      3  C   UNL     1      -6.427   4.886   2.258  0.00  0.00    +0.028 A 
ATOM      4  C   UNL     1      -7.335   5.396   1.353  0.00  0.00    +0.002 A 
ATOM      5  C   UNL     1      -7.111   5.275  -0.011  0.00  0.00    +0.002 A 
ATOM      6  C   UNL     1      -5.979   4.646  -0.480  0.00  0.00    +0.030 A 
ATOM      7  C   UNL     1      -5.050   4.124   0.424  0.00  0.00    +0.091 A 
ATOM      8  N   UNL     1      -3.868   3.470   0.274  0.00  0.00    -0.222 NA
ATOM      9  C   UNL     1      -3.371   3.183   1.452  0.00  0.00    +0.175 A 
ENDROOT
BRANCH   1  13
ATOM     10  C   UNL     1      -3.614   3.303   6.548  0.00  0.00    +0.121 A 
ATOM     11  C   UNL     1      -2.744   4.067   5.784  0.00  0.00    +0.047 A 
ATOM     12  C   UNL     1      -2.939   4.181   4.422  0.00  0.00    +0.030 A 
ATOM     13  C   UNL     1      -4.006   3.530   3.817  0.00  0.00    +0.049 A 
ATOM     14  C   UNL     1      -4.880   2.771   4.583  0.00  0.00    +0.030 A 
ATOM     15  C   UNL     1      -4.681   2.654   5.945  0.00  0.00    +0.047 A 
BRANCH  10  16
ATOM     16  O   UNL     1      -3.421   3.192   7.890  0.00  0.00    -0.492 OA
BRANCH  16  18
ATOM     17  C   UNL     1      -3.979   2.383  10.098  0.00  0.00    +0.048 C 
ATOM     18  C   UNL     1      -4.355   2.389   8.615  0.00  0.00    +0.225 C 
ENDBRANCH  16  18
ENDBRANCH  10  16
ENDBRANCH   1  13
BRANCH   9  19
ATOM     19  S   UNL     1      -1.851   2.335   1.730  0.00  0.00    -0.079 S 
BRANCH  19  20
ATOM     20  C   UNL     1      -1.332   2.051   0.019  0.00  0.00    +0.153 C 
BRANCH  20  21
ATOM     21  C   UNL     1      -0.016   1.317   0.009  0.00  0.00    +0.146 A 
ATOM     22  N   UNL     1       1.117   1.997   0.002  0.00  0.00    -0.199 NA
ATOM     23  C   UNL     1       2.282   1.353  -0.012  0.00  0.00    +0.217 A 
ATOM     24  N   UNL     1       2.304   0.024  -0.020  0.00  0.00    -0.181 NA
ATOM     25  C   UNL     1       1.163  -0.656  -0.013  0.00  0.00    +0.217 A 
ATOM     26  N   UNL     1       0.002  -0.004   0.002  0.00  0.00    -0.199 NA
ATOM     27  N   UNL     1       1.180  -2.035  -0.021  0.00  0.00    -0.327 N 
ATOM     28  N   UNL     1       3.465   2.063  -0.020  0.00  0.00    -0.327 N 
ATOM     29  H   UNL     1       0.347  -2.531  -0.016  0.00  0.00    +0.145 HD
ATOM     30  H   UNL     1       2.027  -2.510  -0.031  0.00  0.00    +0.145 HD
ATOM     31  H   UNL     1       4.313   1.593  -0.031  0.00  0.00    +0.145 HD
ATOM     32  H   UNL     1       3.448   3.033  -0.015  0.00  0.00    +0.145 HD
ENDBRANCH  20  21
ENDBRANCH  19  20
ENDBRANCH   9  19
TORSDOF 6
