REMARK  Name = ZINC15732080
REMARK  6 active torsions:
REMARK  status: ('A' for Active; 'I' for Inactive)
REMARK    1  A    between atoms: C_5  and  C_7
REMARK    2  A    between atoms: C_7  and  N_57
REMARK    3  A    between atoms: C_10  and  C_13
REMARK    4  A    between atoms: C_13  and  N_14
REMARK    5  A    between atoms: N_14  and  S_15
REMARK    6  A    between atoms: S_15  and  C_18
REMARK                            x       y       z     vdW  Elec       q    Type
REMARK                         _______ _______ _______ _____ _____    ______ ____
ROOT
ATOM      1  N   UNL     1      -0.698   1.558   1.213  0.00  0.00    -0.190 NA
ATOM      2  H   UNL     1      -1.353   2.272   1.151  0.00  0.00    +0.148 HD
ENDROOT
BRANCH   1   3
ATOM      3  S   UNL     1      -0.356   0.875   2.682  0.00  0.00    +0.058 S 
ATOM      4  O   UNL     1      -1.151   1.557   3.643  0.00  0.00    -0.153 OA
ATOM      5  O   UNL     1      -0.422  -0.533   2.500  0.00  0.00    -0.153 OA
BRANCH   3   6
ATOM      6  C   UNL     1       1.323   1.256   3.056  0.00  0.00    +0.107 A 
ATOM      7  C   UNL     1       2.329   0.395   2.656  0.00  0.00    +0.030 A 
ATOM      8  C   UNL     1       3.651   0.688   2.941  0.00  0.00    +0.018 A 
ATOM      9  C   UNL     1       3.961   1.844   3.639  0.00  0.00    +0.029 A 
ATOM     10  C   UNL     1       2.948   2.710   4.045  0.00  0.00    +0.049 A 
ATOM     11  C   UNL     1       1.627   2.412   3.752  0.00  0.00    +0.053 A 
ATOM     12  N   UNL     1       3.280   3.879   4.747  0.00  0.00    -0.284 N 
ATOM     13  C   UNL     1       4.219   4.707   4.275  0.00  0.00    +0.218 C 
ATOM     14  O   UNL     1       4.630   5.604   4.980  0.00  0.00    -0.275 OA
ATOM     15  C   UNL     1       4.771   4.548   2.889  0.00  0.00    +0.107 C 
ATOM     16  C   UNL     1       6.006   3.631   2.904  0.00  0.00    +0.083 C 
ATOM     17  S   UNL     1       5.636   2.239   4.025  0.00  0.00    -0.123 S 
ATOM     18  H   UNL     1       2.826   4.087   5.579  0.00  0.00    +0.155 HD
ENDBRANCH   3   6
ENDBRANCH   1   3
BRANCH   1  19
ATOM     19  C   UNL     1      -0.013   1.086   0.008  0.00  0.00    +0.109 C 
BRANCH  19  22
ATOM     20  C   UNL     1      -0.744   1.662  -3.727  0.00  0.00    -0.078 C 
ATOM     21  C   UNL     1       0.031   1.206  -2.489  0.00  0.00    -0.014 C 
ATOM     22  C   UNL     1      -0.753   1.593  -1.232  0.00  0.00    +0.001 C 
ATOM     23  C   UNL     1      -2.145   0.958  -1.292  0.00  0.00    -0.014 C 
ATOM     24  C   UNL     1      -2.857   1.421  -2.564  0.00  0.00    -0.078 C 
ATOM     25  N   UNL     1      -2.065   0.997  -3.739  0.00  0.00    +0.382 N 
ATOM     26  H   UNL     1      -1.927  -0.020  -3.697  0.00  0.00    -0.081 HD
BRANCH  25  27
ATOM     27  C   UNL     1      -2.788   1.332  -4.983  0.00  0.00    -0.040 C 
BRANCH  27  32
ATOM     28  C   UNL     1      -5.158  -1.448  -5.935  0.00  0.00    +0.000 A 
ATOM     29  C   UNL     1      -6.296  -1.096  -5.232  0.00  0.00    +0.003 A 
ATOM     30  C   UNL     1      -6.299   0.042  -4.448  0.00  0.00    +0.038 A 
ATOM     31  C   UNL     1      -5.163   0.829  -4.366  0.00  0.00    +0.125 A 
ATOM     32  C   UNL     1      -4.025   0.476  -5.071  0.00  0.00    -0.029 A 
ATOM     33  C   UNL     1      -4.026  -0.659  -5.859  0.00  0.00    +0.004 A 
ATOM     34  F   UNL     1      -5.166   1.942  -3.600  0.00  0.00    -0.205 F 
ENDBRANCH  27  32
ENDBRANCH  25  27
ENDBRANCH  19  22
ENDBRANCH   1  19
TORSDOF 6
