REMARK  Name = ZINC66482925
REMARK  7 active torsions:
REMARK  status: ('A' for Active; 'I' for Inactive)
REMARK    1  A    between atoms: C_1  and  C_2
REMARK    2  A    between atoms: N_5  and  C_11
REMARK    3  A    between atoms: C_7  and  C_10
REMARK    4  A    between atoms: C_11  and  C_12
REMARK    5  A    between atoms: C_12  and  C_14
REMARK    6  A    between atoms: C_12  and  O_32
REMARK    7  A    between atoms: C_14  and  N_15
REMARK                            x       y       z     vdW  Elec       q    Type
REMARK                         _______ _______ _______ _____ _____    ______ ____
ROOT
ATOM      1  N   UNL     1      -4.042  -6.114  -0.228  0.00  0.00    -0.261 N 
ATOM      2  C   UNL     1      -3.981  -6.842  -1.384  0.00  0.00    +0.070 A 
ATOM      3  C   UNL     1      -3.958  -6.662  -2.764  0.00  0.00    +0.028 A 
ATOM      4  C   UNL     1      -3.885  -7.766  -3.597  0.00  0.00    +0.003 A 
ATOM      5  C   UNL     1      -3.833  -9.074  -3.127  0.00  0.00    +0.012 A 
ATOM      6  C   UNL     1      -3.854  -9.286  -1.751  0.00  0.00    +0.034 A 
ATOM      7  C   UNL     1      -3.928  -8.159  -0.944  0.00  0.00    +0.038 A 
ATOM      8  C   UNL     1      -3.963  -8.149   0.506  0.00  0.00    +0.102 A 
ATOM      9  N   UNL     1      -4.026  -6.880   0.821  0.00  0.00    -0.170 NA
ATOM     10  C   UNL     1      -3.917  -9.464   1.172  0.00  0.00    +0.014 A 
ATOM     11  C   UNL     1      -3.949  -9.556   2.561  0.00  0.00    +0.011 A 
ATOM     12  C   UNL     1      -3.904 -10.791   3.173  0.00  0.00    +0.001 A 
ATOM     13  C   UNL     1      -3.828 -11.948   2.411  0.00  0.00    +0.001 A 
ATOM     14  C   UNL     1      -3.796 -11.881   1.037  0.00  0.00    +0.012 A 
ATOM     15  C   UNL     1      -3.841 -10.639   0.393  0.00  0.00    +0.032 A 
ATOM     16  C   UNL     1      -3.806 -10.595  -1.086  0.00  0.00    +0.194 C 
ATOM     17  O   UNL     1      -3.740 -11.622  -1.737  0.00  0.00    -0.287 OA
ENDROOT
BRANCH   1  18
ATOM     18  C   UNL     1      -4.111  -4.651  -0.179  0.00  0.00    +0.176 C 
BRANCH  18  19
ATOM     19  C   UNL     1      -2.695  -4.075  -0.135  0.00  0.00    +0.150 C 
BRANCH  19  20
ATOM     20  O   UNL     1      -2.018  -4.380  -1.355  0.00  0.00    -0.389 OA
ATOM     21  H   UNL     1      -2.447  -4.022  -2.144  0.00  0.00    +0.210 HD
ENDBRANCH  19  20
BRANCH  19  22
ATOM     22  C   UNL     1      -2.768  -2.557   0.042  0.00  0.00    +0.117 C 
BRANCH  22  26
ATOM     23  C   UNL     1      -0.019   1.526   0.010  0.00  0.00    +0.039 C 
ATOM     24  C   UNL     1       0.002  -0.004   0.002  0.00  0.00    +0.130 C 
ATOM     25  C   UNL     1      -1.434  -0.535   0.015  0.00  0.00    +0.115 C 
ATOM     26  N   UNL     1      -1.407  -2.003   0.085  0.00  0.00    -0.295 NA
ATOM     27  C   UNL     1      -0.692  -2.455   1.287  0.00  0.00    +0.115 C 
ATOM     28  C   UNL     1       0.736  -1.905   1.261  0.00  0.00    +0.130 C 
ATOM     29  O   UNL     1       0.692  -0.479   1.161  0.00  0.00    -0.371 OA
ATOM     30  C   UNL     1       1.461  -2.305   2.548  0.00  0.00    +0.039 C 
ENDBRANCH  22  26
ENDBRANCH  19  22
ENDBRANCH  18  19
ENDBRANCH   1  18
TORSDOF 5
