REMARK  Name = ZINC60330184
REMARK  10 active torsions:
REMARK  status: ('A' for Active; 'I' for Inactive)
REMARK    1  A    between atoms: C_1  and  C_2
REMARK    2  A    between atoms: C_2  and  C_4
REMARK    3  A    between atoms: C_2  and  O_11
REMARK    4  A    between atoms: O_11  and  C_12
REMARK    5  A    between atoms: C_12  and  C_13
REMARK    6  A    between atoms: C_13  and  C_15
REMARK    7  A    between atoms: C_13  and  O_35
REMARK    8  A    between atoms: C_15  and  N_16
REMARK    9  A    between atoms: N_23  and  C_25
REMARK   10  A    between atoms: C_25  and  C_26
REMARK                            x       y       z     vdW  Elec       q    Type
REMARK                         _______ _______ _______ _____ _____    ______ ____
ROOT
ATOM      1  N   UNL     1       4.802  -1.559  -3.479  0.00  0.00    -0.222 N 
ATOM      2  C   UNL     1       5.030  -2.825  -3.885  0.00  0.00    +0.245 C 
ATOM      3  O   UNL     1       4.794  -3.846  -3.274  0.00  0.00    -0.273 OA
ATOM      4  C   UNL     1       5.641  -2.704  -5.262  0.00  0.00    +0.098 C 
ATOM      5  C   UNL     1       4.754  -3.385  -6.300  0.00  0.00    +0.031 C 
ATOM      6  C   UNL     1       5.422  -3.280  -7.676  0.00  0.00    -0.016 C 
ATOM      7  C   UNL     1       6.826  -3.884  -7.600  0.00  0.00    -0.078 C 
ATOM      8  N   UNL     1       7.630  -3.148  -6.617  0.00  0.00    +0.384 N 
ATOM      9  C   UNL     1       7.043  -3.302  -5.279  0.00  0.00    -0.043 C 
ATOM     10  N   UNL     1       5.694  -1.256  -5.502  0.00  0.00    -0.287 N 
ATOM     11  C   UNL     1       5.177  -0.669  -4.406  0.00  0.00    +0.309 C 
ATOM     12  O   UNL     1       5.067   0.534  -4.272  0.00  0.00    -0.252 OA
ATOM     13  H   UNL     1       6.033  -0.811  -6.295  0.00  0.00    +0.151 HD
ATOM     14  H   UNL     1       7.649  -2.170  -6.864  0.00  0.00    -0.081 HD
ENDROOT
BRANCH   1  15
ATOM     15  C   UNL     1       4.211  -1.202  -2.187  0.00  0.00    +0.151 C 
BRANCH  15  16
ATOM     16  C   UNL     1       2.688  -1.133  -2.324  0.00  0.00    +0.158 C 
BRANCH  16  17
ATOM     17  O   UNL     1       2.178  -2.433  -2.627  0.00  0.00    -0.388 OA
ATOM     18  H   UNL     1       2.374  -3.100  -1.955  0.00  0.00    +0.210 HD
ENDBRANCH  16  17
BRANCH  16  19
ATOM     19  C   UNL     1       2.080  -0.640  -1.010  0.00  0.00    +0.193 C 
BRANCH  19  20
ATOM     20  O   UNL     1       0.671  -0.465  -1.174  0.00  0.00    -0.370 OA
BRANCH  20  22
ATOM     21  C   UNL     1      -0.019   1.526   0.010  0.00  0.00    +0.043 C 
ATOM     22  C   UNL     1       0.002  -0.004   0.002  0.00  0.00    +0.145 C 
BRANCH  22  23
ATOM     23  C   UNL     1      -1.412  -0.526   0.013  0.00  0.00    -0.019 A 
ATOM     24  C   UNL     1      -2.106  -0.666  -1.175  0.00  0.00    +0.007 A 
ATOM     25  C   UNL     1      -3.402  -1.144  -1.166  0.00  0.00    +0.020 A 
ATOM     26  C   UNL     1      -4.006  -1.483   0.032  0.00  0.00    +0.041 A 
ATOM     27  C   UNL     1      -3.311  -1.342   1.220  0.00  0.00    +0.020 A 
ATOM     28  C   UNL     1      -2.012  -0.869   1.210  0.00  0.00    +0.007 A 
ATOM     29 CL   UNL     1      -5.635  -2.083   0.045  0.00  0.00    -0.084 Cl
ENDBRANCH  22  23
ENDBRANCH  20  22
ENDBRANCH  19  20
ENDBRANCH  16  19
ENDBRANCH  15  16
ENDBRANCH   1  15
BRANCH   8  30
ATOM     30  C   UNL     1       9.000  -3.676  -6.613  0.00  0.00    -0.043 C 
BRANCH  30  31
ATOM     31  C   UNL     1       9.649  -3.401  -7.945  0.00  0.00    -0.064 A 
ATOM     32  C   UNL     1       9.538  -4.322  -8.970  0.00  0.00    +0.002 A 
ATOM     33  C   UNL     1      10.133  -4.069 -10.192  0.00  0.00    +0.000 A 
ATOM     34  C   UNL     1      10.838  -2.897 -10.389  0.00  0.00    +0.000 A 
ATOM     35  C   UNL     1      10.948  -1.976  -9.364  0.00  0.00    +0.000 A 
ATOM     36  C   UNL     1      10.350  -2.227  -8.143  0.00  0.00    +0.002 A 
ENDBRANCH  30  31
ENDBRANCH   8  30
TORSDOF 9
