REMARK  Name = ZINC14752957
REMARK  14 active torsions:
REMARK  status: ('A' for Active; 'I' for Inactive)
REMARK    1  A    between atoms: C_1  and  C_2
REMARK    2  A    between atoms: C_5  and  C_7
REMARK    3  A    between atoms: C_7  and  N_8
REMARK    4  A    between atoms: N_8  and  C_9
REMARK    5  A    between atoms: C_11  and  C_23
REMARK    6  A    between atoms: C_13  and  S_15
REMARK    7  A    between atoms: S_15  and  N_18
REMARK    8  A    between atoms: N_18  and  C_19
REMARK    9  A    between atoms: C_19  and  C_20
REMARK   10  A    between atoms: C_19  and  C_21
REMARK   11  A    between atoms: C_19  and  C_22
REMARK   12  A    between atoms: N_25  and  C_26
REMARK   13  A    between atoms: C_26  and  C_27
REMARK   14  A    between atoms: C_33  and  N_69
REMARK                            x       y       z     vdW  Elec       q    Type
REMARK                         _______ _______ _______ _____ _____    ______ ____
ROOT
ATOM      1  C   UNL     1       0.128   0.008  -2.876  0.00  0.00    +0.030 A 
ATOM      2  C   UNL     1       1.452  -0.111  -3.273  0.00  0.00    +0.036 A 
ATOM      3  C   UNL     1       1.848   0.377  -4.518  0.00  0.00    +0.040 A 
ATOM      4  C   UNL     1       0.911   0.982  -5.356  0.00  0.00    +0.041 A 
ATOM      5  C   UNL     1      -0.404   1.096  -4.953  0.00  0.00    +0.108 A 
ATOM      6  C   UNL     1      -0.799   0.608  -3.721  0.00  0.00    +0.051 A 
ENDROOT
BRANCH   3   7
ATOM      7  C   UNL     1       3.258   0.254  -4.947  0.00  0.00    +0.244 C 
ATOM      8  O   UNL     1       3.602   0.680  -6.033  0.00  0.00    -0.270 OA
ATOM      9  N   UNL     1       4.161  -0.331  -4.136  0.00  0.00    -0.311 N 
ATOM     10  H   UNL     1       3.887  -0.670  -3.270  0.00  0.00    +0.149 HD
BRANCH   9  11
ATOM     11  C   UNL     1       5.558  -0.453  -4.562  0.00  0.00    +0.106 C 
BRANCH  11  12
ATOM     12  C   UNL     1       6.367  -1.148  -3.465  0.00  0.00    -0.011 C 
ATOM     13  C   UNL     1       7.798  -1.383  -3.957  0.00  0.00    +0.001 C 
ATOM     14  C   UNL     1       8.616  -2.025  -2.833  0.00  0.00    -0.018 C 
ATOM     15  C   UNL     1       8.585  -1.115  -1.603  0.00  0.00    -0.079 C 
ATOM     16  C   UNL     1       6.401  -0.264  -2.217  0.00  0.00    -0.074 C 
ATOM     17  C   UNL     1       7.135  -0.167   0.088  0.00  0.00    -0.096 C 
ATOM     18  N   UNL     1       7.183  -0.948  -1.165  0.00  0.00    +0.378 N 
ATOM     19  H   UNL     1       6.774  -1.875  -0.996  0.00  0.00    -0.082 HD
ENDBRANCH  11  12
ENDBRANCH   9  11
ENDBRANCH   3   7
BRANCH   5  20
ATOM     20  S   UNL     1      -1.585   1.860  -6.014  0.00  0.00    +0.059 S 
ATOM     21  O   UNL     1      -2.454   2.613  -5.179  0.00  0.00    -0.153 OA
ATOM     22  O   UNL     1      -0.853   2.449  -7.079  0.00  0.00    -0.153 OA
BRANCH  20  23
ATOM     23  N   UNL     1      -2.499   0.650  -6.680  0.00  0.00    -0.185 NA
ATOM     24  H   UNL     1      -3.439   0.573  -6.455  0.00  0.00    +0.149 HD
BRANCH  23  25
ATOM     25  C   UNL     1      -1.888  -0.302  -7.610  0.00  0.00    +0.032 C 
ATOM     26  C   UNL     1      -0.715  -1.005  -6.922  0.00  0.00    +0.029 C 
ATOM     27  C   UNL     1      -2.928  -1.342  -8.032  0.00  0.00    +0.029 C 
ATOM     28  C   UNL     1      -1.381   0.444  -8.846  0.00  0.00    +0.029 C 
ENDBRANCH  23  25
ENDBRANCH  20  23
ENDBRANCH   5  20
BRANCH   1  29
ATOM     29  N   UNL     1      -0.275  -0.479  -1.631  0.00  0.00    -0.339 N 
ATOM     30  H   UNL     1      -1.200  -0.396  -1.353  0.00  0.00    +0.146 HD
BRANCH  29  31
ATOM     31  C   UNL     1       0.701  -1.117  -0.743  0.00  0.00    +0.144 C 
BRANCH  31  36
ATOM     32  C   UNL     1      -1.634  -1.848   4.366  0.00  0.00    +0.051 C 
ATOM     33  C   UNL     1      -1.096  -1.899   2.959  0.00  0.00    -0.013 A 
ATOM     34  C   UNL     1      -1.156  -2.909   2.058  0.00  0.00    +0.011 A 
ATOM     35  C   UNL     1      -0.591  -2.729   0.810  0.00  0.00    +0.013 A 
ATOM     36  C   UNL     1       0.016  -1.551   0.527  0.00  0.00    +0.007 A 
ATOM     37  S   UNL     1      -0.212  -0.643   2.048  0.00  0.00    -0.097 S 
ENDBRANCH  31  36
ENDBRANCH  29  31
ENDBRANCH   1  29
TORSDOF 9
