REMARK  Name = ZINC13412391
REMARK  6 active torsions:
REMARK  status: ('A' for Active; 'I' for Inactive)
REMARK    1  A    between atoms: C_1  and  C_2
REMARK    2  A    between atoms: C_5  and  N_8
REMARK    3  A    between atoms: C_12  and  S_14
REMARK    4  A    between atoms: S_14  and  C_15
REMARK    5  A    between atoms: C_15  and  C_16
REMARK    6  A    between atoms: C_22  and  C_25
REMARK                            x       y       z     vdW  Elec       q    Type
REMARK                         _______ _______ _______ _____ _____    ______ ____
ROOT
ATOM      1  N   UNL     1      -2.266   5.674  -9.223  0.00  0.00    -0.292 N 
ATOM      2  C   UNL     1      -1.919   5.263  -7.941  0.00  0.00    +0.187 A 
ATOM      3  N   UNL     1      -2.633   4.599  -7.053  0.00  0.00    -0.125 NA
ATOM      4  N   UNL     1      -2.087   4.286  -5.830  0.00  0.00    -0.133 NA
ATOM      5  C   UNL     1      -0.855   4.661  -5.546  0.00  0.00    +0.160 A 
ATOM      6  S   UNL     1      -0.385   5.494  -7.055  0.00  0.00    -0.024 S 
ATOM      7  H   UNL     1      -1.601   6.083  -9.798  0.00  0.00    +0.154 HD
ENDROOT
BRANCH   1  12
ATOM      8  C   UNL     1      -7.573   4.956 -11.089  0.00  0.00    +0.044 C 
ATOM      9  C   UNL     1      -6.163   5.147 -10.593  0.00  0.00    -0.050 A 
ATOM     10  C   UNL     1      -5.919   5.264  -9.237  0.00  0.00    +0.005 A 
ATOM     11  C   UNL     1      -4.628   5.439  -8.779  0.00  0.00    +0.023 A 
ATOM     12  C   UNL     1      -3.574   5.497  -9.682  0.00  0.00    +0.033 A 
ATOM     13  C   UNL     1      -3.824   5.386 -11.044  0.00  0.00    +0.023 A 
ATOM     14  C   UNL     1      -5.117   5.205 -11.495  0.00  0.00    +0.005 A 
ENDBRANCH   1  12
BRANCH   5  15
ATOM     15  S   UNL     1       0.081   4.402  -4.076  0.00  0.00    -0.088 S 
BRANCH  15  16
ATOM     16  C   UNL     1      -1.050   3.488  -2.991  0.00  0.00    +0.172 C 
BRANCH  16  17
ATOM     17  C   UNL     1      -0.365   3.198  -1.681  0.00  0.00    +0.226 C 
ATOM     18  O   UNL     1       0.774   3.572  -1.496  0.00  0.00    -0.275 OA
ATOM     19  N   UNL     1      -1.018   2.524  -0.714  0.00  0.00    -0.300 N 
ATOM     20  C   UNL     1      -2.398   2.066  -0.922  0.00  0.00    +0.108 C 
ATOM     21  C   UNL     1      -3.268   2.580   0.230  0.00  0.00    +0.020 C 
ATOM     22  C   UNL     1      -2.654   2.141   1.562  0.00  0.00    +0.018 C 
ATOM     23  C   UNL     1      -1.252   2.747   1.707  0.00  0.00    +0.119 C 
ATOM     24  C   UNL     1      -0.363   2.234   0.569  0.00  0.00    +0.122 C 
BRANCH  23  25
ATOM     25  C   UNL     1      -0.659   2.341   3.031  0.00  0.00    +0.361 C 
ATOM     26  O   UNL     1      -1.290   1.642   3.788  0.00  0.00    -0.246 OA
ATOM     27  O   UNL     1       0.572   2.755   3.370  0.00  0.00    -0.246 OA
ENDBRANCH  23  25
ENDBRANCH  16  17
ENDBRANCH  15  16
ENDBRANCH   5  15
TORSDOF 5
