REMARK  Name = ZINC43764209
REMARK  11 active torsions:
REMARK  status: ('A' for Active; 'I' for Inactive)
REMARK    1  A    between atoms: C_1  and  C_2
REMARK    2  A    between atoms: C_2  and  C_4
REMARK    3  A    between atoms: C_2  and  C_10
REMARK    4  A    between atoms: C_4  and  C_5
REMARK    5  A    between atoms: C_5  and  C_6
REMARK    6  A    between atoms: C_6  and  O_8
REMARK    7  A    between atoms: O_8  and  C_9
REMARK    8  A    between atoms: C_16  and  C_38
REMARK    9  A    between atoms: C_24  and  O_37
REMARK   10  A    between atoms: C_29  and  C_36
REMARK   11  A    between atoms: C_32  and  O_35
REMARK                            x       y       z     vdW  Elec       q    Type
REMARK                         _______ _______ _______ _____ _____    ______ ____
ROOT
ATOM      1  C   UNL     1       0.421  -0.659   1.320  0.00  0.00    +0.005 C 
ATOM      2  C   UNL     1       0.310  -2.202   1.214  0.00  0.00    +0.005 C 
ATOM      3  C   UNL     1       1.758  -2.754   1.336  0.00  0.00    +0.005 C 
ATOM      4  C   UNL     1       2.609  -1.565   0.888  0.00  0.00    +0.008 C 
ATOM      5  C   UNL     1       1.891  -0.382   1.604  0.00  0.00    +0.032 C 
ATOM      6  C   UNL     1       2.484   0.867   1.027  0.00  0.00    +0.140 C 
ATOM      7  O   UNL     1       1.815   1.707   0.475  0.00  0.00    -0.297 OA
ATOM      8  C   UNL     1       3.992   1.002   1.188  0.00  0.00    +0.079 C 
ATOM      9  C   UNL     1       4.701  -0.272   0.731  0.00  0.00    +0.008 C 
ATOM     10  C   UNL     1       4.061  -1.546   1.315  0.00  0.00    +0.026 C 
ATOM     11  C   UNL     1       4.784  -2.783   0.779  0.00  0.00    +0.118 C 
ATOM     12  C   UNL     1       6.260  -2.727   1.178  0.00  0.00    +0.035 C 
ATOM     13  C   UNL     1       6.900  -1.471   0.585  0.00  0.00    +0.000 C 
ATOM     14  C   UNL     1       6.173  -0.210   1.144  0.00  0.00    -0.025 C 
ATOM     15  C   UNL     1       6.816   1.045   0.551  0.00  0.00    +0.010 C 
ATOM     16  C   UNL     1       6.714   0.998  -0.975  0.00  0.00    +0.032 C 
ATOM     17  C   UNL     1       7.443  -0.242  -1.497  0.00  0.00    +0.115 C 
ATOM     18  C   UNL     1       6.785  -1.511  -0.940  0.00  0.00    +0.035 C 
ATOM     19  C   UNL     1       6.273  -0.163   2.670  0.00  0.00    +0.012 C 
ATOM     20  C   UNL     1       2.151  -0.447   3.110  0.00  0.00    +0.019 C 
ENDROOT
BRANCH   1  22
ATOM     21  C   UNL     1      -1.452  -0.366  -0.308  0.00  0.00    +0.008 C 
ATOM     22  C   UNL     1       0.002  -0.004   0.002  0.00  0.00    -0.010 C 
BRANCH  22  23
ATOM     23  C   UNL     1       0.905  -0.507  -1.126  0.00  0.00    +0.015 C 
BRANCH  23  24
ATOM     24  C   UNL     1       0.400   0.037  -2.464  0.00  0.00    +0.121 C 
BRANCH  24  25
ATOM     25  C   UNL     1       1.289  -0.458  -3.576  0.00  0.00    +0.307 C 
ATOM     26  O   UNL     1       2.230  -1.173  -3.324  0.00  0.00    -0.251 OA
BRANCH  25  27
ATOM     27  O   UNL     1       1.036  -0.105  -4.846  0.00  0.00    -0.468 OA
ATOM     28  C   UNL     1       1.919  -0.611  -5.848  0.00  0.00    +0.280 C 
ENDBRANCH  25  27
ENDBRANCH  24  25
ENDBRANCH  23  24
ENDBRANCH  22  23
ENDBRANCH   1  22
BRANCH  17  29
ATOM     29  O   UNL     1       8.818  -0.183  -1.115  0.00  0.00    -0.392 OA
ATOM     30  H   UNL     1       9.289   0.590  -1.457  0.00  0.00    +0.210 HD
ENDBRANCH  17  29
BRANCH  11  31
ATOM     31  O   UNL     1       4.187  -3.959   1.328  0.00  0.00    -0.391 OA
ATOM     32  H   UNL     1       4.596  -4.783   1.031  0.00  0.00    +0.210 HD
ENDBRANCH  11  31
TORSDOF 7
