REMARK  Name = ZINC58990633
REMARK  10 active torsions:
REMARK  status: ('A' for Active; 'I' for Inactive)
REMARK    1  A    between atoms: C_1  and  C_2
REMARK    2  A    between atoms: C_5  and  C_7
REMARK    3  A    between atoms: N_8  and  N_9
REMARK    4  A    between atoms: C_10  and  C_12
REMARK    5  A    between atoms: C_12  and  C_13
REMARK    6  A    between atoms: C_13  and  C_14
REMARK    7  A    between atoms: C_14  and  S_15
REMARK    8  A    between atoms: S_15  and  C_16
REMARK    9  A    between atoms: C_19  and  C_22
REMARK   10  A    between atoms: N_20  and  N_21
REMARK                            x       y       z     vdW  Elec       q    Type
REMARK                         _______ _______ _______ _____ _____    ______ ____
ROOT
ATOM      1  S   UNL     1      10.205  -5.198  -0.076  0.00  0.00    -0.084 S 
ENDROOT
BRANCH   1   2
ATOM      2  C   UNL     1      11.167  -6.674  -0.088  0.00  0.00    +0.209 A 
ATOM      3  N   UNL     1      10.706  -7.905  -0.099  0.00  0.00    -0.121 NA
ATOM      4  N   UNL     1      11.682  -8.741  -0.106  0.00  0.00    -0.127 NA
ATOM      5  C   UNL     1      12.825  -8.096  -0.101  0.00  0.00    +0.182 A 
ATOM      6  N   UNL     1      12.530  -6.752  -0.095  0.00  0.00    -0.224 N 
BRANCH   5   7
ATOM      7  C   UNL     1      14.175  -8.700  -0.106  0.00  0.00    +0.021 A 
ATOM      8  C   UNL     1      15.290  -7.925   0.219  0.00  0.00    +0.013 A 
ATOM      9  C   UNL     1      16.546  -8.494   0.212  0.00  0.00    +0.016 A 
ATOM     10  C   UNL     1      16.703  -9.830  -0.117  0.00  0.00    +0.018 A 
ATOM     11  C   UNL     1      15.600 -10.603  -0.440  0.00  0.00    +0.016 A 
ATOM     12  C   UNL     1      14.338 -10.047  -0.430  0.00  0.00    +0.013 A 
ATOM     13 BR   UNL     1      18.429 -10.602  -0.124  0.00  0.00    -0.050 Br
ENDBRANCH   5   7
BRANCH   6  14
ATOM     14  N   UNL     1      13.417  -5.713  -0.095  0.00  0.00    -0.295 N 
ATOM     15  H   UNL     1      13.656  -5.442   0.848  0.00  0.00    +0.163 HD
ATOM     16  H   UNL     1      14.243  -5.942  -0.626  0.00  0.00    +0.163 HD
ENDBRANCH   6  14
ENDBRANCH   1   2
BRANCH   1  17
ATOM     17  C   UNL     1       8.491  -5.791  -0.071  0.00  0.00    +0.078 C 
BRANCH  17  18
ATOM     18  C   UNL     1       7.537  -4.595  -0.060  0.00  0.00    +0.020 C 
BRANCH  18  19
ATOM     19  C   UNL     1       6.091  -5.096  -0.056  0.00  0.00    +0.098 C 
BRANCH  19  21
ATOM     20  N   UNL     1       3.819  -4.118  -0.039  0.00  0.00    -0.207 N 
ATOM     21  C   UNL     1       5.151  -3.917  -0.045  0.00  0.00    +0.232 C 
ATOM     22  O   UNL     1       5.595  -2.788  -0.041  0.00  0.00    -0.274 OA
ATOM     23  H   UNL     1       3.464  -5.021  -0.042  0.00  0.00    +0.177 HD
BRANCH  20  25
ATOM     24  C   UNL     1       1.659  -3.217  -0.024  0.00  0.00    +0.176 C 
ATOM     25  N   UNL     1       2.945  -3.023  -0.029  0.00  0.00    -0.185 NA
BRANCH  24  30
ATOM     26  C   UNL     1      -0.018   1.503   0.010  0.00  0.00    +0.086 C 
ATOM     27  C   UNL     1       0.002  -0.004   0.002  0.00  0.00    +0.103 A 
ATOM     28  C   UNL     1      -1.084  -0.804   0.003  0.00  0.00    +0.045 A 
ATOM     29  C   UNL     1      -0.619  -2.132  -0.007  0.00  0.00    +0.051 A 
ATOM     30  C   UNL     1       0.745  -2.071  -0.013  0.00  0.00    +0.148 A 
ATOM     31  O   UNL     1       1.104  -0.771  -0.013  0.00  0.00    -0.459 OA
ENDBRANCH  24  30
ENDBRANCH  20  25
ENDBRANCH  19  21
ENDBRANCH  18  19
ENDBRANCH  17  18
ENDBRANCH   1  17
TORSDOF 9
