REMARK  Name = ZINC20757418
REMARK  5 active torsions:
REMARK  status: ('A' for Active; 'I' for Inactive)
REMARK    1  A    between atoms: C_1  and  C_2
REMARK    2  A    between atoms: C_2  and  N_3
REMARK    3  A    between atoms: C_4  and  C_6
REMARK    4  A    between atoms: C_19  and  C_22
REMARK    5  A    between atoms: C_25  and  N_28
REMARK                            x       y       z     vdW  Elec       q    Type
REMARK                         _______ _______ _______ _____ _____    ______ ____
ROOT
ATOM      1  C   UNL     1      -3.635   5.185  -1.345  0.00  0.00    +0.037 A 
ATOM      2  C   UNL     1      -2.992   6.356  -1.756  0.00  0.00    +0.015 A 
ATOM      3  C   UNL     1      -1.635   6.491  -1.583  0.00  0.00    +0.024 A 
ATOM      4  C   UNL     1      -0.890   5.469  -1.000  0.00  0.00    +0.031 A 
ATOM      5  C   UNL     1      -1.539   4.300  -0.575  0.00  0.00    -0.019 A 
ATOM      6  C   UNL     1      -2.893   4.159  -0.752  0.00  0.00    +0.019 A 
ATOM      7  C   UNL     1      -0.710   3.252   0.060  0.00  0.00    +0.049 C 
ATOM      8  C   UNL     1      -1.110   1.823   0.017  0.00  0.00    -0.023 C 
ATOM      9  C   UNL     1      -0.013   1.076   0.008  0.00  0.00    -0.030 C 
ATOM     10  C   UNL     1       1.229   1.970   0.001  0.00  0.00    +0.033 C 
ATOM     11  C   UNL     1       0.681   3.253  -0.640  0.00  0.00    +0.029 C 
ATOM     12  C   UNL     1       1.336   4.562  -0.238  0.00  0.00    +0.105 C 
ATOM     13  N   UNL     1       0.490   5.622  -0.872  0.00  0.00    -0.336 N 
ATOM     14  H   UNL     1       0.956   6.545  -1.249  0.00  0.00    +0.147 HD
ENDROOT
BRANCH  12  15
ATOM     15  C   UNL     1       2.741   4.629  -0.777  0.00  0.00    -0.027 A 
ATOM     16  C   UNL     1       2.958   4.972  -2.099  0.00  0.00    +0.008 A 
ATOM     17  C   UNL     1       4.248   5.038  -2.593  0.00  0.00    +0.033 A 
ATOM     18  C   UNL     1       5.319   4.752  -1.768  0.00  0.00    +0.126 A 
ATOM     19  C   UNL     1       5.102   4.404  -0.448  0.00  0.00    +0.033 A 
ATOM     20  C   UNL     1       3.813   4.343   0.048  0.00  0.00    +0.008 A 
BRANCH  18  21
ATOM     21  N   UNL     1       6.700   4.817  -2.299  0.00  0.00    +0.056 N 
ATOM     22  O   UNL     1       7.644   4.564  -1.572  0.00  0.00    -0.126 OA
ATOM     23  O   UNL     1       6.891   5.123  -3.462  0.00  0.00    -0.126 OA
ENDBRANCH  18  21
ENDBRANCH  12  15
BRANCH   1  25
ATOM     24  N   UNL     1      -5.802   6.023  -2.109  0.00  0.00    -0.312 N 
ATOM     25  C   UNL     1      -5.090   5.032  -1.536  0.00  0.00    +0.244 C 
ATOM     26  O   UNL     1      -5.647   4.012  -1.178  0.00  0.00    -0.270 OA
ATOM     27  H   UNL     1      -5.299   6.946  -2.433  0.00  0.00    +0.149 HD
BRANCH  24  29
ATOM     28  C   UNL     1      -7.809   7.129  -2.964  0.00  0.00    +0.024 C 
ATOM     29  C   UNL     1      -7.247   5.871  -2.299  0.00  0.00    +0.101 C 
ENDBRANCH  24  29
ENDBRANCH   1  25
TORSDOF 4
