REMARK  Name = ZINC17723239
REMARK  7 active torsions:
REMARK  status: ('A' for Active; 'I' for Inactive)
REMARK    1  A    between atoms: C_1  and  C_2
REMARK    2  A    between atoms: C_2  and  C_28
REMARK    3  A    between atoms: N_6  and  C_7
REMARK    4  A    between atoms: C_10  and  S_13
REMARK    5  A    between atoms: S_13  and  N_16
REMARK    6  A    between atoms: C_23  and  O_26
REMARK    7  A    between atoms: O_26  and  C_27
REMARK                            x       y       z     vdW  Elec       q    Type
REMARK                         _______ _______ _______ _____ _____    ______ ____
ROOT
ATOM      1  C   UNL     1       0.627   2.161   0.164  0.00  0.00    +0.037 C 
ATOM      2  C   UNL     1       0.490   0.643   0.295  0.00  0.00    +0.059 C 
ATOM      3  C   UNL     1       1.007  -0.024  -0.963  0.00  0.00    +0.030 A 
ATOM      4  C   UNL     1       2.300  -0.442  -1.125  0.00  0.00    +0.029 A 
ATOM      5  C   UNL     1       2.847  -1.026  -2.307  0.00  0.00    +0.117 A 
ATOM      6  N   UNL     1       4.110  -1.399  -2.484  0.00  0.00    -0.240 NA
ATOM      7  S   UNL     1       1.529  -1.165  -3.506  0.00  0.00    -0.032 S 
ATOM      8  S   UNL     1       0.046  -0.328  -2.310  0.00  0.00    -0.052 S 
ATOM      9  C   UNL     1       3.219  -0.285   0.067  0.00  0.00    +0.010 A 
ATOM     10  C   UNL     1       4.587  -0.464  -0.081  0.00  0.00    +0.010 A 
ATOM     11  C   UNL     1       5.413  -0.303   1.018  0.00  0.00    +0.004 A 
ATOM     12  C   UNL     1       4.876   0.034   2.248  0.00  0.00    +0.047 A 
ATOM     13  C   UNL     1       3.509   0.208   2.401  0.00  0.00    +0.141 A 
ATOM     14  C   UNL     1       2.669   0.042   1.304  0.00  0.00    +0.078 A 
ATOM     15  N   UNL     1       1.281   0.174   1.440  0.00  0.00    -0.331 N 
ATOM     16  C   UNL     1      -0.981   0.277   0.505  0.00  0.00    +0.037 C 
ATOM     17  H   UNL     1       0.848  -0.041   2.280  0.00  0.00    +0.147 HD
ENDROOT
BRANCH   6  18
ATOM     18  C   UNL     1       4.688  -2.281  -1.618  0.00  0.00    +0.065 A 
ATOM     19  C   UNL     1       3.894  -3.032  -0.745  0.00  0.00    +0.029 A 
ATOM     20  C   UNL     1       4.486  -3.921   0.126  0.00  0.00    +0.030 A 
ATOM     21  C   UNL     1       5.862  -4.072   0.139  0.00  0.00    +0.105 A 
ATOM     22  C   UNL     1       6.654  -3.332  -0.722  0.00  0.00    +0.030 A 
ATOM     23  C   UNL     1       6.077  -2.443  -1.603  0.00  0.00    +0.029 A 
BRANCH  21  24
ATOM     24  S   UNL     1       6.609  -5.210   1.257  0.00  0.00    +0.056 S 
ATOM     25  O   UNL     1       7.905  -4.705   1.546  0.00  0.00    -0.153 OA
ATOM     26  O   UNL     1       5.650  -5.471   2.273  0.00  0.00    -0.153 OA
BRANCH  24  27
ATOM     27  N   UNL     1       6.827  -6.632   0.436  0.00  0.00    -0.204 NA
ATOM     28  H   UNL     1       7.605  -7.182   0.618  0.00  0.00    +0.144 HD
ATOM     29  H   UNL     1       6.177  -6.913  -0.227  0.00  0.00    +0.144 HD
ENDBRANCH  24  27
ENDBRANCH  21  24
ENDBRANCH   6  18
BRANCH  13  30
ATOM     30  O   UNL     1       2.992   0.539   3.615  0.00  0.00    -0.493 OA
ATOM     31  C   UNL     1       3.916   0.693   4.693  0.00  0.00    +0.277 C 
ENDBRANCH  13  30
TORSDOF 4
