REMARK  Name = ZINC57589707
REMARK  7 active torsions:
REMARK  status: ('A' for Active; 'I' for Inactive)
REMARK    1  A    between atoms: C_1  and  C_2
REMARK    2  A    between atoms: C_12  and  C_14
REMARK    3  A    between atoms: C_14  and  C_16
REMARK    4  A    between atoms: C_14  and  N_29
REMARK    5  A    between atoms: N_20  and  C_21
REMARK    6  A    between atoms: C_21  and  C_22
REMARK    7  A    between atoms: C_32  and  O_35
REMARK                            x       y       z     vdW  Elec       q    Type
REMARK                         _______ _______ _______ _____ _____    ______ ____
ROOT
ATOM      1  C   UNL     1       0.085  -2.864   4.922  0.00  0.00    +0.162 C 
ENDROOT
BRANCH   1  13
ATOM      2  C   UNL     1       0.508   0.900  -0.450  0.00  0.00    +0.046 C 
ATOM      3  C   UNL     1      -0.589   0.743   0.571  0.00  0.00    -0.026 A 
ATOM      4  C   UNL     1      -1.756   1.466   0.450  0.00  0.00    +0.005 A 
ATOM      5  C   UNL     1      -2.774   1.330   1.384  0.00  0.00    +0.001 A 
ATOM      6  C   UNL     1      -2.638   0.476   2.441  0.00  0.00    +0.010 A 
ATOM      7  C   UNL     1      -1.463  -0.269   2.584  0.00  0.00    -0.001 A 
ATOM      8  C   UNL     1      -0.430  -0.138   1.636  0.00  0.00    +0.052 A 
ATOM      9  N   UNL     1       0.724  -0.878   1.779  0.00  0.00    -0.322 N 
ATOM     10  H   UNL     1       1.436  -0.783   1.127  0.00  0.00    +0.169 HD
ATOM     11  C   UNL     1       0.878  -1.728   2.809  0.00  0.00    +0.254 A 
ATOM     12  O   UNL     1       1.912  -2.365   2.905  0.00  0.00    -0.268 OA
ATOM     13  C   UNL     1      -0.129  -1.900   3.783  0.00  0.00    +0.042 A 
ATOM     14  C   UNL     1      -1.284  -1.193   3.705  0.00  0.00    +0.021 A 
ENDBRANCH   1  13
BRANCH   1  15
ATOM     15  N   UNL     1       1.286  -2.476   5.673  0.00  0.00    -0.289 NA
ATOM     16  C   UNL     1       1.184  -1.090   6.148  0.00  0.00    +0.088 C 
ATOM     17  C   UNL     1       2.506  -0.673   6.798  0.00  0.00    +0.047 C 
ATOM     18  C   UNL     1       2.812  -1.612   7.968  0.00  0.00    +0.117 C 
ATOM     19  C   UNL     1       2.865  -3.054   7.455  0.00  0.00    +0.047 C 
ATOM     20  C   UNL     1       1.533  -3.401   6.786  0.00  0.00    +0.088 C 
BRANCH  18  21
ATOM     21  O   UNL     1       4.073  -1.263   8.542  0.00  0.00    -0.392 OA
ATOM     22  H   UNL     1       4.331  -1.818   9.291  0.00  0.00    +0.210 HD
ENDBRANCH  18  21
ENDBRANCH   1  15
BRANCH   1  23
ATOM     23  C   UNL     1      -1.112  -2.835   5.837  0.00  0.00    +0.173 A 
ATOM     24  N   UNL     1      -1.419  -1.891   6.693  0.00  0.00    -0.111 NA
ATOM     25  N   UNL     1      -2.512  -2.231   7.285  0.00  0.00    -0.023 NA
ATOM     26  N   UNL     1      -2.910  -3.367   6.828  0.00  0.00    -0.044 NA
ATOM     27  N   UNL     1      -2.075  -3.770   5.930  0.00  0.00    -0.223 N 
BRANCH  27  28
ATOM     28  C   UNL     1      -2.160  -5.012   5.159  0.00  0.00    +0.182 C 
BRANCH  28  29
ATOM     29  C   UNL     1      -1.439  -6.111   5.897  0.00  0.00    -0.026 A 
ATOM     30  C   UNL     1      -0.093  -6.327   5.671  0.00  0.00    +0.008 A 
ATOM     31  C   UNL     1       0.569  -7.334   6.347  0.00  0.00    +0.038 A 
ATOM     32  C   UNL     1      -0.117  -8.127   7.252  0.00  0.00    +0.123 A 
ATOM     33  C   UNL     1      -1.466  -7.910   7.477  0.00  0.00    +0.038 A 
ATOM     34  C   UNL     1      -2.124  -6.899   6.803  0.00  0.00    +0.008 A 
ATOM     35  F   UNL     1       0.529  -9.112   7.913  0.00  0.00    -0.205 F 
ENDBRANCH  28  29
ENDBRANCH  27  28
ENDBRANCH   1  23
TORSDOF 6
