REMARK  Name = ZINC10220479
REMARK  4 active torsions:
REMARK  status: ('A' for Active; 'I' for Inactive)
REMARK    1  A    between atoms: C_3  and  N_22
REMARK    2  A    between atoms: C_4  and  C_8
REMARK    3  A    between atoms: N_10  and  C_11
REMARK    4  A    between atoms: C_11  and  C_12
REMARK                            x       y       z     vdW  Elec       q    Type
REMARK                         _______ _______ _______ _____ _____    ______ ____
ROOT
ATOM      1  C   UNL     1       2.578   3.626   0.182  0.00  0.00    +0.246 C 
ATOM      2  O   UNL     1       3.564   2.922   0.086  0.00  0.00    -0.270 OA
ATOM      3  N   UNL     1       2.713   4.955   0.365  0.00  0.00    -0.309 N 
ATOM      4  H   UNL     1       1.926   5.516   0.442  0.00  0.00    +0.149 HD
ENDROOT
BRANCH   1   8
ATOM      5  C   UNL     1      -1.296   1.899  -0.070  0.00  0.00    +0.022 A 
ATOM      6  C   UNL     1      -0.178   1.083  -0.038  0.00  0.00    +0.035 A 
ATOM      7  C   UNL     1       1.082   1.638   0.042  0.00  0.00    +0.138 A 
ATOM      8  C   UNL     1       1.229   3.025   0.096  0.00  0.00    +0.068 A 
ATOM      9  C   UNL     1       0.099   3.843   0.069  0.00  0.00    +0.035 A 
ATOM     10  C   UNL     1      -1.158   3.275  -0.011  0.00  0.00    +0.042 A 
ATOM     11 CL   UNL     1      -2.566   4.289  -0.045  0.00  0.00    -0.084 Cl
BRANCH   7  12
ATOM     12  N   UNL     1       2.277   0.764   0.070  0.00  0.00    +0.057 N 
ATOM     13  O   UNL     1       2.415  -0.105  -0.772  0.00  0.00    -0.126 OA
ATOM     14  O   UNL     1       3.121   0.915   0.934  0.00  0.00    -0.126 OA
ENDBRANCH   7  12
ENDBRANCH   1   8
BRANCH   3  15
ATOM     15  C   UNL     1       4.049   5.550   0.450  0.00  0.00    +0.138 C 
BRANCH  15  16
ATOM     16  C   UNL     1       3.922   7.060   0.659  0.00  0.00    +0.164 C 
ATOM     17  C   UNL     1       5.320   7.716   0.698  0.00  0.00    +0.196 C 
ATOM     18  O   UNL     1       5.184   8.712   1.743  0.00  0.00    -0.346 OA
ATOM     19  C   UNL     1       4.316   8.074   2.693  0.00  0.00    +0.171 C 
ATOM     20  O   UNL     1       3.340   7.340   1.946  0.00  0.00    -0.342 OA
ATOM     21  C   UNL     1       5.120   7.134   3.604  0.00  0.00    +0.065 C 
ATOM     22  C   UNL     1       5.383   7.979   4.878  0.00  0.00    +0.005 C 
ATOM     23  C   UNL     1       4.063   8.774   5.041  0.00  0.00    +0.005 C 
ATOM     24  C   UNL     1       3.645   9.116   3.594  0.00  0.00    +0.065 C 
ENDBRANCH  15  16
ENDBRANCH   3  15
TORSDOF 4
