REMARK  Name = ZINC16980087
REMARK  6 active torsions:
REMARK  status: ('A' for Active; 'I' for Inactive)
REMARK    1  A    between atoms: C_1  and  N_2
REMARK    2  A    between atoms: N_4  and  C_5
REMARK    3  A    between atoms: N_6  and  N_7
REMARK    4  A    between atoms: C_8  and  C_9
REMARK    5  A    between atoms: C_8  and  C_19
REMARK    6  A    between atoms: C_12  and  C_15
REMARK                            x       y       z     vdW  Elec       q    Type
REMARK                         _______ _______ _______ _____ _____    ______ ____
ROOT
ATOM      1  N   UNL     1      -1.755   1.351   0.361  0.00  0.00    -0.171 NA
ATOM      2  C   UNL     1      -0.684   2.093   0.259  0.00  0.00    +0.098 C 
ENDROOT
BRANCH   1   8
ATOM      3  C   UNL     1      -1.316  -2.817   0.614  0.00  0.00    +0.142 C 
ATOM      4  N   UNL     1      -2.634  -2.188   0.722  0.00  0.00    -0.359 N 
ATOM      5  C   UNL     1      -2.750  -0.818   0.661  0.00  0.00    +0.191 C 
ATOM      6  N   UNL     1      -3.913  -0.254   0.830  0.00  0.00    -0.359 N 
ATOM      7  C   UNL     1      -5.074  -1.067   1.200  0.00  0.00    +0.142 C 
ATOM      8  N   UNL     1      -1.637  -0.044   0.423  0.00  0.00    -0.248 N 
ATOM      9  H   UNL     1      -3.532  -2.810   0.851  0.00  0.00    +0.162 HD
ATOM     10  H   UNL     1      -0.656  -0.520   0.280  0.00  0.00    +0.192 HD
ATOM     11  H   UNL     1      -4.022   0.832   0.695  0.00  0.00    +0.162 HD
ENDBRANCH   1   8
BRANCH   2  12
ATOM     12  C   UNL     1      -0.813   3.550   0.030  0.00  0.00    +0.003 A 
ATOM     13  C   UNL     1       0.314   4.370   0.092  0.00  0.00    +0.011 A 
ATOM     14  C   UNL     1       0.189   5.727  -0.127  0.00  0.00    +0.016 A 
ATOM     15  C   UNL     1      -1.053   6.276  -0.397  0.00  0.00    +0.018 A 
ATOM     16  C   UNL     1      -2.175   5.467  -0.455  0.00  0.00    +0.016 A 
ATOM     17  C   UNL     1      -2.062   4.109  -0.243  0.00  0.00    +0.011 A 
ATOM     18 BR   UNL     1      -1.217   8.136  -0.690  0.00  0.00    -0.050 Br
ENDBRANCH   2  12
BRANCH   2  19
ATOM     19  C   UNL     1       0.657   1.477   0.372  0.00  0.00    +0.003 A 
ATOM     20  C   UNL     1       0.882   0.453   1.292  0.00  0.00    +0.010 A 
ATOM     21  C   UNL     1       2.136  -0.114   1.396  0.00  0.00    +0.013 A 
ATOM     22  C   UNL     1       3.168   0.331   0.590  0.00  0.00    +0.055 A 
ATOM     23  C   UNL     1       2.951   1.346  -0.325  0.00  0.00    +0.013 A 
ATOM     24  C   UNL     1       1.702   1.921  -0.438  0.00  0.00    +0.010 A 
BRANCH  22  25
ATOM     25  C   UNL     1       4.535  -0.292   0.709  0.00  0.00    +0.417 C 
ATOM     26  F   UNL     1       5.287   0.408   1.658  0.00  0.00    -0.166 F 
ATOM     27  F   UNL     1       4.406  -1.627   1.108  0.00  0.00    -0.166 F 
ATOM     28  F   UNL     1       5.182  -0.237  -0.531  0.00  0.00    -0.166 F 
ENDBRANCH  22  25
ENDBRANCH   2  19
TORSDOF 4
