REMARK  Name = ZINC09177061
REMARK  15 active torsions:
REMARK  status: ('A' for Active; 'I' for Inactive)
REMARK    1  A    between atoms: C_1  and  C_2
REMARK    2  A    between atoms: C_7  and  O_8
REMARK    3  A    between atoms: O_8  and  C_9
REMARK    4  A    between atoms: C_9  and  C_10
REMARK    5  A    between atoms: C_10  and  O_11
REMARK    6  A    between atoms: O_11  and  C_12
REMARK    7  A    between atoms: C_15  and  C_18
REMARK    8  A    between atoms: C_21  and  C_22
REMARK    9  A    between atoms: C_21  and  O_28
REMARK   10  A    between atoms: C_25  and  C_27
REMARK   11  A    between atoms: N_33  and  C_34
REMARK   12  A    between atoms: C_34  and  C_35
REMARK   13  A    between atoms: C_35  and  N_69
REMARK   14  A    between atoms: C_36  and  N_69
REMARK   15  A    between atoms: C_37  and  N_69
REMARK                            x       y       z     vdW  Elec       q    Type
REMARK                         _______ _______ _______ _____ _____    ______ ____
ROOT
ATOM      1  C   UNL     1      -2.061  -3.264  -0.222  0.00  0.00    +0.144 C 
ATOM      2  C   UNL     1      -0.968  -2.228  -0.105  0.00  0.00    +0.074 C 
ATOM      3  C   UNL     1      -1.131  -0.854   0.008  0.00  0.00    +0.168 C 
ATOM      4  C   UNL     1       0.241  -2.930  -0.142  0.00  0.00    +0.249 C 
ATOM      5  O   UNL     1       1.355  -2.438  -0.078  0.00  0.00    -0.282 OA
ATOM      6  C   UNL     1      -0.065  -4.379  -0.269  0.00  0.00    +0.288 C 
ATOM      7  O   UNL     1       0.765  -5.263  -0.325  0.00  0.00    -0.266 OA
ATOM      8  N   UNL     1      -1.395  -4.567  -0.317  0.00  0.00    -0.285 N 
ENDROOT
BRANCH   1  12
ATOM      9  C   UNL     1      -4.390  -2.550  -3.733  0.00  0.00    +0.121 A 
ATOM     10  C   UNL     1      -4.870  -2.162  -2.490  0.00  0.00    +0.046 A 
ATOM     11  C   UNL     1      -4.115  -2.394  -1.356  0.00  0.00    +0.009 A 
ATOM     12  C   UNL     1      -2.882  -3.012  -1.460  0.00  0.00    -0.022 A 
ATOM     13  C   UNL     1      -2.400  -3.394  -2.698  0.00  0.00    +0.009 A 
ATOM     14  C   UNL     1      -3.153  -3.169  -3.834  0.00  0.00    +0.046 A 
BRANCH   9  15
ATOM     15  O   UNL     1      -5.131  -2.322  -4.849  0.00  0.00    -0.489 OA
BRANCH  15  16
ATOM     16  C   UNL     1      -4.574  -2.748  -6.095  0.00  0.00    +0.270 C 
BRANCH  16  17
ATOM     17  C   UNL     1      -5.544  -2.411  -7.229  0.00  0.00    +0.270 C 
BRANCH  17  18
ATOM     18  O   UNL     1      -5.674  -0.992  -7.338  0.00  0.00    -0.488 OA
BRANCH  18  25
ATOM     19  C   UNL     1      -5.955   1.810  -7.563  0.00  0.00    +0.047 C 
ATOM     20  C   UNL     1      -6.684   0.846  -8.463  0.00  0.00    -0.009 A 
ATOM     21  C   UNL     1      -7.526   1.322  -9.449  0.00  0.00    +0.007 A 
ATOM     22  C   UNL     1      -8.199   0.437 -10.271  0.00  0.00    +0.000 A 
ATOM     23  C   UNL     1      -8.027  -0.926 -10.112  0.00  0.00    +0.004 A 
ATOM     24  C   UNL     1      -7.182  -1.407  -9.131  0.00  0.00    +0.046 A 
ATOM     25  C   UNL     1      -6.506  -0.521  -8.304  0.00  0.00    +0.124 A 
ENDBRANCH  18  25
ENDBRANCH  17  18
ENDBRANCH  16  17
ENDBRANCH  15  16
ENDBRANCH   9  15
ENDBRANCH   1  12
BRANCH   3  26
ATOM     26  C   UNL     1       0.001  -0.003  -0.012  0.00  0.00    +0.170 A 
ATOM     27  C   UNL     1       0.151   1.134  -0.783  0.00  0.00    +0.053 A 
ATOM     28  C   UNL     1       1.417   1.655  -0.483  0.00  0.00    +0.045 A 
ATOM     29  C   UNL     1       1.979   0.837   0.437  0.00  0.00    +0.103 A 
ATOM     30  O   UNL     1       1.126  -0.157   0.717  0.00  0.00    -0.457 OA
ATOM     31  C   UNL     1       3.344   1.016   1.049  0.00  0.00    +0.086 C 
ENDBRANCH   3  26
BRANCH   3  32
ATOM     32  O   UNL     1      -2.369  -0.329   0.139  0.00  0.00    -0.503 OA
ATOM     33  H   UNL     1      -2.304   0.666   0.207  0.00  0.00    +0.292 HD
ENDBRANCH   3  32
BRANCH   8  34
ATOM     34  C   UNL     1      -2.068  -5.861  -0.446  0.00  0.00    +0.090 C 
BRANCH  34  35
ATOM     35  C   UNL     1      -2.268  -6.188  -1.927  0.00  0.00    -0.060 C 
BRANCH  35  38
ATOM     36  C   UNL     1      -4.311  -7.423  -1.524  0.00  0.00    -0.097 C 
ATOM     37  C   UNL     1      -2.941  -7.945  -3.451  0.00  0.00    -0.097 C 
ATOM     38  N   UNL     1      -2.928  -7.505  -2.040  0.00  0.00    +0.377 N 
ATOM     39  H   UNL     1      -2.405  -8.190  -1.482  0.00  0.00    -0.083 HD
ENDBRANCH  35  38
ENDBRANCH  34  35
ENDBRANCH   8  34
TORSDOF 11
