REMARK  Name = ZINC43472836
REMARK  4 active torsions:
REMARK  status: ('A' for Active; 'I' for Inactive)
REMARK    1  A    between atoms: C_3  and  N_18
REMARK    2  A    between atoms: C_6  and  O_7
REMARK    3  A    between atoms: O_7  and  C_8
REMARK    4  A    between atoms: C_14  and  O_16
REMARK                            x       y       z     vdW  Elec       q    Type
REMARK                         _______ _______ _______ _____ _____    ______ ____
ROOT
ATOM      1  C   UNL     1       1.179  -0.717   0.414  0.00  0.00    +0.048 A 
ATOM      2  C   UNL     1       2.358  -0.027   0.625  0.00  0.00    +0.039 A 
ATOM      3  C   UNL     1       2.358   1.355   0.638  0.00  0.00    +0.161 A 
ATOM      4  C   UNL     1       1.177   2.052   0.441  0.00  0.00    +0.157 A 
ATOM      5  C   UNL     1      -0.005   1.364   0.231  0.00  0.00    +0.086 A 
ATOM      6  C   UNL     1      -0.005  -0.023   0.217  0.00  0.00    +0.124 A 
ATOM      7  F   UNL     1       1.180   3.403   0.455  0.00  0.00    -0.203 F 
ENDROOT
BRANCH   3   8
ATOM      8  N   UNL     1       3.622   2.092   0.864  0.00  0.00    +0.059 N 
ATOM      9  O   UNL     1       4.653   1.484   1.036  0.00  0.00    -0.126 OA
ATOM     10  O   UNL     1       3.623   3.300   0.876  0.00  0.00    -0.126 OA
ENDBRANCH   3   8
BRANCH   6  11
ATOM     11  O   UNL     1      -1.165  -0.700   0.010  0.00  0.00    -0.486 OA
BRANCH  11  12
ATOM     12  C   UNL     1      -1.073  -2.121  -0.110  0.00  0.00    +0.202 C 
ATOM     13  C   UNL     1      -1.087  -2.752   1.284  0.00  0.00    +0.047 C 
ATOM     14  C   UNL     1      -0.990  -4.274   1.156  0.00  0.00    +0.004 C 
ATOM     15  C   UNL     1      -2.179  -4.795   0.348  0.00  0.00    +0.003 C 
ATOM     16  C   UNL     1      -2.165  -4.165  -1.046  0.00  0.00    +0.035 C 
ATOM     17  C   UNL     1      -2.263  -2.643  -0.918  0.00  0.00    +0.155 C 
BRANCH  17  18
ATOM     18  O   UNL     1      -2.250  -2.054  -2.220  0.00  0.00    -0.388 OA
ATOM     19  H   UNL     1      -2.978  -2.340  -2.788  0.00  0.00    +0.210 HD
ENDBRANCH  17  18
ENDBRANCH  11  12
ENDBRANCH   6  11
TORSDOF 4
