REMARK  Name = ZINC39670034
REMARK  6 active torsions:
REMARK  status: ('A' for Active; 'I' for Inactive)
REMARK    1  A    between atoms: C_1  and  C_2
REMARK    2  A    between atoms: C_7  and  C_11
REMARK    3  A    between atoms: C_11  and  N_12
REMARK    4  A    between atoms: C_13  and  C_15
REMARK    5  A    between atoms: C_26  and  C_28
REMARK    6  A    between atoms: C_33  and  C_34
REMARK                            x       y       z     vdW  Elec       q    Type
REMARK                         _______ _______ _______ _____ _____    ______ ____
ROOT
ATOM      1  C   UNL     1       3.562  -7.198   4.244  0.00  0.00    +0.100 C 
ATOM      2  C   UNL     1       4.136  -7.493   2.840  0.00  0.00    +0.121 C 
ATOM      3  N   UNL     1       4.942  -8.724   3.016  0.00  0.00    -0.296 N 
ATOM      4  C   UNL     1       4.143  -9.558   3.946  0.00  0.00    +0.115 C 
ATOM      5  C   UNL     1       3.567  -8.556   4.966  0.00  0.00    -0.004 C 
ATOM      6  C   UNL     1       2.146  -8.954   5.352  0.00  0.00    -0.010 C 
ATOM      7  C   UNL     1       2.183 -10.279   6.120  0.00  0.00    -0.082 C 
ATOM      8  N   UNL     1       3.013 -10.127   7.321  0.00  0.00    +0.379 N 
ATOM      9  C   UNL     1       4.400  -9.836   6.937  0.00  0.00    -0.082 C 
ATOM     10  C   UNL     1       4.457  -8.493   6.204  0.00  0.00    -0.010 C 
ATOM     11  C   UNL     1       6.133  -9.019   2.458  0.00  0.00    +0.247 C 
ATOM     12  O   UNL     1       6.625 -10.119   2.621  0.00  0.00    -0.270 OA
ATOM     13  H   UNL     1       2.655  -9.370   7.883  0.00  0.00    -0.086 HD
ATOM     14  H   UNL     1       2.986 -10.982   7.856  0.00  0.00    -0.086 HD
ENDROOT
BRANCH  11  15
ATOM     15  C   UNL     1       6.840  -8.006   1.647  0.00  0.00    +0.049 A 
ATOM     16  C   UNL     1       6.120  -7.138   0.825  0.00  0.00    +0.013 A 
ATOM     17  C   UNL     1       6.786  -6.194   0.072  0.00  0.00    +0.001 A 
ATOM     18  C   UNL     1       8.166  -6.107   0.129  0.00  0.00    +0.001 A 
ATOM     19  C   UNL     1       8.886  -6.964   0.942  0.00  0.00    +0.013 A 
ATOM     20  C   UNL     1       8.232  -7.909   1.705  0.00  0.00    +0.067 A 
BRANCH  20  21
ATOM     21  C   UNL     1       9.017  -8.838   2.594  0.00  0.00    +0.418 C 
ATOM     22  F   UNL     1      10.381  -8.549   2.481  0.00  0.00    -0.166 F 
ATOM     23  F   UNL     1       8.612  -8.666   3.922  0.00  0.00    -0.166 F 
ATOM     24  F   UNL     1       8.787 -10.162   2.204  0.00  0.00    -0.166 F 
ENDBRANCH  20  21
ENDBRANCH  11  15
BRANCH   1  26
ATOM     25  N   UNL     1       1.679  -5.824   5.072  0.00  0.00    -0.309 N 
ATOM     26  C   UNL     1       2.156  -6.667   4.134  0.00  0.00    +0.219 C 
ATOM     27  O   UNL     1       1.453  -6.998   3.203  0.00  0.00    -0.275 OA
ATOM     28  H   UNL     1       2.241  -5.559   5.817  0.00  0.00    +0.149 HD
BRANCH  25  29
ATOM     29  C   UNL     1       0.312  -5.308   4.966  0.00  0.00    +0.159 C 
BRANCH  29  36
ATOM     30  C   UNL     1      -1.441  -2.118  11.416  0.00  0.00    +0.044 C 
ATOM     31  C   UNL     1      -1.003  -2.306   9.986  0.00  0.00    -0.046 A 
ATOM     32  C   UNL     1      -0.648  -1.194   9.205  0.00  0.00    +0.021 A 
ATOM     33  C   UNL     1      -0.254  -1.359   7.925  0.00  0.00    +0.093 A 
ATOM     34  N   UNL     1      -0.196  -2.605   7.371  0.00  0.00    -0.308 N 
ATOM     35  C   UNL     1       0.159  -3.049   6.126  0.00  0.00    +0.115 A 
ATOM     36  C   UNL     1       0.029  -4.394   6.130  0.00  0.00    +0.051 A 
ATOM     37  N   UNL     1      -0.393  -4.778   7.337  0.00  0.00    -0.342 N 
ATOM     38  C   UNL     1      -0.537  -3.709   8.108  0.00  0.00    +0.116 A 
ATOM     39  C   UNL     1      -0.944  -3.554   9.448  0.00  0.00    +0.048 A 
ATOM     40  H   UNL     1      -0.566  -5.693   7.607  0.00  0.00    +0.167 HD
ENDBRANCH  29  36
ENDBRANCH  25  29
ENDBRANCH   1  26
TORSDOF 5
