REMARK  Name = ZINC03336051
REMARK  6 active torsions:
REMARK  status: ('A' for Active; 'I' for Inactive)
REMARK    1  A    between atoms: C_1  and  O_2
REMARK    2  A    between atoms: O_2  and  C_3
REMARK    3  A    between atoms: C_3  and  C_5
REMARK    4  A    between atoms: C_9  and  N_10
REMARK    5  A    between atoms: C_11  and  C_13
REMARK    6  A    between atoms: C_13  and  N_14
REMARK                            x       y       z     vdW  Elec       q    Type
REMARK                         _______ _______ _______ _____ _____    ______ ____
ROOT
ATOM      1  N   UNL     1      -2.224   5.893   3.802  0.00  0.00    -0.278 N 
ATOM      2  C   UNL     1      -1.542   5.292   2.807  0.00  0.00    +0.236 C 
ATOM      3  O   UNL     1      -1.892   4.203   2.404  0.00  0.00    -0.274 OA
ATOM      4  H   UNL     1      -1.944   6.764   4.125  0.00  0.00    +0.155 HD
ENDROOT
BRANCH   1   9
ATOM      5  C   UNL     1      -4.148   5.722   5.386  0.00  0.00    +0.091 A 
ATOM      6  C   UNL     1      -5.248   4.864   5.795  0.00  0.00    -0.021 A 
ATOM      7  C   UNL     1      -5.349   3.699   5.121  0.00  0.00    -0.004 A 
ATOM      8  S   UNL     1      -4.016   3.732   3.956  0.00  0.00    -0.077 S 
ATOM      9  C   UNL     1      -3.326   5.268   4.364  0.00  0.00    +0.086 A 
ATOM     10  C   UNL     1      -6.373   2.625   5.322  0.00  0.00    +0.043 C 
ATOM     11  C   UNL     1      -7.076   2.872   6.665  0.00  0.00    +0.005 C 
ATOM     12  C   UNL     1      -7.482   4.347   6.745  0.00  0.00    +0.005 C 
ATOM     13  C   UNL     1      -6.236   5.222   6.898  0.00  0.00    +0.037 C 
BRANCH   5  14
ATOM     14  C   UNL     1      -3.915   7.017   6.029  0.00  0.00    +0.342 C 
ATOM     15  O   UNL     1      -4.444   8.020   5.587  0.00  0.00    -0.245 OA
BRANCH  14  17
ATOM     16  C   UNL     1      -2.929   8.414   7.697  0.00  0.00    +0.280 C 
ATOM     17  O   UNL     1      -3.115   7.099   7.112  0.00  0.00    -0.464 OA
ENDBRANCH  14  17
ENDBRANCH   5  14
ENDBRANCH   1   9
BRANCH   2  18
ATOM     18  C   UNL     1      -0.344   5.972   2.196  0.00  0.00    +0.214 C 
BRANCH  18  19
ATOM     19  N   UNL     1       0.217   5.120   1.144  0.00  0.00    -0.215 N 
ATOM     20  C   UNL     1       1.172   4.187   1.351  0.00  0.00    +0.251 C 
ATOM     21  O   UNL     1       1.708   3.903   2.401  0.00  0.00    -0.272 OA
ATOM     22  C   UNL     1       1.427   3.575  -0.001  0.00  0.00    +0.138 C 
ATOM     23  C   UNL     1       2.889   3.756  -0.427  0.00  0.00    +0.045 C 
ATOM     24  C   UNL     1       3.521   2.410  -0.004  0.00  0.00    +0.038 C 
ATOM     25  C   UNL     1       2.378   1.416  -0.008  0.00  0.00    -0.042 A 
ATOM     26  C   UNL     1       1.169   2.092   0.002  0.00  0.00    -0.012 A 
ATOM     27  C   UNL     1      -0.017   1.377   0.010  0.00  0.00    +0.006 A 
ATOM     28  C   UNL     1       0.002  -0.004   0.002  0.00  0.00    +0.000 A 
ATOM     29  C   UNL     1       1.209  -0.678  -0.013  0.00  0.00    +0.000 A 
ATOM     30  C   UNL     1       2.393   0.032  -0.018  0.00  0.00    +0.004 A 
ATOM     31  N   UNL     1       0.517   4.282  -0.904  0.00  0.00    -0.281 N 
ATOM     32  C   UNL     1      -0.152   5.170  -0.142  0.00  0.00    +0.310 C 
ATOM     33  O   UNL     1      -0.996   5.931  -0.575  0.00  0.00    -0.252 OA
ATOM     34  H   UNL     1       0.416   4.139  -1.858  0.00  0.00    +0.152 HD
ENDBRANCH  18  19
ENDBRANCH   2  18
TORSDOF 5
