REMARK  Name = ZINC36586449
REMARK  14 active torsions:
REMARK  status: ('A' for Active; 'I' for Inactive)
REMARK    1  A    between atoms: C_1  and  C_2
REMARK    2  A    between atoms: C_2  and  C_3
REMARK    3  A    between atoms: C_2  and  C_4
REMARK    4  A    between atoms: C_2  and  N_5
REMARK    5  A    between atoms: C_6  and  C_8
REMARK    6  A    between atoms: C_8  and  C_10
REMARK    7  A    between atoms: C_8  and  N_20
REMARK    8  A    between atoms: C_12  and  N_17
REMARK    9  A    between atoms: N_20  and  C_30
REMARK   10  A    between atoms: C_21  and  C_23
REMARK   11  A    between atoms: C_26  and  O_29
REMARK   12  A    between atoms: C_30  and  C_31
REMARK   13  A    between atoms: C_30  and  C_32
REMARK   14  A    between atoms: C_30  and  C_33
REMARK                            x       y       z     vdW  Elec       q    Type
REMARK                         _______ _______ _______ _____ _____    ______ ____
ROOT
ATOM      1  C   UNL     1       2.599  -0.466  -1.514  0.00  0.00    +0.194 C 
ENDROOT
BRANCH   1   2
ATOM      2  C   UNL     1       1.589  -0.739  -2.598  0.00  0.00    +0.002 A 
ATOM      3  C   UNL     1       1.929  -0.547  -3.924  0.00  0.00    +0.040 A 
ATOM      4  C   UNL     1       1.002  -0.797  -4.919  0.00  0.00    +0.127 A 
ATOM      5  C   UNL     1      -0.265  -1.239  -4.588  0.00  0.00    +0.034 A 
ATOM      6  C   UNL     1      -0.606  -1.432  -3.263  0.00  0.00    +0.022 A 
ATOM      7  C   UNL     1       0.323  -1.188  -2.267  0.00  0.00    +0.047 A 
ATOM      8 CL   UNL     1      -0.102  -1.437  -0.603  0.00  0.00    -0.083 Cl
BRANCH   4   9
ATOM      9  N   UNL     1       1.367  -0.590  -6.338  0.00  0.00    +0.056 N 
ATOM     10  O   UNL     1       2.475  -0.202  -6.628  0.00  0.00    -0.126 OA
ATOM     11  O   UNL     1       0.556  -0.808  -7.208  0.00  0.00    -0.126 OA
ENDBRANCH   4   9
ENDBRANCH   1   2
BRANCH   1  13
ATOM     12  N   UNL     1       1.360   1.431  -0.522  0.00  0.00    -0.309 N 
ATOM     13  C   UNL     1       2.497   0.974  -1.083  0.00  0.00    +0.239 C 
ATOM     14  O   UNL     1       3.438   1.722  -1.241  0.00  0.00    -0.273 OA
ATOM     15  H   UNL     1       0.571   0.867  -0.497  0.00  0.00    +0.149 HD
BRANCH  12  17
ATOM     16  C   UNL     1       1.628   3.806  -1.040  0.00  0.00    +0.031 C 
ATOM     17  C   UNL     1       1.315   2.779   0.050  0.00  0.00    +0.026 C 
ATOM     18  C   UNL     1       2.351   2.892   1.170  0.00  0.00    +0.031 C 
ATOM     19  C   UNL     1      -0.081   3.046   0.617  0.00  0.00    +0.031 C 
ENDBRANCH  12  17
ENDBRANCH   1  13
BRANCH   1  20
ATOM     20  N   UNL     1       3.947  -0.729  -2.025  0.00  0.00    -0.277 N 
ATOM     21  C   UNL     1       4.542   0.161  -2.844  0.00  0.00    +0.248 C 
ATOM     22  O   UNL     1       5.613  -0.105  -3.355  0.00  0.00    -0.270 OA
BRANCH  21  23
ATOM     23  C   UNL     1       3.894   1.458  -3.120  0.00  0.00    +0.037 A 
ATOM     24  C   UNL     1       2.511   1.593  -2.981  0.00  0.00    +0.016 A 
ATOM     25  C   UNL     1       1.910   2.805  -3.239  0.00  0.00    +0.046 A 
ATOM     26  C   UNL     1       2.679   3.893  -3.639  0.00  0.00    +0.117 A 
ATOM     27  C   UNL     1       4.055   3.762  -3.778  0.00  0.00    +0.046 A 
ATOM     28  C   UNL     1       4.664   2.555  -3.516  0.00  0.00    +0.016 A 
BRANCH  26  29
ATOM     29  O   UNL     1       2.083   5.085  -3.893  0.00  0.00    -0.507 OA
ATOM     30  H   UNL     1       2.018   5.665  -3.122  0.00  0.00    +0.292 HD
ENDBRANCH  26  29
ENDBRANCH  21  23
BRANCH  20  31
ATOM     31  C   UNL     1       4.647  -1.958  -1.646  0.00  0.00    +0.030 C 
ATOM     32  C   UNL     1       3.723  -2.830  -0.794  0.00  0.00    +0.031 C 
ATOM     33  C   UNL     1       5.052  -2.724  -2.907  0.00  0.00    +0.031 C 
ATOM     34  C   UNL     1       5.899  -1.605  -0.840  0.00  0.00    +0.031 C 
ENDBRANCH  20  31
ENDBRANCH   1  20
TORSDOF 8
