REMARK  Name = ZINC38994705
REMARK  5 active torsions:
REMARK  status: ('A' for Active; 'I' for Inactive)
REMARK    1  A    between atoms: C_1  and  C_2
REMARK    2  A    between atoms: C_7  and  N_8
REMARK    3  A    between atoms: C_9  and  O_33
REMARK    4  A    between atoms: C_12  and  O_32
REMARK    5  A    between atoms: C_13  and  C_17
REMARK                            x       y       z     vdW  Elec       q    Type
REMARK                         _______ _______ _______ _____ _____    ______ ____
ROOT
ATOM      1  N   UNL     1      -0.163   0.044   2.523  0.00  0.00    -0.225 N 
ATOM      2  C   UNL     1      -1.371   0.471   3.215  0.00  0.00    +0.338 C 
ATOM      3  N   UNL     1      -1.115   1.562   4.140  0.00  0.00    -0.204 NA
ATOM      4  C   UNL     1       0.035   1.849   4.612  0.00  0.00    +0.200 C 
ATOM      5  C   UNL     1       1.276   1.082   4.257  0.00  0.00    +0.183 C 
ATOM      6  C   UNL     1       1.066   0.302   2.990  0.00  0.00    +0.237 C 
ATOM      7  O   UNL     1       2.030  -0.101   2.375  0.00  0.00    -0.274 OA
ENDROOT
BRANCH   5   8
ATOM      8  C   UNL     1       1.612   0.111   5.390  0.00  0.00    +0.122 C 
ATOM      9  C   UNL     1       2.923  -0.579   5.095  0.00  0.00    +0.039 A 
ATOM     10  H   UNL     1       4.180   0.933   4.406  0.00  0.00    +0.166 HD
ATOM     11  C   UNL     1       3.115  -1.905   5.279  0.00  0.00    -0.016 A 
ATOM     12  C   UNL     1       4.477  -2.198   4.891  0.00  0.00    +0.003 A 
ATOM     13  C   UNL     1       5.225  -3.378   4.867  0.00  0.00    +0.010 A 
ATOM     14  C   UNL     1       6.523  -3.282   4.428  0.00  0.00    +0.001 A 
ATOM     15  C   UNL     1       7.076  -2.079   4.023  0.00  0.00    +0.002 A 
ATOM     16  C   UNL     1       6.358  -0.895   4.037  0.00  0.00    +0.026 A 
ATOM     17  C   UNL     1       5.039  -0.961   4.478  0.00  0.00    +0.047 A 
ATOM     18  N   UNL     1       4.070  -0.008   4.616  0.00  0.00    -0.356 N 
ATOM     19  C   UNL     1       2.050  -2.836   5.802  0.00  0.00    +0.052 C 
ATOM     20  C   UNL     1       0.940  -1.980   6.429  0.00  0.00    +0.086 C 
ATOM     21  N   UNL     1       0.557  -0.909   5.497  0.00  0.00    -0.307 NA
ATOM     22  H   UNL     1      -0.323  -0.492   5.763  0.00  0.00    +0.123 HD
ENDBRANCH   5   8
BRANCH   1  29
ATOM     23  C   UNL     1      -0.248   1.514   0.088  0.00  0.00    +0.045 C 
ATOM     24  C   UNL     1      -0.336   0.010   0.115  0.00  0.00    -0.029 A 
ATOM     25  C   UNL     1      -0.457  -0.696  -1.066  0.00  0.00    +0.005 A 
ATOM     26  C   UNL     1      -0.537  -2.076  -1.043  0.00  0.00    +0.000 A 
ATOM     27  C   UNL     1      -0.497  -2.754   0.162  0.00  0.00    +0.002 A 
ATOM     28  C   UNL     1      -0.377  -2.054   1.346  0.00  0.00    +0.024 A 
ATOM     29  C   UNL     1      -0.291  -0.668   1.326  0.00  0.00    +0.043 A 
ENDBRANCH   1  29
BRANCH   4  30
ATOM     30  O   UNL     1       0.142   2.887   5.467  0.00  0.00    -0.495 OA
ATOM     31  H   UNL     1      -0.696   3.334   5.649  0.00  0.00    +0.293 HD
ENDBRANCH   4  30
BRANCH   2  32
ATOM     32  O   UNL     1      -2.332   0.899   2.249  0.00  0.00    -0.356 OA
ATOM     33  H   UNL     1      -3.168   1.199   2.632  0.00  0.00    +0.214 HD
ENDBRANCH   2  32
TORSDOF 4
