REMARK  Name = ZINC04610459
REMARK  6 active torsions:
REMARK  status: ('A' for Active; 'I' for Inactive)
REMARK    1  A    between atoms: C_6  and  C_11
REMARK    2  A    between atoms: C_11  and  C_13
REMARK    3  A    between atoms: C_13  and  O_14
REMARK    4  A    between atoms: O_14  and  C_15
REMARK    5  A    between atoms: C_15  and  C_17
REMARK    6  A    between atoms: C_26  and  O_27
REMARK                            x       y       z     vdW  Elec       q    Type
REMARK                         _______ _______ _______ _____ _____    ______ ____
ROOT
ATOM      1  O   UNL     1       2.255   8.105   0.020  0.00  0.00    -0.453 OA
ENDROOT
BRANCH   1   2
ATOM      2  C   UNL     1       1.090   7.427   0.028  0.00  0.00    +0.343 C 
ATOM      3  O   UNL     1       0.035   8.030   0.041  0.00  0.00    -0.245 OA
BRANCH   2   4
ATOM      4  C   UNL     1       1.095   5.955   0.021  0.00  0.00    +0.101 A 
ATOM      5  C   UNL     1       2.319   5.259   0.006  0.00  0.00    +0.019 A 
ATOM      6  C   UNL     1       2.350   3.904  -0.000  0.00  0.00    +0.009 A 
ATOM      7  C   UNL     1       1.149   3.167   0.008  0.00  0.00    -0.014 A 
ATOM      8  C   UNL     1       1.163   1.763   0.000  0.00  0.00    +0.008 A 
ATOM      9  C   UNL     1      -0.013   1.076   0.008  0.00  0.00    +0.001 A 
ATOM     10  C   UNL     1      -1.234   1.745   0.017  0.00  0.00    +0.001 A 
ATOM     11  C   UNL     1      -1.285   3.106   0.030  0.00  0.00    +0.012 A 
ATOM     12  C   UNL     1      -0.093   3.848   0.023  0.00  0.00    +0.024 A 
ATOM     13  C   UNL     1      -0.111   5.257   0.029  0.00  0.00    +0.138 A 
BRANCH  13  14
ATOM     14  O   UNL     1      -1.288   5.926   0.043  0.00  0.00    -0.505 OA
ATOM     15  H   UNL     1      -1.622   6.117   0.931  0.00  0.00    +0.292 HD
ENDBRANCH  13  14
ENDBRANCH   2   4
ENDBRANCH   1   2
BRANCH   1  16
ATOM     16  C   UNL     1       2.173   9.555   0.028  0.00  0.00    +0.311 C 
BRANCH  16  17
ATOM     17  C   UNL     1       3.564  10.136   0.017  0.00  0.00    +0.200 C 
ATOM     18  O   UNL     1       4.528   9.400   0.005  0.00  0.00    -0.288 OA
BRANCH  17  24
ATOM     19  C   UNL     1       5.498  16.275   0.026  0.00  0.00    +0.001 A 
ATOM     20  C   UNL     1       6.619  15.447   0.012  0.00  0.00    +0.001 A 
ATOM     21  C   UNL     1       6.488  14.092   0.007  0.00  0.00    +0.008 A 
ATOM     22  C   UNL     1       5.204  13.517   0.017  0.00  0.00    -0.017 A 
ATOM     23  C   UNL     1       5.034  12.125   0.013  0.00  0.00    +0.020 A 
ATOM     24  C   UNL     1       3.751  11.594   0.022  0.00  0.00    +0.021 A 
ATOM     25  C   UNL     1       2.627  12.444   0.031  0.00  0.00    +0.012 A 
ATOM     26  C   UNL     1       2.776  13.792   0.042  0.00  0.00    +0.009 A 
ATOM     27  C   UNL     1       4.064  14.360   0.032  0.00  0.00    -0.018 A 
ATOM     28  C   UNL     1       4.240  15.754   0.036  0.00  0.00    +0.008 A 
ENDBRANCH  17  24
ENDBRANCH  16  17
ENDBRANCH   1  16
TORSDOF 6
