REMARK  Name = ZINC09111189
REMARK  7 active torsions:
REMARK  status: ('A' for Active; 'I' for Inactive)
REMARK    1  A    between atoms: C_1  and  C_2
REMARK    2  A    between atoms: C_2  and  N_3
REMARK    3  A    between atoms: N_3  and  C_4
REMARK    4  A    between atoms: N_3  and  C_6
REMARK    5  A    between atoms: C_4  and  C_5
REMARK    6  A    between atoms: C_9  and  C_12
REMARK    7  A    between atoms: C_17  and  C_29
REMARK                            x       y       z     vdW  Elec       q    Type
REMARK                         _______ _______ _______ _____ _____    ______ ____
ROOT
ATOM      1  C   UNL     1       1.418  -6.405   1.118  0.00  0.00    +0.032 C 
ATOM      2  C   UNL     1       2.183  -7.029   2.291  0.00  0.00    +0.088 C 
ATOM      3  C   UNL     1       2.615  -8.410   1.900  0.00  0.00    +0.163 C 
ATOM      4  C   UNL     1       2.852  -8.777   0.555  0.00  0.00    +0.036 C 
ATOM      5  C   UNL     1       3.258 -10.222   0.380  0.00  0.00    +0.136 C 
ATOM      6  N   UNL     1       3.248 -10.684  -0.992  0.00  0.00    -0.331 N 
ATOM      7  C   UNL     1       4.120 -10.150  -1.939  0.00  0.00    +0.049 A 
ATOM      8  C   UNL     1       5.108 -10.920  -2.531  0.00  0.00    +0.025 A 
ATOM      9  C   UNL     1       5.979 -10.335  -3.433  0.00  0.00    +0.002 A 
ATOM     10  C   UNL     1       5.868  -8.991  -3.741  0.00  0.00    +0.002 A 
ATOM     11  C   UNL     1       4.872  -8.222  -3.164  0.00  0.00    +0.025 A 
ATOM     12  C   UNL     1       3.986  -8.812  -2.279  0.00  0.00    +0.052 A 
ATOM     13  N   UNL     1       2.900  -8.125  -1.749  0.00  0.00    -0.316 N 
ATOM     14  C   UNL     1       2.713  -7.873  -0.428  0.00  0.00    +0.017 C 
ATOM     15  C   UNL     1       2.333  -6.437  -0.105  0.00  0.00    +0.059 C 
ATOM     16  O   UNL     1       2.767  -9.244   2.771  0.00  0.00    -0.292 OA
ATOM     17  H   UNL     1       2.624 -11.378  -1.257  0.00  0.00    +0.147 HD
ATOM     18  H   UNL     1       2.226  -7.803  -2.368  0.00  0.00    +0.152 HD
ENDROOT
BRANCH   5  19
ATOM     19  C   UNL     1       4.650 -10.397   0.930  0.00  0.00    -0.023 A 
ATOM     20  C   UNL     1       5.711  -9.726   0.352  0.00  0.00    +0.008 A 
ATOM     21  C   UNL     1       6.988  -9.886   0.856  0.00  0.00    +0.038 A 
ATOM     22  C   UNL     1       7.204 -10.719   1.940  0.00  0.00    +0.123 A 
ATOM     23  C   UNL     1       6.140 -11.392   2.518  0.00  0.00    +0.038 A 
ATOM     24  C   UNL     1       4.864 -11.226   2.016  0.00  0.00    +0.008 A 
ATOM     25  F   UNL     1       8.452 -10.877   2.434  0.00  0.00    -0.205 F 
ENDBRANCH   5  19
BRANCH   1  29
ATOM     26  C   UNL     1       0.385  -2.366   2.050  0.00  0.00    +0.013 A 
ATOM     27  C   UNL     1      -0.607  -3.283   1.758  0.00  0.00    +0.022 A 
ATOM     28  C   UNL     1      -0.273  -4.590   1.457  0.00  0.00    +0.006 A 
ATOM     29  C   UNL     1       1.054  -4.980   1.446  0.00  0.00    -0.043 A 
ATOM     30  C   UNL     1       2.046  -4.062   1.736  0.00  0.00    +0.006 A 
ATOM     31  C   UNL     1       1.712  -2.754   2.034  0.00  0.00    +0.022 A 
BRANCH  26  32
ATOM     32  N   UNL     1       0.047  -1.044   2.355  0.00  0.00    -0.394 NA
ATOM     33  H   UNL     1       0.887  -0.515   2.535  0.00  0.00    +0.126 HD
BRANCH  32  35
ATOM     34  C   UNL     1       0.270  -0.338   0.020  0.00  0.00    +0.022 C 
ATOM     35  C   UNL     1      -0.672  -0.449   1.221  0.00  0.00    +0.081 C 
ENDBRANCH  32  35
BRANCH  32  36
ATOM     36  C   UNL     1      -0.812  -1.021   3.546  0.00  0.00    +0.081 C 
ATOM     37  C   UNL     1      -0.022  -1.529   4.754  0.00  0.00    +0.022 C 
ENDBRANCH  32  36
ENDBRANCH  26  32
ENDBRANCH   1  29
TORSDOF 5
