REMARK  Name = ZINC22678128
REMARK  9 active torsions:
REMARK  status: ('A' for Active; 'I' for Inactive)
REMARK    1  A    between atoms: C_3  and  N_17
REMARK    2  A    between atoms: C_5  and  S_7
REMARK    3  A    between atoms: S_7  and  N_10
REMARK    4  A    between atoms: N_10  and  C_11
REMARK    5  A    between atoms: C_11  and  C_12
REMARK    6  A    between atoms: C_18  and  C_20
REMARK    7  A    between atoms: C_20  and  C_21
REMARK    8  A    between atoms: C_21  and  C_22
REMARK    9  A    between atoms: C_24  and  C_27
REMARK                            x       y       z     vdW  Elec       q    Type
REMARK                         _______ _______ _______ _____ _____    ______ ____
ROOT
ATOM      1  C   UNL     1       1.171   1.784   0.189  0.00  0.00    +0.004 A 
ATOM      2  C   UNL     1       1.153   3.165   0.191  0.00  0.00    +0.023 A 
ATOM      3  C   UNL     1      -0.048   3.842   0.027  0.00  0.00    +0.035 A 
ATOM      4  C   UNL     1      -1.227   3.128  -0.139  0.00  0.00    +0.051 A 
ATOM      5  C   UNL     1      -1.202   1.748  -0.145  0.00  0.00    +0.107 A 
ATOM      6  C   UNL     1      -0.005   1.076   0.024  0.00  0.00    +0.028 A 
ENDROOT
BRANCH   3   7
ATOM      7  N   UNL     1      -0.069   5.242   0.029  0.00  0.00    -0.285 N 
ATOM      8  C   UNL     1       0.975   5.932  -0.471  0.00  0.00    +0.218 C 
ATOM      9  O   UNL     1       1.889   5.344  -1.008  0.00  0.00    -0.275 OA
ATOM     10  H   UNL     1      -0.938   5.778   0.438  0.00  0.00    +0.155 HD
BRANCH   8  11
ATOM     11  C   UNL     1       1.006   7.435  -0.361  0.00  0.00    +0.105 C 
BRANCH  11  12
ATOM     12  C   UNL     1       2.289   7.967  -1.002  0.00  0.00    +0.108 C 
BRANCH  12  13
ATOM     13  C   UNL     1       2.320   9.469  -0.893  0.00  0.00    +0.228 A 
ATOM     14  N   UNL     1       2.831  10.166   0.091  0.00  0.00    -0.191 NA
ATOM     15  C   UNL     1       2.632  11.464  -0.241  0.00  0.00    +0.209 A 
ATOM     16  N   UNL     1       2.016  11.475  -1.398  0.00  0.00    -0.056 NA
ATOM     17  O   UNL     1       1.836  10.340  -1.784  0.00  0.00    -0.338 OA
BRANCH  15  18
ATOM     18  C   UNL     1       3.032  12.644   0.552  0.00  0.00    +0.060 A 
ATOM     19  C   UNL     1       2.863  13.973   0.266  0.00  0.00    +0.019 A 
ATOM     20  C   UNL     1       3.320  14.907   1.168  0.00  0.00    +0.008 A 
ATOM     21  C   UNL     1       3.932  14.485   2.306  0.00  0.00    +0.046 A 
ATOM     22  S   UNL     1       3.869  12.710   2.127  0.00  0.00    -0.093 S 
ENDBRANCH  15  18
ENDBRANCH  12  13
ENDBRANCH  11  12
ENDBRANCH   8  11
ENDBRANCH   3   7
BRANCH   5  23
ATOM     23  S   UNL     1      -2.697   0.841  -0.364  0.00  0.00    +0.059 S 
ATOM     24  O   UNL     1      -3.598   1.702  -1.046  0.00  0.00    -0.153 OA
ATOM     25  O   UNL     1      -2.329  -0.433  -0.872  0.00  0.00    -0.153 OA
BRANCH  23  26
ATOM     26  N   UNL     1      -3.337   0.583   1.142  0.00  0.00    -0.183 NA
ATOM     27  H   UNL     1      -3.265  -0.418   1.592  0.00  0.00    +0.148 HD
BRANCH  26  28
ATOM     28  C   UNL     1      -3.795   1.718   1.948  0.00  0.00    +0.180 C 
BRANCH  28  29
ATOM     29  C   UNL     1      -4.652   1.216   3.081  0.00  0.00    +0.120 A 
ATOM     30  C   UNL     1      -4.214   0.864   4.303  0.00  0.00    +0.046 A 
ATOM     31  C   UNL     1      -5.347   0.456   5.043  0.00  0.00    +0.041 A 
ATOM     32  C   UNL     1      -6.411   0.585   4.229  0.00  0.00    +0.195 A 
ATOM     33  O   UNL     1      -5.984   1.050   3.044  0.00  0.00    -0.466 OA
ENDBRANCH  28  29
ENDBRANCH  26  28
ENDBRANCH  23  26
ENDBRANCH   5  23
TORSDOF 9
