REMARK  Name = ZINC33918664
REMARK  9 active torsions:
REMARK  status: ('A' for Active; 'I' for Inactive)
REMARK    1  A    between atoms: C_1  and  C_2
REMARK    2  A    between atoms: C_2  and  C_3
REMARK    3  A    between atoms: C_2  and  O_4
REMARK    4  A    between atoms: O_4  and  C_5
REMARK    5  A    between atoms: C_5  and  C_7
REMARK    6  A    between atoms: C_13  and  C_14
REMARK    7  A    between atoms: C_20  and  N_31
REMARK    8  A    between atoms: C_21  and  C_29
REMARK    9  A    between atoms: C_22  and  C_24
REMARK                            x       y       z     vdW  Elec       q    Type
REMARK                         _______ _______ _______ _____ _____    ______ ____
ROOT
ATOM      1  C   UNL     1      -3.591  -0.392  -0.768  0.00  0.00    +0.083 C 
ATOM      2  C   UNL     1      -4.224  -1.151  -1.717  0.00  0.00    +0.101 A 
ATOM      3  N   UNL     1      -5.573  -1.441  -1.706  0.00  0.00    -0.257 N 
ATOM      4  C   UNL     1      -6.056  -2.202  -2.708  0.00  0.00    +0.271 A 
ATOM      5  O   UNL     1      -7.238  -2.491  -2.754  0.00  0.00    -0.266 OA
ATOM      6  C   UNL     1      -5.131  -2.671  -3.739  0.00  0.00    +0.082 A 
ATOM      7  C   UNL     1      -5.377  -3.442  -4.837  0.00  0.00    +0.066 C 
ATOM      8  S   UNL     1      -3.594  -1.962  -3.172  0.00  0.00    -0.065 S 
ATOM      9  C   UNL     1      -6.368  -0.940  -0.669  0.00  0.00    +0.119 C 
ATOM     10  C   UNL     1      -5.896  -0.177   0.341  0.00  0.00    +0.082 C 
ATOM     11  C   UNL     1      -4.420   0.164   0.374  0.00  0.00    +0.138 C 
ENDROOT
BRANCH   7  12
ATOM     12  C   UNL     1      -6.639  -4.058  -5.000  0.00  0.00    +0.129 A 
ATOM     13  C   UNL     1      -7.069  -4.747  -6.117  0.00  0.00    +0.049 A 
ATOM     14  C   UNL     1      -8.374  -5.183  -5.838  0.00  0.00    +0.042 A 
ATOM     15  C   UNL     1      -8.682  -4.755  -4.594  0.00  0.00    +0.195 A 
ATOM     16  O   UNL     1      -7.635  -4.084  -4.090  0.00  0.00    -0.463 OA
ENDBRANCH   7  12
BRANCH  11  17
ATOM     17  C   UNL     1      -3.843  -0.349   1.669  0.00  0.00    +0.118 A 
ATOM     18  C   UNL     1      -3.362   0.409   2.670  0.00  0.00    +0.045 A 
ATOM     19  C   UNL     1      -2.926  -0.477   3.682  0.00  0.00    +0.041 A 
ATOM     20  C   UNL     1      -3.167  -1.724   3.238  0.00  0.00    +0.195 A 
ATOM     21  O   UNL     1      -3.728  -1.640   2.020  0.00  0.00    -0.467 OA
ENDBRANCH  11  17
BRANCH   9  22
ATOM     22  N   UNL     1      -7.708  -1.241  -0.679  0.00  0.00    -0.343 N 
ATOM     23  H   UNL     1      -8.040  -1.956  -1.244  0.00  0.00    +0.144 HD
ATOM     24  H   UNL     1      -8.322  -0.739  -0.121  0.00  0.00    +0.144 HD
ENDBRANCH   9  22
BRANCH   1  25
ATOM     25  C   UNL     1      -2.215  -0.141  -0.847  0.00  0.00    +0.339 C 
ATOM     26  O   UNL     1      -1.565  -0.596  -1.772  0.00  0.00    -0.245 OA
BRANCH  25  27
ATOM     27  O   UNL     1      -1.609   0.606   0.102  0.00  0.00    -0.459 OA
BRANCH  27  29
ATOM     28  C   UNL     1       0.036   2.090  -0.863  0.00  0.00    +0.052 C 
ATOM     29  C   UNL     1      -0.204   0.822  -0.042  0.00  0.00    +0.171 C 
ATOM     30  C   UNL     1       0.432   0.982   1.341  0.00  0.00    +0.052 C 
ENDBRANCH  27  29
ENDBRANCH  25  27
ENDBRANCH   1  25
BRANCH  10  31
ATOM     31  C   UNL     1      -6.775   0.298   1.366  0.00  0.00    +0.099 C 
ATOM     32  N   UNL     1      -7.473   0.675   2.179  0.00  0.00    -0.191 NA
ENDBRANCH  10  31
TORSDOF 7
