REMARK  Name = ZINC35183133
REMARK  6 active torsions:
REMARK  status: ('A' for Active; 'I' for Inactive)
REMARK    1  A    between atoms: C_1  and  C_2
REMARK    2  A    between atoms: C_3  and  C_20
REMARK    3  A    between atoms: C_4  and  C_10
REMARK    4  A    between atoms: C_12  and  N_17
REMARK    5  A    between atoms: C_15  and  O_16
REMARK    6  A    between atoms: N_22  and  C_23
REMARK                            x       y       z     vdW  Elec       q    Type
REMARK                         _______ _______ _______ _____ _____    ______ ____
ROOT
ATOM      1  C   UNL     1       0.022   0.414   2.302  0.00  0.00    +0.061 C 
ATOM      2  C   UNL     1      -0.012  -0.752   1.347  0.00  0.00    +0.017 C 
ATOM      3  C   UNL     1      -1.127  -0.986   0.624  0.00  0.00    +0.056 C 
ATOM      4  C   UNL     1      -1.118  -2.168  -0.324  0.00  0.00    +0.143 C 
ATOM      5  N   UNL     1       0.115  -2.971  -0.378  0.00  0.00    -0.315 N 
ATOM      6  C   UNL     1       1.149  -2.611   0.408  0.00  0.00    +0.135 C 
ATOM      7  S   UNL     1       2.589  -3.535   0.356  0.00  0.00    -0.019 S 
ATOM      8  N   UNL     1       1.088  -1.552   1.225  0.00  0.00    -0.300 N 
ATOM      9  H   UNL     1       0.182  -3.740  -0.965  0.00  0.00    +0.149 HD
ATOM     10  H   UNL     1       1.868  -1.343   1.763  0.00  0.00    +0.154 HD
ENDROOT
BRANCH   4  11
ATOM     11  C   UNL     1      -1.397  -1.652  -1.713  0.00  0.00    +0.021 A 
ATOM     12  C   UNL     1      -1.302  -0.300  -1.980  0.00  0.00    +0.042 A 
ATOM     13  C   UNL     1      -1.558   0.173  -3.253  0.00  0.00    +0.127 A 
ATOM     14  C   UNL     1      -1.909  -0.705  -4.263  0.00  0.00    +0.036 A 
ATOM     15  C   UNL     1      -2.005  -2.057  -4.000  0.00  0.00    +0.048 A 
ATOM     16  C   UNL     1      -1.743  -2.536  -2.724  0.00  0.00    +0.122 A 
BRANCH  13  17
ATOM     17  N   UNL     1      -1.456   1.623  -3.537  0.00  0.00    +0.056 N 
ATOM     18  O   UNL     1      -1.150   2.391  -2.655  0.00  0.00    -0.126 OA
ATOM     19  O   UNL     1      -1.680   2.038  -4.650  0.00  0.00    -0.126 OA
ENDBRANCH  13  17
BRANCH  16  20
ATOM     20  O   UNL     1      -1.831  -3.867  -2.465  0.00  0.00    -0.506 OA
ATOM     21  H   UNL     1      -2.727  -4.168  -2.258  0.00  0.00    +0.292 HD
ENDBRANCH  16  20
ENDBRANCH   4  11
BRANCH   3  22
ATOM     22  C   UNL     1      -2.267  -0.154   0.746  0.00  0.00    +0.248 C 
ATOM     23  O   UNL     1      -2.217   0.850   1.433  0.00  0.00    -0.270 OA
ATOM     24  N   UNL     1      -3.407  -0.474   0.102  0.00  0.00    -0.282 N 
ATOM     25  H   UNL     1      -3.426  -1.232  -0.503  0.00  0.00    +0.155 HD
BRANCH  24  26
ATOM     26  C   UNL     1      -4.562   0.287   0.305  0.00  0.00    +0.034 A 
ATOM     27  C   UNL     1      -4.471   1.666   0.447  0.00  0.00    +0.023 A 
ATOM     28  C   UNL     1      -5.614   2.415   0.647  0.00  0.00    +0.002 A 
ATOM     29  C   UNL     1      -6.848   1.794   0.708  0.00  0.00    +0.000 A 
ATOM     30  C   UNL     1      -6.942   0.421   0.568  0.00  0.00    +0.002 A 
ATOM     31  C   UNL     1      -5.803  -0.333   0.361  0.00  0.00    +0.023 A 
ENDBRANCH  24  26
ENDBRANCH   3  22
TORSDOF 5
