REMARK  Name = ZINC17885451
REMARK  8 active torsions:
REMARK  status: ('A' for Active; 'I' for Inactive)
REMARK    1  A    between atoms: C_3  and  N_10
REMARK    2  A    between atoms: C_6  and  C_7
REMARK    3  A    between atoms: C_7  and  C_8
REMARK    4  A    between atoms: C_8  and  O_9
REMARK    5  A    between atoms: N_29  and  C_32
REMARK    6  A    between atoms: C_35  and  C_38
REMARK    7  A    between atoms: C_38  and  C_39
REMARK    8  A    between atoms: C_39  and  O_40
REMARK                            x       y       z     vdW  Elec       q    Type
REMARK                         _______ _______ _______ _____ _____    ______ ____
ROOT
ATOM      1  N   UNL     1       3.586   2.125  -0.021  0.00  0.00    -0.210 N 
ATOM      2  C   UNL     1       3.652   3.501  -0.009  0.00  0.00    +0.231 C 
ATOM      3  O   UNL     1       2.744   4.283   0.175  0.00  0.00    -0.274 OA
ATOM      4  C   UNL     1       5.060   3.813  -0.267  0.00  0.00    +0.096 C 
ATOM      5  C   UNL     1       5.756   2.575   0.318  0.00  0.00    +0.096 C 
ATOM      6  C   UNL     1       4.829   1.524  -0.036  0.00  0.00    +0.231 C 
ATOM      7  O   UNL     1       5.088   0.367  -0.293  0.00  0.00    -0.274 OA
ATOM      8  C   UNL     1       7.221   2.826   0.313  0.00  0.00    +0.037 C 
ATOM      9  C   UNL     1       7.560   3.525  -0.998  0.00  0.00    -0.026 C 
ATOM     10  C   UNL     1       6.915   4.635  -1.348  0.00  0.00    -0.026 C 
ATOM     11  C   UNL     1       5.853   5.075  -0.217  0.00  0.00    +0.037 C 
ATOM     12  C   UNL     1       6.895   5.170   0.874  0.00  0.00    +0.096 C 
ATOM     13  C   UNL     1       7.257   3.817   1.441  0.00  0.00    +0.096 C 
ATOM     14  C   UNL     1       8.317   4.227   2.365  0.00  0.00    +0.231 C 
ATOM     15  O   UNL     1       9.322   3.618   2.664  0.00  0.00    -0.274 OA
ATOM     16  N   UNL     1       7.913   5.465   2.818  0.00  0.00    -0.210 N 
ATOM     17  C   UNL     1       6.887   5.952   2.121  0.00  0.00    +0.231 C 
ATOM     18  O   UNL     1       6.162   6.876   2.420  0.00  0.00    -0.274 OA
ENDROOT
BRANCH   1  21
ATOM     19  C   UNL     1      -0.017   1.379   0.010  0.00  0.00    +0.005 A 
ATOM     20  C   UNL     1       1.169   2.087   0.002  0.00  0.00    +0.024 A 
ATOM     21  C   UNL     1       2.381   1.409  -0.013  0.00  0.00    +0.044 A 
ATOM     22  C   UNL     1       2.396   0.021  -0.021  0.00  0.00    +0.024 A 
ATOM     23  C   UNL     1       1.207  -0.682  -0.013  0.00  0.00    +0.005 A 
ATOM     24  C   UNL     1       0.002  -0.004   0.002  0.00  0.00    -0.045 A 
BRANCH  24  25
ATOM     25  C   UNL     1      -1.294  -0.774   0.010  0.00  0.00    +0.063 C 
BRANCH  25  26
ATOM     26  C   UNL     1      -1.746  -1.026  -1.429  0.00  0.00    +0.160 C 
BRANCH  26  27
ATOM     27  O   UNL     1      -2.974  -1.756  -1.421  0.00  0.00    -0.395 OA
ATOM     28  H   UNL     1      -3.321  -1.952  -2.303  0.00  0.00    +0.209 HD
ENDBRANCH  26  27
ENDBRANCH  25  26
ENDBRANCH  24  25
ENDBRANCH   1  21
BRANCH  16  29
ATOM     29  C   UNL     1       8.470   6.098   3.938  0.00  0.00    +0.044 A 
ATOM     30  C   UNL     1       9.488   5.480   4.652  0.00  0.00    +0.024 A 
ATOM     31  C   UNL     1      10.034   6.107   5.755  0.00  0.00    +0.005 A 
ATOM     32  C   UNL     1       9.568   7.348   6.148  0.00  0.00    -0.045 A 
ATOM     33  C   UNL     1       8.555   7.966   5.439  0.00  0.00    +0.005 A 
ATOM     34  C   UNL     1       8.009   7.347   4.331  0.00  0.00    +0.024 A 
BRANCH  32  35
ATOM     35  C   UNL     1      10.166   8.029   7.353  0.00  0.00    +0.063 C 
BRANCH  35  36
ATOM     36  C   UNL     1      11.349   8.895   6.915  0.00  0.00    +0.160 C 
BRANCH  36  37
ATOM     37  O   UNL     1      11.916   9.540   8.056  0.00  0.00    -0.395 OA
ATOM     38  H   UNL     1      12.672  10.107   7.853  0.00  0.00    +0.209 HD
ENDBRANCH  36  37
ENDBRANCH  35  36
ENDBRANCH  32  35
ENDBRANCH  16  29
TORSDOF 8
