REMARK  Name = ZINC09637746
REMARK  4 active torsions:
REMARK  status: ('A' for Active; 'I' for Inactive)
REMARK    1  A    between atoms: C_1  and  C_2
REMARK    2  A    between atoms: C_11  and  C_12
REMARK    3  A    between atoms: C_11  and  N_55
REMARK    4  A    between atoms: N_14  and  C_15
REMARK                            x       y       z     vdW  Elec       q    Type
REMARK                         _______ _______ _______ _____ _____    ______ ____
ROOT
ATOM      1  C   UNL     1      -2.069   0.626   3.494  0.00  0.00    +0.201 C 
ATOM      2  O   UNL     1      -1.015   0.105   3.197  0.00  0.00    -0.278 OA
ATOM      3  N   UNL     1      -2.550   0.510   4.747  0.00  0.00    -0.287 N 
ATOM      4  H   UNL     1      -3.424   0.869   4.967  0.00  0.00    +0.155 HD
ENDROOT
BRANCH   3   5
ATOM      5  C   UNL     1      -1.788  -0.130   5.733  0.00  0.00    +0.037 A 
ATOM      6  C   UNL     1      -1.831   0.321   7.046  0.00  0.00    +0.027 A 
ATOM      7  C   UNL     1      -1.080  -0.310   8.020  0.00  0.00    +0.051 A 
ATOM      8  C   UNL     1      -0.283  -1.394   7.690  0.00  0.00    +0.167 A 
ATOM      9  C   UNL     1      -0.238  -1.849   6.374  0.00  0.00    +0.169 A 
ATOM     10  C   UNL     1      -0.994  -1.218   5.399  0.00  0.00    +0.072 A 
ATOM     11  O   UNL     1       0.610  -2.917   6.309  0.00  0.00    -0.447 OA
ATOM     12  C   UNL     1       1.380  -2.869   7.518  0.00  0.00    +0.254 C 
ATOM     13  O   UNL     1       0.538  -2.178   8.451  0.00  0.00    -0.448 OA
ATOM     14  C   UNL     1       1.676  -4.280   8.014  0.00  0.00    +0.093 C 
ATOM     15  C   UNL     1       2.473  -4.209   9.319  0.00  0.00    +0.008 C 
ATOM     16  C   UNL     1       3.780  -3.451   9.077  0.00  0.00    +0.000 C 
ATOM     17  C   UNL     1       3.466  -2.030   8.602  0.00  0.00    +0.008 C 
ATOM     18  C   UNL     1       2.674  -2.094   7.294  0.00  0.00    +0.093 C 
ENDBRANCH   3   5
BRANCH   1  19
ATOM     19  C   UNL     1      -2.841   1.405   2.460  0.00  0.00    +0.020 C 
BRANCH  19  29
ATOM     20  C   UNL     1      -1.033   3.437   1.322  0.00  0.00    -0.007 C 
ATOM     21  C   UNL     1      -0.862   1.925   1.159  0.00  0.00    -0.023 C 
ATOM     22  C   UNL     1      -0.187   1.627  -0.158  0.00  0.00    +0.005 A 
ATOM     23  C   UNL     1       0.876   2.236  -0.702  0.00  0.00    +0.021 A 
ATOM     24  C   UNL     1       1.132   1.610  -1.940  0.00  0.00    +0.019 A 
ATOM     25  C   UNL     1       0.208   0.637  -2.101  0.00  0.00    +0.086 A 
ATOM     26  N   UNL     1      -0.603   0.640  -1.013  0.00  0.00    -0.354 N 
ATOM     27  C   UNL     1      -1.746  -0.238  -0.735  0.00  0.00    +0.103 C 
ATOM     28  C   UNL     1      -2.075  -0.141   0.760  0.00  0.00    -0.055 C 
ATOM     29  N   UNL     1      -2.200   1.286   1.134  0.00  0.00    +0.392 N 
ATOM     30  H   UNL     1      -2.783   1.762   0.436  0.00  0.00    -0.080 HD
ENDBRANCH  19  29
ENDBRANCH   1  19
TORSDOF 3
