REMARK  Name = ZINC33121480
REMARK  6 active torsions:
REMARK  status: ('A' for Active; 'I' for Inactive)
REMARK    1  A    between atoms: C_1  and  C_2
REMARK    2  A    between atoms: C_2  and  C_3
REMARK    3  A    between atoms: C_3  and  C_4
REMARK    4  A    between atoms: N_15  and  C_16
REMARK    5  A    between atoms: C_19  and  S_21
REMARK    6  A    between atoms: S_21  and  N_24
REMARK                            x       y       z     vdW  Elec       q    Type
REMARK                         _______ _______ _______ _____ _____    ______ ____
ROOT
ATOM      1  C   UNL     1      -0.747   1.583  -1.224  0.00  0.00    +0.216 C 
ATOM      2  O   UNL     1      -1.742   2.266  -1.103  0.00  0.00    -0.276 OA
ATOM      3  N   UNL     1      -0.289   1.270  -2.452  0.00  0.00    -0.300 N 
ATOM      4  C   UNL     1      -1.002   1.761  -3.655  0.00  0.00    +0.109 C 
ATOM      5  C   UNL     1      -0.287   2.904  -4.243  0.00  0.00    +0.038 C 
ATOM      6  C   UNL     1       1.157   2.540  -4.627  0.00  0.00    +0.111 C 
ATOM      7  N   UNL     1       1.947   2.544  -3.429  0.00  0.00    -0.284 N 
ATOM      8  C   UNL     1       2.187   1.308  -2.634  0.00  0.00    +0.128 C 
ATOM      9  C   UNL     1       0.893   0.467  -2.594  0.00  0.00    +0.126 C 
ATOM     10  C   UNL     1       2.490   3.705  -3.009  0.00  0.00    +0.307 C 
ATOM     11  O   UNL     1       3.087   3.749  -1.951  0.00  0.00    -0.252 OA
ATOM     12  N   UNL     1       2.369   4.816  -3.763  0.00  0.00    -0.264 N 
ATOM     13  H   UNL     1       1.758   4.797  -4.677  0.00  0.00    +0.157 HD
ENDROOT
BRANCH  12  14
ATOM     14  C   UNL     1       3.022   5.992  -3.382  0.00  0.00    +0.075 A 
ATOM     15  C   UNL     1       3.029   7.207  -3.997  0.00  0.00    +0.033 A 
ATOM     16  C   UNL     1       3.755   8.238  -3.429  0.00  0.00    +0.038 A 
ATOM     17  C   UNL     1       4.437   8.008  -2.281  0.00  0.00    +0.144 A 
ATOM     18  S   UNL     1       4.057   6.294  -1.959  0.00  0.00    -0.054 S 
BRANCH  17  19
ATOM     19  S   UNL     1       5.434   9.118  -1.344  0.00  0.00    +0.067 S 
ATOM     20  O   UNL     1       6.342   8.317  -0.599  0.00  0.00    -0.152 OA
ATOM     21  O   UNL     1       5.871  10.129  -2.242  0.00  0.00    -0.152 OA
BRANCH  19  22
ATOM     22  N   UNL     1       4.443   9.858  -0.244  0.00  0.00    -0.176 NA
ATOM     23  C   UNL     1       3.709  11.113  -0.461  0.00  0.00    +0.109 C 
ATOM     24  C   UNL     1       2.941  11.426   0.841  0.00  0.00    +0.018 C 
ATOM     25  C   UNL     1       3.739  10.634   1.911  0.00  0.00    +0.018 C 
ATOM     26  C   UNL     1       4.154   9.371   1.117  0.00  0.00    +0.109 C 
ENDBRANCH  19  22
ENDBRANCH  17  19
ENDBRANCH  12  14
BRANCH   1  27
ATOM     27  C   UNL     1      -0.022   1.085   0.000  0.00  0.00    +0.096 C 
BRANCH  27  29
ATOM     28  C   UNL     1      -0.007   1.073   2.499  0.00  0.00    +0.004 C 
ATOM     29  C   UNL     1      -0.743   1.579   1.256  0.00  0.00    +0.006 C 
ENDBRANCH  27  29
ENDBRANCH   1  27
TORSDOF 5
