REMARK  Name = ZINC01096260
REMARK  8 active torsions:
REMARK  status: ('A' for Active; 'I' for Inactive)
REMARK    1  A    between atoms: C_1  and  C_2
REMARK    2  A    between atoms: C_2  and  C_3
REMARK    3  A    between atoms: C_2  and  O_4
REMARK    4  A    between atoms: O_4  and  C_5
REMARK    5  A    between atoms: C_14  and  C_15
REMARK    6  A    between atoms: C_16  and  C_17
REMARK    7  A    between atoms: C_16  and  C_19
REMARK    8  A    between atoms: N_21  and  C_22
REMARK                            x       y       z     vdW  Elec       q    Type
REMARK                         _______ _______ _______ _____ _____    ______ ____
ROOT
ATOM      1  C   UNL     1      -1.237   3.562  -0.191  0.00  0.00    +0.129 A 
ATOM      2  C   UNL     1      -0.040   4.239  -0.419  0.00  0.00    +0.047 A 
ATOM      3  C   UNL     1       1.123   3.578  -0.661  0.00  0.00    +0.012 A 
ATOM      4  C   UNL     1       1.163   2.171  -0.691  0.00  0.00    -0.017 A 
ATOM      5  C   UNL     1       2.361   1.482  -0.941  0.00  0.00    +0.008 A 
ATOM      6  C   UNL     1       2.363   0.120  -0.963  0.00  0.00    +0.001 A 
ATOM      7  C   UNL     1       1.194  -0.602  -0.741  0.00  0.00    +0.001 A 
ATOM      8  C   UNL     1       0.014   0.037  -0.496  0.00  0.00    +0.009 A 
ATOM      9  C   UNL     1      -0.024   1.434  -0.466  0.00  0.00    -0.007 A 
ATOM     10  C   UNL     1      -1.272   2.159  -0.212  0.00  0.00    +0.026 A 
ENDROOT
BRANCH  10  11
ATOM     11  C   UNL     1      -2.481   1.463   0.012  0.00  0.00    +0.036 C 
ATOM     12  C   UNL     1      -3.268   1.777   1.105  0.00  0.00    +0.114 C 
BRANCH  12  13
ATOM     13  C   UNL     1      -4.525   1.053   1.337  0.00  0.00    +0.255 C 
ATOM     14  O   UNL     1      -4.874   0.176   0.568  0.00  0.00    -0.269 OA
ATOM     15  N   UNL     1      -5.293   1.359   2.402  0.00  0.00    -0.308 N 
ATOM     16  H   UNL     1      -4.978   2.151   3.097  0.00  0.00    +0.149 HD
BRANCH  15  17
ATOM     17  C   UNL     1      -6.546   0.636   2.633  0.00  0.00    +0.073 C 
ATOM     18  C   UNL     1      -7.668   1.289   1.823  0.00  0.00    +0.022 C 
ATOM     19  C   UNL     1      -8.977   0.534   2.064  0.00  0.00    +0.002 C 
ATOM     20  C   UNL     1      -9.327   0.585   3.553  0.00  0.00    +0.000 C 
ATOM     21  C   UNL     1      -8.206  -0.067   4.363  0.00  0.00    +0.002 C 
ATOM     22  C   UNL     1      -6.896   0.687   4.122  0.00  0.00    +0.022 C 
ENDBRANCH  15  17
ENDBRANCH  12  13
BRANCH  12  23
ATOM     23  C   UNL     1      -2.858   2.808   2.010  0.00  0.00    +0.104 C 
ATOM     24  N   UNL     1      -2.533   3.626   2.728  0.00  0.00    -0.191 NA
ENDBRANCH  12  23
ENDBRANCH  10  11
BRANCH   1  25
ATOM     25  O   UNL     1      -2.373   4.261   0.046  0.00  0.00    -0.489 OA
BRANCH  25  27
ATOM     26  C   UNL     1      -2.276   6.310  -1.231  0.00  0.00    +0.051 C 
ATOM     27  C   UNL     1      -2.249   5.680   0.162  0.00  0.00    +0.167 C 
ATOM     28  C   UNL     1      -3.412   6.227   0.993  0.00  0.00    +0.051 C 
ENDBRANCH  25  27
ENDBRANCH   1  25
TORSDOF 6
