REMARK  Name = ZINC15956651
REMARK  8 active torsions:
REMARK  status: ('A' for Active; 'I' for Inactive)
REMARK    1  A    between atoms: C_1  and  C_2
REMARK    2  A    between atoms: C_16  and  C_19
REMARK    3  A    between atoms: C_19  and  C_21
REMARK    4  A    between atoms: C_19  and  O_22
REMARK    5  A    between atoms: N_25  and  C_28
REMARK    6  A    between atoms: C_28  and  C_29
REMARK    7  A    between atoms: C_34  and  O_35
REMARK    8  A    between atoms: O_35  and  C_36
REMARK                            x       y       z     vdW  Elec       q    Type
REMARK                         _______ _______ _______ _____ _____    ______ ____
ROOT
ATOM      1  C   UNL     1       0.110   1.379  -0.321  0.00  0.00    +0.045 C 
ATOM      2  C   UNL     1       0.052  -0.124  -0.232  0.00  0.00    -0.029 A 
ATOM      3  C   UNL     1      -0.075  -0.877  -1.381  0.00  0.00    +0.005 A 
ATOM      4  C   UNL     1      -0.129  -2.257  -1.309  0.00  0.00    +0.001 A 
ATOM      5  C   UNL     1      -0.055  -2.886  -0.078  0.00  0.00    +0.008 A 
ATOM      6  C   UNL     1       0.073  -2.138   1.071  0.00  0.00    +0.004 A 
ATOM      7  C   UNL     1       0.133  -0.749   1.010  0.00  0.00    +0.042 A 
ATOM      8  N   UNL     1       0.268  -0.214   2.294  0.00  0.00    -0.283 N 
ATOM      9  C   UNL     1       0.308  -1.172   3.241  0.00  0.00    +0.243 C 
ATOM     10  O   UNL     1       0.418  -1.003   4.437  0.00  0.00    -0.273 OA
ATOM     11  C   UNL     1       0.178  -2.490   2.528  0.00  0.00    +0.136 C 
ATOM     12  C   UNL     1      -1.047  -3.281   3.005  0.00  0.00    +0.123 C 
ATOM     13  C   UNL     1      -0.589  -4.766   2.975  0.00  0.00    +0.109 C 
ATOM     14  C   UNL     1       0.863  -4.723   2.453  0.00  0.00    +0.096 C 
ATOM     15  N   UNL     1       1.345  -3.351   2.794  0.00  0.00    -0.293 NA
ATOM     16  C   UNL     1      -0.599  -5.164   4.433  0.00  0.00    +0.228 C 
ATOM     17  O   UNL     1      -0.293  -6.256   4.863  0.00  0.00    -0.275 OA
ATOM     18  N   UNL     1      -0.998  -4.125   5.175  0.00  0.00    -0.237 N 
ATOM     19  C   UNL     1      -1.288  -3.006   4.473  0.00  0.00    +0.229 C 
ATOM     20  O   UNL     1      -1.674  -1.953   4.933  0.00  0.00    -0.275 OA
ATOM     21  H   UNL     1       0.325   0.735   2.482  0.00  0.00    +0.155 HD
ATOM     22  H   UNL     1       2.126  -3.091   2.211  0.00  0.00    +0.124 HD
ENDROOT
BRANCH  14  23
ATOM     23  C   UNL     1       1.718  -5.768   3.171  0.00  0.00    +0.129 C 
ATOM     24  C   UNL     1       1.240  -7.170   2.789  0.00  0.00    +0.039 C 
BRANCH  23  25
ATOM     25  O   UNL     1       3.086  -5.610   2.787  0.00  0.00    -0.390 OA
ATOM     26  H   UNL     1       3.243  -5.716   1.839  0.00  0.00    +0.210 HD
ENDBRANCH  23  25
ENDBRANCH  14  23
BRANCH  18  27
ATOM     27  C   UNL     1      -1.118  -4.193   6.633  0.00  0.00    +0.155 C 
BRANCH  27  28
ATOM     28  C   UNL     1       0.190  -3.791   7.265  0.00  0.00    +0.012 A 
ATOM     29  C   UNL     1       1.067  -4.760   7.715  0.00  0.00    +0.009 A 
ATOM     30  C   UNL     1       2.267  -4.392   8.294  0.00  0.00    +0.001 A 
ATOM     31  C   UNL     1       2.593  -3.054   8.425  0.00  0.00    +0.004 A 
ATOM     32  C   UNL     1       1.720  -2.082   7.976  0.00  0.00    +0.046 A 
ATOM     33  C   UNL     1       0.518  -2.449   7.389  0.00  0.00    +0.125 A 
BRANCH  33  34
ATOM     34  O   UNL     1      -0.340  -1.495   6.941  0.00  0.00    -0.495 OA
ATOM     35  C   UNL     1       0.063  -0.133   7.102  0.00  0.00    +0.277 C 
ENDBRANCH  33  34
ENDBRANCH  27  28
ENDBRANCH  18  27
TORSDOF 5
