REMARK  Name = ZINC04374232
REMARK  4 active torsions:
REMARK  status: ('A' for Active; 'I' for Inactive)
REMARK    1  A    between atoms: C_9  and  C_12
REMARK    2  A    between atoms: C_12  and  N_13
REMARK    3  A    between atoms: N_16  and  C_17
REMARK    4  A    between atoms: N_22  and  C_24
REMARK                            x       y       z     vdW  Elec       q    Type
REMARK                         _______ _______ _______ _____ _____    ______ ____
ROOT
ATOM      1  N   UNL     1       1.151   1.906  -0.051  0.00  0.00    -0.296 N 
ATOM      2  C   UNL     1      -0.007   1.217  -0.026  0.00  0.00    +0.300 C 
ATOM      3  O   UNL     1       0.009   0.001  -0.022  0.00  0.00    -0.253 OA
ATOM      4  N   UNL     1      -1.183   1.875  -0.009  0.00  0.00    -0.295 N 
ATOM      5  H   UNL     1       1.138   2.876  -0.054  0.00  0.00    +0.150 HD
ATOM      6  H   UNL     1      -1.196   2.845  -0.012  0.00  0.00    +0.151 HD
ENDROOT
BRANCH   4   7
ATOM      7  C   UNL     1      -2.442   1.126   0.013  0.00  0.00    +0.101 C 
ATOM      8  C   UNL     1      -2.894   0.762  -1.420  0.00  0.00    +0.120 C 
ATOM      9  C   UNL     1      -3.820   1.891  -1.815  0.00  0.00    +0.222 C 
ATOM     10  O   UNL     1      -4.170   2.138  -2.950  0.00  0.00    -0.275 OA
ATOM     11  N   UNL     1      -4.199   2.580  -0.725  0.00  0.00    -0.270 N 
ATOM     12  C   UNL     1      -3.607   2.018   0.494  0.00  0.00    +0.136 C 
BRANCH  11  13
ATOM     13  C   UNL     1      -5.050   3.693  -0.750  0.00  0.00    +0.036 A 
ATOM     14  C   UNL     1      -5.458   4.228  -1.964  0.00  0.00    +0.026 A 
ATOM     15  C   UNL     1      -6.301   5.322  -1.987  0.00  0.00    +0.040 A 
ATOM     16  C   UNL     1      -6.729   5.892  -0.799  0.00  0.00    +0.124 A 
ATOM     17  C   UNL     1      -6.318   5.363   0.412  0.00  0.00    +0.040 A 
ATOM     18  C   UNL     1      -5.480   4.265   0.439  0.00  0.00    +0.026 A 
ATOM     19  F   UNL     1      -7.549   6.965  -0.824  0.00  0.00    -0.205 F 
ENDBRANCH  11  13
ENDBRANCH   4   7
BRANCH   1  20
ATOM     20  C   UNL     1       2.429   1.190  -0.075  0.00  0.00    +0.153 C 
BRANCH  20  29
ATOM     21  C   UNL     1       6.802   5.252  -2.300  0.00  0.00    +0.004 A 
ATOM     22  C   UNL     1       5.568   5.541  -2.851  0.00  0.00    +0.004 A 
ATOM     23  C   UNL     1       4.461   4.788  -2.507  0.00  0.00    +0.049 A 
ATOM     24  C   UNL     1       4.586   3.740  -1.608  0.00  0.00    +0.163 A 
ATOM     25  C   UNL     1       5.827   3.450  -1.052  0.00  0.00    +0.162 A 
ATOM     26  C   UNL     1       6.933   4.209  -1.402  0.00  0.00    +0.049 A 
ATOM     27  O   UNL     1       5.971   2.428  -0.166  0.00  0.00    -0.485 OA
ATOM     28  C   UNL     1       4.920   1.456  -0.127  0.00  0.00    +0.275 C 
ATOM     29  C   UNL     1       3.578   2.200  -0.102  0.00  0.00    +0.228 C 
ATOM     30  O   UNL     1       3.489   3.003  -1.284  0.00  0.00    -0.480 OA
ENDBRANCH  20  29
ENDBRANCH   1  20
TORSDOF 4
