REMARK  Name = ZINC02247700
REMARK  6 active torsions:
REMARK  status: ('A' for Active; 'I' for Inactive)
REMARK    1  A    between atoms: C_1  and  C_2
REMARK    2  A    between atoms: N_8  and  C_9
REMARK    3  A    between atoms: C_9  and  C_10
REMARK    4  A    between atoms: C_19  and  C_27
REMARK    5  A    between atoms: C_21  and  C_25
REMARK    6  A    between atoms: C_22  and  N_24
REMARK                            x       y       z     vdW  Elec       q    Type
REMARK                         _______ _______ _______ _____ _____    ______ ____
ROOT
ATOM      1  C   UNL     1       2.007   5.087  -0.604  0.00  0.00    +0.064 C 
ATOM      2  C   UNL     1       2.334   3.658  -0.253  0.00  0.00    +0.023 A 
ATOM      3  C   UNL     1       1.345   2.740  -0.211  0.00  0.00    +0.068 A 
ATOM      4  C   UNL     1       1.646   1.401   0.117  0.00  0.00    +0.141 A 
ATOM      5  C   UNL     1       2.953   1.058   0.389  0.00  0.00    +0.075 A 
ATOM      6  C   UNL     1       3.946   2.045   0.332  0.00  0.00    +0.260 A 
ATOM      7  O   UNL     1       5.108   1.756   0.570  0.00  0.00    -0.267 OA
ATOM      8  N   UNL     1       3.620   3.312   0.017  0.00  0.00    -0.308 N 
ATOM      9  C   UNL     1       3.319  -0.357   0.743  0.00  0.00    +0.139 C 
ATOM     10  C   UNL     1       2.205  -1.291   0.359  0.00  0.00    +0.101 C 
ATOM     11  C   UNL     1       0.960  -0.828   0.095  0.00  0.00    +0.199 C 
ATOM     12  O   UNL     1       0.660   0.481   0.160  0.00  0.00    -0.441 OA
ENDROOT
BRANCH   9  13
ATOM     13  C   UNL     1       3.561  -0.451   2.227  0.00  0.00    +0.118 A 
ATOM     14  C   UNL     1       4.714  -0.819   2.815  0.00  0.00    +0.045 A 
ATOM     15  C   UNL     1       4.496  -0.769   4.211  0.00  0.00    +0.041 A 
ATOM     16  C   UNL     1       3.224  -0.373   4.393  0.00  0.00    +0.195 A 
ATOM     17  O   UNL     1       2.664  -0.176   3.188  0.00  0.00    -0.467 OA
ENDBRANCH   9  13
BRANCH  11  18
ATOM     18  N   UNL     1      -0.023  -1.721  -0.251  0.00  0.00    -0.328 N 
ATOM     19  H   UNL     1      -0.919  -1.405  -0.444  0.00  0.00    +0.145 HD
ATOM     20  H   UNL     1       0.178  -2.668  -0.302  0.00  0.00    +0.145 HD
ENDBRANCH  11  18
BRANCH  10  21
ATOM     21  C   UNL     1       2.465  -2.696   0.271  0.00  0.00    +0.101 C 
ATOM     22  N   UNL     1       2.672  -3.811   0.201  0.00  0.00    -0.191 NA
ENDBRANCH  10  21
BRANCH   8  23
ATOM     23  C   UNL     1       4.668   4.334  -0.038  0.00  0.00    +0.160 C 
BRANCH  23  24
ATOM     24  C   UNL     1       4.899   4.892   1.343  0.00  0.00    -0.024 A 
ATOM     25  C   UNL     1       5.742   4.235   2.220  0.00  0.00    +0.009 A 
ATOM     26  C   UNL     1       5.957   4.743   3.488  0.00  0.00    +0.050 A 
ATOM     27  C   UNL     1       5.327   5.912   3.882  0.00  0.00    +0.166 A 
ATOM     28  C   UNL     1       4.478   6.573   2.999  0.00  0.00    +0.167 A 
ATOM     29  C   UNL     1       4.271   6.061   1.728  0.00  0.00    +0.055 A 
ATOM     30  O   UNL     1       3.986   7.687   3.617  0.00  0.00    -0.453 OA
ATOM     31  C   UNL     1       4.222   7.481   5.023  0.00  0.00    +0.466 C 
ATOM     32  O   UNL     1       5.368   6.611   5.054  0.00  0.00    -0.453 OA
ENDBRANCH  23  24
ENDBRANCH   8  23
TORSDOF 5
