REMARK  Name = ZINC11349412
REMARK  13 active torsions:
REMARK  status: ('A' for Active; 'I' for Inactive)
REMARK    1  A    between atoms: C_1  and  C_2
REMARK    2  A    between atoms: C_2  and  C_3
REMARK    3  A    between atoms: C_3  and  N_4
REMARK    4  A    between atoms: N_4  and  C_5
REMARK    5  A    between atoms: N_4  and  C_18
REMARK    6  A    between atoms: C_5  and  C_6
REMARK    7  A    between atoms: C_6  and  C_8
REMARK    8  A    between atoms: C_6  and  O_17
REMARK    9  A    between atoms: C_8  and  O_9
REMARK   10  A    between atoms: O_9  and  C_10
REMARK   11  A    between atoms: C_19  and  N_34
REMARK   12  A    between atoms: N_20  and  C_27
REMARK   13  A    between atoms: C_27  and  C_28
REMARK                            x       y       z     vdW  Elec       q    Type
REMARK                         _______ _______ _______ _____ _____    ______ ____
ROOT
ATOM      1  C   UNL     1       4.691  -6.858  -0.485  0.00  0.00    +0.133 A 
ATOM      2  C   UNL     1       4.970  -7.656  -1.562  0.00  0.00    +0.127 A 
ATOM      3  N   UNL     1       6.232  -8.188  -1.698  0.00  0.00    -0.276 N 
ATOM      4  C   UNL     1       7.180  -7.936  -0.778  0.00  0.00    +0.331 A 
ATOM      5  O   UNL     1       8.288  -8.419  -0.912  0.00  0.00    -0.246 OA
ATOM      6  N   UNL     1       6.922  -7.159   0.289  0.00  0.00    -0.273 N 
ATOM      7  H   UNL     1       7.642  -6.985   0.961  0.00  0.00    +0.173 HD
ATOM      8  C   UNL     1       5.702  -6.612   0.461  0.00  0.00    +0.277 A 
ATOM      9  O   UNL     1       5.476  -5.909   1.432  0.00  0.00    -0.266 OA
ENDROOT
BRANCH   2  10
ATOM     10  N   UNL     1       3.999  -7.918  -2.501  0.00  0.00    -0.343 N 
ATOM     11  H   UNL     1       3.113  -7.538  -2.402  0.00  0.00    +0.144 HD
ATOM     12  H   UNL     1       4.202  -8.484  -3.263  0.00  0.00    +0.144 HD
ENDBRANCH   2  10
BRANCH   1  13
ATOM     13  N   UNL     1       3.405  -6.294  -0.324  0.00  0.00    -0.321 N 
BRANCH  13  14
ATOM     14  C   UNL     1       2.750  -6.814   0.884  0.00  0.00    +0.105 C 
BRANCH  14  16
ATOM     15  C   UNL     1       1.661  -8.812   1.916  0.00  0.00    +0.005 C 
ATOM     16  C   UNL     1       2.343  -8.271   0.657  0.00  0.00    +0.015 C 
ENDBRANCH  14  16
ENDBRANCH  13  14
BRANCH  13  17
ATOM     17  C   UNL     1       3.473  -4.827  -0.296  0.00  0.00    +0.140 C 
BRANCH  17  18
ATOM     18  C   UNL     1       3.705  -4.301  -1.714  0.00  0.00    +0.169 C 
BRANCH  18  19
ATOM     19  O   UNL     1       2.576  -4.617  -2.530  0.00  0.00    -0.387 OA
ATOM     20  H   UNL     1       1.745  -4.235  -2.217  0.00  0.00    +0.210 HD
ENDBRANCH  18  19
BRANCH  18  21
ATOM     21  C   UNL     1       3.894  -2.783  -1.669  0.00  0.00    +0.261 C 
BRANCH  21  22
ATOM     22  O   UNL     1       4.226  -2.306  -2.975  0.00  0.00    -0.489 OA
BRANCH  22  23
ATOM     23  C   UNL     1       4.429  -0.968  -3.110  0.00  0.00    +0.121 A 
ATOM     24  C   UNL     1       4.755  -0.438  -4.349  0.00  0.00    +0.048 A 
ATOM     25  C   UNL     1       4.960   0.922  -4.485  0.00  0.00    +0.042 A 
ATOM     26  C   UNL     1       4.842   1.754  -3.385  0.00  0.00    +0.124 A 
ATOM     27  C   UNL     1       4.516   1.226  -2.148  0.00  0.00    +0.042 A 
ATOM     28  C   UNL     1       4.310  -0.133  -2.009  0.00  0.00    +0.048 A 
ATOM     29  F   UNL     1       5.043   3.083  -3.520  0.00  0.00    -0.205 F 
ENDBRANCH  22  23
ENDBRANCH  21  22
ENDBRANCH  18  21
ENDBRANCH  17  18
ENDBRANCH  13  17
ENDBRANCH   1  13
BRANCH   3  30
ATOM     30  C   UNL     1       6.542  -9.040  -2.850  0.00  0.00    +0.163 C 
BRANCH  30  31
ATOM     31  C   UNL     1       6.239 -10.476  -2.509  0.00  0.00    -0.028 A 
ATOM     32  C   UNL     1       7.220 -11.276  -1.953  0.00  0.00    +0.005 A 
ATOM     33  C   UNL     1       6.940 -12.592  -1.636  0.00  0.00    +0.000 A 
ATOM     34  C   UNL     1       5.683 -13.111  -1.885  0.00  0.00    +0.000 A 
ATOM     35  C   UNL     1       4.704 -12.312  -2.446  0.00  0.00    +0.000 A 
ATOM     36  C   UNL     1       4.982 -10.995  -2.758  0.00  0.00    +0.005 A 
ENDBRANCH  30  31
ENDBRANCH   3  30
TORSDOF 12
