REMARK  Name = ZINC33663760
REMARK  15 active torsions:
REMARK  status: ('A' for Active; 'I' for Inactive)
REMARK    1  A    between atoms: C_1  and  C_2
REMARK    2  A    between atoms: C_2  and  C_3
REMARK    3  A    between atoms: C_3  and  C_4
REMARK    4  A    between atoms: C_4  and  C_5
REMARK    5  A    between atoms: C_8  and  C_11
REMARK    6  A    between atoms: N_13  and  C_14
REMARK    7  A    between atoms: N_13  and  C_21
REMARK    8  A    between atoms: C_14  and  C_15
REMARK    9  A    between atoms: C_15  and  C_16
REMARK   10  A    between atoms: C_16  and  C_17
REMARK   11  A    between atoms: C_17  and  C_18
REMARK   12  A    between atoms: C_18  and  C_19
REMARK   13  A    between atoms: C_19  and  N_20
REMARK   14  A    between atoms: C_21  and  C_23
REMARK   15  A    between atoms: C_21  and  C_24
REMARK                            x       y       z     vdW  Elec       q    Type
REMARK                         _______ _______ _______ _____ _____    ______ ____
ROOT
ATOM      1  C   UNL     1      -0.218  -3.475   1.612  0.00  0.00    +0.247 C 
ATOM      2  O   UNL     1      -1.206  -4.174   1.726  0.00  0.00    -0.270 OA
ATOM      3  N   UNL     1      -0.288  -2.315   0.931  0.00  0.00    -0.288 N 
ENDROOT
BRANCH   1   7
ATOM      4  C   UNL     1       3.457  -4.691   3.362  0.00  0.00    -0.047 A 
ATOM      5  C   UNL     1       2.293  -4.728   4.109  0.00  0.00    +0.004 A 
ATOM      6  C   UNL     1       1.096  -4.334   3.547  0.00  0.00    +0.013 A 
ATOM      7  C   UNL     1       1.061  -3.898   2.221  0.00  0.00    +0.037 A 
ATOM      8  C   UNL     1       2.238  -3.869   1.471  0.00  0.00    +0.013 A 
ATOM      9  C   UNL     1       3.429  -4.260   2.047  0.00  0.00    +0.004 A 
BRANCH   4  10
ATOM     10  C   UNL     1       4.761  -5.122   3.983  0.00  0.00    +0.035 C 
BRANCH  10  11
ATOM     11  C   UNL     1       4.963  -6.621   3.755  0.00  0.00    +0.004 C 
BRANCH  11  13
ATOM     12  C   UNL     1       6.490  -8.558   4.158  0.00  0.00    +0.004 C 
ATOM     13  C   UNL     1       6.287  -7.058   4.385  0.00  0.00    -0.003 C 
ENDBRANCH  11  13
ENDBRANCH  10  11
ENDBRANCH   4  10
ENDBRANCH   1   7
BRANCH   3  14
ATOM     14  C   UNL     1       0.924  -1.525   0.700  0.00  0.00    +0.139 C 
ATOM     15  C   UNL     1       1.048  -1.203  -0.790  0.00  0.00    +0.036 C 
BRANCH  14  16
ATOM     16  C   UNL     1       0.846  -0.242   1.487  0.00  0.00    +0.131 A 
ATOM     17  N   UNL     1       1.995   0.365   1.832  0.00  0.00    -0.232 NA
ATOM     18  H   UNL     1      -1.237  -0.323   1.487  0.00  0.00    +0.170 HD
ATOM     19  C   UNL     1       1.976   1.542   2.552  0.00  0.00    +0.078 A 
ATOM     20  C   UNL     1       3.144   2.195   2.924  0.00  0.00    +0.028 A 
ATOM     21  C   UNL     1       3.070   3.369   3.643  0.00  0.00    +0.002 A 
ATOM     22  C   UNL     1       1.841   3.906   3.999  0.00  0.00    +0.001 A 
ATOM     23  C   UNL     1       0.671   3.273   3.640  0.00  0.00    +0.015 A 
ATOM     24  C   UNL     1       0.730   2.086   2.913  0.00  0.00    +0.065 A 
ATOM     25  C   UNL     1      -0.484   1.361   2.498  0.00  0.00    +0.259 A 
ATOM     26  O   UNL     1      -1.593   1.784   2.776  0.00  0.00    -0.267 OA
ATOM     27  N   UNL     1      -0.333   0.221   1.798  0.00  0.00    -0.309 N 
ENDBRANCH  14  16
ENDBRANCH   3  14
BRANCH   3  28
ATOM     28  C   UNL     1      -1.578  -1.842   0.420  0.00  0.00    +0.109 C 
BRANCH  28  29
ATOM     29  C   UNL     1      -1.798  -2.388  -0.992  0.00  0.00    +0.019 C 
BRANCH  29  30
ATOM     30  C   UNL     1      -3.145  -1.895  -1.525  0.00  0.00    +0.001 C 
BRANCH  30  31
ATOM     31  C   UNL     1      -3.366  -2.441  -2.937  0.00  0.00    -0.002 C 
BRANCH  31  32
ATOM     32  C   UNL     1      -4.713  -1.948  -3.470  0.00  0.00    -0.020 C 
BRANCH  32  33
ATOM     33  C   UNL     1      -4.933  -2.494  -4.882  0.00  0.00    -0.086 C 
BRANCH  33  34
ATOM     34  N   UNL     1      -6.226  -2.020  -5.393  0.00  0.00    +0.378 N 
ATOM     35  H   UNL     1      -6.385  -2.413  -6.408  0.00  0.00    -0.090 HD
ATOM     36  H   UNL     1      -6.229  -0.920  -5.421  0.00  0.00    -0.090 HD
ATOM     37  H   UNL     1      -7.033  -2.372  -4.734  0.00  0.00    -0.090 HD
ENDBRANCH  33  34
ENDBRANCH  32  33
ENDBRANCH  31  32
ENDBRANCH  30  31
ENDBRANCH  29  30
ENDBRANCH  28  29
ENDBRANCH   3  28
TORSDOF 13
