REMARK  Name = ZINC20150730
REMARK  10 active torsions:
REMARK  status: ('A' for Active; 'I' for Inactive)
REMARK    1  A    between atoms: C_1  and  C_2
REMARK    2  A    between atoms: C_2  and  C_3
REMARK    3  A    between atoms: C_3  and  C_4
REMARK    4  A    between atoms: C_4  and  C_34
REMARK    5  A    between atoms: C_9  and  C_12
REMARK    6  A    between atoms: C_15  and  O_18
REMARK    7  A    between atoms: N_21  and  C_24
REMARK    8  A    between atoms: C_34  and  O_36
REMARK    9  A    between atoms: O_36  and  C_37
REMARK   10  A    between atoms: C_37  and  C_38
REMARK                            x       y       z     vdW  Elec       q    Type
REMARK                         _______ _______ _______ _____ _____    ______ ____
ROOT
ATOM      1  C   UNL     1       0.803  -2.001  -1.277  0.00  0.00    +0.129 C 
ATOM      2  C   UNL     1       1.408  -2.560  -2.582  0.00  0.00    +0.120 C 
ATOM      3  C   UNL     1       0.545  -3.806  -2.919  0.00  0.00    +0.111 C 
ATOM      4  C   UNL     1      -0.490  -3.891  -1.778  0.00  0.00    +0.097 C 
ATOM      5  N   UNL     1      -0.599  -2.493  -1.270  0.00  0.00    -0.293 NA
ATOM      6  C   UNL     1      -0.144  -3.415  -4.207  0.00  0.00    +0.232 C 
ATOM      7  O   UNL     1      -0.922  -4.110  -4.824  0.00  0.00    -0.274 OA
ATOM      8  N   UNL     1       0.238  -2.181  -4.558  0.00  0.00    -0.210 N 
ATOM      9  C   UNL     1       1.121  -1.600  -3.714  0.00  0.00    +0.232 C 
ATOM     10  O   UNL     1       1.606  -0.495  -3.836  0.00  0.00    -0.274 OA
ATOM     11  H   UNL     1      -0.982  -2.480  -0.337  0.00  0.00    +0.124 HD
ENDROOT
BRANCH   8  12
ATOM     12  C   UNL     1      -0.234  -1.541  -5.714  0.00  0.00    +0.048 A 
ATOM     13  C   UNL     1      -1.048  -0.422  -5.605  0.00  0.00    +0.028 A 
ATOM     14  C   UNL     1      -1.514   0.208  -6.743  0.00  0.00    +0.051 A 
ATOM     15  C   UNL     1      -1.170  -0.275  -7.997  0.00  0.00    +0.162 A 
ATOM     16  C   UNL     1      -0.354  -1.394  -8.109  0.00  0.00    +0.164 A 
ATOM     17  C   UNL     1       0.117  -2.023  -6.967  0.00  0.00    +0.073 A 
ATOM     18  O   UNL     1       0.001  -1.878  -9.331  0.00  0.00    -0.485 OA
ATOM     19  C   UNL     1      -0.785  -1.446 -10.447  0.00  0.00    +0.270 C 
ATOM     20  C   UNL     1      -0.975   0.073 -10.342  0.00  0.00    +0.270 C 
ATOM     21  O   UNL     1      -1.643   0.356  -9.107  0.00  0.00    -0.485 OA
ENDBRANCH   8  12
BRANCH   4  22
ATOM     22  C   UNL     1      -1.823  -4.347  -2.311  0.00  0.00    -0.029 A 
ATOM     23  C   UNL     1      -2.658  -3.446  -2.946  0.00  0.00    +0.009 A 
ATOM     24  C   UNL     1      -3.881  -3.861  -3.436  0.00  0.00    +0.046 A 
ATOM     25  C   UNL     1      -4.271  -5.185  -3.291  0.00  0.00    +0.117 A 
ATOM     26  C   UNL     1      -3.432  -6.087  -2.654  0.00  0.00    +0.046 A 
ATOM     27  C   UNL     1      -2.208  -5.668  -2.170  0.00  0.00    +0.009 A 
BRANCH  25  28
ATOM     28  O   UNL     1      -5.474  -5.596  -3.771  0.00  0.00    -0.507 OA
ATOM     29  H   UNL     1      -5.446  -5.911  -4.685  0.00  0.00    +0.292 HD
ENDBRANCH  25  28
ENDBRANCH   4  22
BRANCH   1  30
ATOM     30  C   UNL     1       1.550  -2.530  -0.080  0.00  0.00    +0.328 C 
ATOM     31  O   UNL     1       2.708  -2.860  -0.188  0.00  0.00    -0.249 OA
BRANCH  30  32
ATOM     32  O   UNL     1       0.931  -2.635   1.106  0.00  0.00    -0.464 OA
BRANCH  32  33
ATOM     33  C   UNL     1       1.700  -3.144   2.197  0.00  0.00    +0.229 C 
ATOM     34  C   UNL     1       0.831  -3.189   3.456  0.00  0.00    +0.048 C 
ENDBRANCH  32  33
ENDBRANCH  30  32
ENDBRANCH   1  30
BRANCH   1  35
ATOM     35  C   UNL     1       0.832  -0.472  -1.289  0.00  0.00    +0.034 C 
BRANCH  35  37
ATOM     36  C   UNL     1       0.183   1.591  -0.036  0.00  0.00    +0.004 C 
ATOM     37  C   UNL     1       0.155   0.061  -0.024  0.00  0.00    -0.001 C 
ENDBRANCH  35  37
ENDBRANCH   1  35
TORSDOF 8
