REMARK  Name = ZINC35971247
REMARK  9 active torsions:
REMARK  status: ('A' for Active; 'I' for Inactive)
REMARK    1  A    between atoms: C_1  and  C_2
REMARK    2  A    between atoms: C_5  and  C_9
REMARK    3  A    between atoms: C_6  and  C_8
REMARK    4  A    between atoms: N_14  and  C_17
REMARK    5  A    between atoms: C_17  and  C_19
REMARK    6  A    between atoms: C_17  and  C_20
REMARK    7  A    between atoms: N_22  and  C_23
REMARK    8  A    between atoms: C_23  and  C_24
REMARK    9  A    between atoms: N_30  and  C_34
REMARK                            x       y       z     vdW  Elec       q    Type
REMARK                         _______ _______ _______ _____ _____    ______ ____
ROOT
ATOM      1  C   UNL     1       0.108  -4.234  -0.485  0.00  0.00    +0.142 C 
ATOM      2  C   UNL     1      -1.302  -4.773  -0.354  0.00  0.00    +0.058 C 
ATOM      3  C   UNL     1      -1.830  -5.414  -1.417  0.00  0.00    +0.042 C 
ATOM      4  C   UNL     1      -3.223  -5.837  -1.010  0.00  0.00    +0.160 C 
ATOM      5  N   UNL     1      -3.377  -5.355   0.371  0.00  0.00    -0.281 N 
ATOM      6  C   UNL     1      -2.229  -4.740   0.708  0.00  0.00    +0.247 C 
ATOM      7  O   UNL     1      -2.017  -4.223   1.790  0.00  0.00    -0.270 OA
ATOM      8  N   UNL     1      -1.119  -5.574  -2.572  0.00  0.00    -0.260 N 
ATOM      9  C   UNL     1       0.130  -5.119  -2.742  0.00  0.00    +0.307 C 
ATOM     10  O   UNL     1       0.685  -5.308  -3.807  0.00  0.00    -0.252 OA
ATOM     11  N   UNL     1       0.790  -4.458  -1.771  0.00  0.00    -0.288 N 
ATOM     12  C   UNL     1      -1.756  -6.282  -3.685  0.00  0.00    +0.139 C 
ATOM     13  H   UNL     1       1.693  -4.136  -1.916  0.00  0.00    +0.151 HD
ENDROOT
BRANCH   1  18
ATOM     14  C   UNL     1      -0.064   1.461   0.477  0.00  0.00    +0.044 C 
ATOM     15  C   UNL     1      -0.019  -0.024   0.226  0.00  0.00    -0.050 A 
ATOM     16  C   UNL     1      -1.152  -0.686  -0.212  0.00  0.00    +0.004 A 
ATOM     17  C   UNL     1      -1.110  -2.048  -0.442  0.00  0.00    +0.006 A 
ATOM     18  C   UNL     1       0.063  -2.749  -0.235  0.00  0.00    -0.020 A 
ATOM     19  C   UNL     1       1.195  -2.087   0.202  0.00  0.00    -0.045 A 
ATOM     20  C   UNL     1       1.155  -0.724   0.428  0.00  0.00    +0.007 A 
ATOM     21  C   UNL     1       2.474  -2.851   0.428  0.00  0.00    +0.044 C 
ENDBRANCH   1  18
BRANCH   5  22
ATOM     22  C   UNL     1      -4.560  -5.514   1.220  0.00  0.00    +0.159 C 
ATOM     23  C   UNL     1      -5.090  -4.135   1.621  0.00  0.00    +0.038 C 
BRANCH  22  24
ATOM     24  C   UNL     1      -4.188  -6.288   2.459  0.00  0.00    +0.233 C 
ATOM     25  O   UNL     1      -3.048  -6.670   2.616  0.00  0.00    -0.274 OA
ATOM     26  N   UNL     1      -5.123  -6.557   3.391  0.00  0.00    -0.311 N 
ATOM     27  H   UNL     1      -6.036  -6.252   3.265  0.00  0.00    +0.149 HD
BRANCH  26  28
ATOM     28  C   UNL     1      -4.762  -7.309   4.595  0.00  0.00    +0.135 C 
BRANCH  28  29
ATOM     29  C   UNL     1      -5.998  -7.476   5.483  0.00  0.00    +0.135 C 
ATOM     30  C   UNL     1      -5.602  -8.161   6.808  0.00  0.00    +0.035 C 
ATOM     31  C   UNL     1      -6.804  -9.112   7.059  0.00  0.00    +0.031 C 
ATOM     32  C   UNL     1      -7.177  -9.504   5.607  0.00  0.00    +0.160 C 
ATOM     33  O   UNL     1      -6.957  -8.315   4.828  0.00  0.00    -0.375 OA
ENDBRANCH  28  29
ENDBRANCH  26  28
ENDBRANCH  22  24
ENDBRANCH   5  22
TORSDOF 5
