REMARK  Name = ZINC18084770
REMARK  6 active torsions:
REMARK  status: ('A' for Active; 'I' for Inactive)
REMARK    1  A    between atoms: C_1  and  C_2
REMARK    2  A    between atoms: C_2  and  C_3
REMARK    3  A    between atoms: N_8  and  C_9
REMARK    4  A    between atoms: C_12  and  C_15
REMARK    5  A    between atoms: C_17  and  C_19
REMARK    6  A    between atoms: C_19  and  N_20
REMARK                            x       y       z     vdW  Elec       q    Type
REMARK                         _______ _______ _______ _____ _____    ______ ____
ROOT
ATOM      1  C   UNL     1      -1.466  -0.422  -0.030  0.00  0.00    +0.093 C 
ATOM      2  C   UNL     1      -1.544  -1.964  -0.122  0.00  0.00    +0.100 C 
ATOM      3  S   UNL     1      -2.855  -2.294   1.129  0.00  0.00    -0.088 S 
ATOM      4  C   UNL     1      -2.721  -0.761   2.038  0.00  0.00    +0.164 C 
ATOM      5  N   UNL     1      -3.095  -0.519   3.272  0.00  0.00    -0.226 NA
ATOM      6  N   UNL     1      -2.133   0.107   1.144  0.00  0.00    -0.245 N 
ATOM      7  C   UNL     1      -2.179   1.437   1.360  0.00  0.00    +0.239 C 
ATOM      8  O   UNL     1      -1.744   2.202   0.526  0.00  0.00    -0.273 OA
ENDROOT
BRANCH   5   9
ATOM      9  C   UNL     1      -3.667  -1.513   4.021  0.00  0.00    +0.067 A 
ATOM     10  C   UNL     1      -4.653  -2.331   3.466  0.00  0.00    +0.028 A 
ATOM     11  C   UNL     1      -5.224  -3.330   4.226  0.00  0.00    +0.005 A 
ATOM     12  C   UNL     1      -4.823  -3.523   5.536  0.00  0.00    -0.050 A 
ATOM     13  C   UNL     1      -3.846  -2.715   6.093  0.00  0.00    +0.005 A 
ATOM     14  C   UNL     1      -3.263  -1.716   5.342  0.00  0.00    +0.028 A 
ATOM     15  C   UNL     1      -5.452  -4.616   6.361  0.00  0.00    +0.044 C 
ENDBRANCH   5   9
BRANCH   1  17
ATOM     16  C   UNL     1       0.693  -0.435  -1.288  0.00  0.00    +0.006 C 
ATOM     17  C   UNL     1       0.006  -0.005   0.010  0.00  0.00    +0.020 C 
ENDBRANCH   1  17
BRANCH   7  18
ATOM     18  C   UNL     1      -2.770   1.972   2.639  0.00  0.00    +0.214 C 
BRANCH  18  19
ATOM     19  N   UNL     1      -2.704   3.436   2.632  0.00  0.00    -0.215 N 
ATOM     20  C   UNL     1      -1.661   4.150   3.108  0.00  0.00    +0.247 C 
ATOM     21  O   UNL     1      -0.640   3.722   3.603  0.00  0.00    -0.273 OA
ATOM     22  C   UNL     1      -2.037   5.594   2.892  0.00  0.00    +0.113 C 
ATOM     23  C   UNL     1      -2.084   6.356   4.223  0.00  0.00    +0.035 C 
ATOM     24  C   UNL     1      -0.717   7.087   4.285  0.00  0.00    +0.003 C 
ATOM     25  C   UNL     1      -0.477   7.496   2.810  0.00  0.00    +0.003 C 
ATOM     26  C   UNL     1      -1.022   6.303   1.992  0.00  0.00    +0.035 C 
ATOM     27  N   UNL     1      -3.359   5.539   2.266  0.00  0.00    -0.285 N 
ATOM     28  C   UNL     1      -3.667   4.231   2.149  0.00  0.00    +0.310 C 
ATOM     29  O   UNL     1      -4.702   3.821   1.663  0.00  0.00    -0.252 OA
ATOM     30  H   UNL     1      -3.904   6.292   1.988  0.00  0.00    +0.151 HD
ENDBRANCH  18  19
ENDBRANCH   7  18
TORSDOF 4
