REMARK  Name = ZINC39663875
REMARK  12 active torsions:
REMARK  status: ('A' for Active; 'I' for Inactive)
REMARK    1  A    between atoms: C_1  and  C_2
REMARK    2  A    between atoms: C_5  and  C_9
REMARK    3  A    between atoms: C_7  and  C_8
REMARK    4  A    between atoms: C_13  and  C_22
REMARK    5  A    between atoms: N_24  and  C_25
REMARK    6  A    between atoms: C_25  and  C_26
REMARK    7  A    between atoms: C_26  and  C_28
REMARK    8  A    between atoms: C_26  and  N_36
REMARK    9  A    between atoms: C_31  and  O_34
REMARK   10  A    between atoms: O_34  and  C_35
REMARK   11  A    between atoms: N_36  and  C_37
REMARK   12  A    between atoms: N_36  and  C_38
REMARK                            x       y       z     vdW  Elec       q    Type
REMARK                         _______ _______ _______ _____ _____    ______ ____
ROOT
ATOM      1  C   UNL     1       0.314  -4.504   0.062  0.00  0.00    +0.247 C 
ATOM      2  O   UNL     1       0.388  -5.168   1.078  0.00  0.00    -0.270 OA
ATOM      3  N   UNL     1       0.152  -5.112  -1.130  0.00  0.00    -0.296 N 
ATOM      4  C   UNL     1       0.167  -4.492  -2.475  0.00  0.00    +0.121 C 
ATOM      5  C   UNL     1       0.921  -5.506  -3.365  0.00  0.00    +0.100 C 
ATOM      6  C   UNL     1       0.753  -6.857  -2.648  0.00  0.00    -0.004 C 
ATOM      7  C   UNL     1      -0.075  -6.554  -1.391  0.00  0.00    +0.115 C 
ATOM      8  C   UNL     1       2.115  -7.418  -2.253  0.00  0.00    -0.010 C 
ATOM      9  C   UNL     1       1.926  -8.788  -1.594  0.00  0.00    -0.082 C 
ATOM     10  N   UNL     1       1.253  -9.695  -2.531  0.00  0.00    +0.379 N 
ATOM     11  C   UNL     1      -0.093  -9.194  -2.834  0.00  0.00    -0.082 C 
ATOM     12  C   UNL     1       0.011  -7.842  -3.546  0.00  0.00    -0.010 C 
ATOM     13  H   UNL     1       1.789  -9.753  -3.384  0.00  0.00    -0.086 HD
ATOM     14  H   UNL     1       1.184 -10.613  -2.118  0.00  0.00    -0.086 HD
ENDROOT
BRANCH   1  19
ATOM     15  C   UNL     1       0.655   1.234   0.342  0.00  0.00    +0.044 C 
ATOM     16  C   UNL     1       0.566  -0.269   0.269  0.00  0.00    -0.047 A 
ATOM     17  C   UNL     1      -0.017  -0.872  -0.833  0.00  0.00    +0.004 A 
ATOM     18  C   UNL     1      -0.101  -2.246  -0.906  0.00  0.00    +0.013 A 
ATOM     19  C   UNL     1       0.402  -3.030   0.134  0.00  0.00    +0.037 A 
ATOM     20  C   UNL     1       0.988  -2.416   1.242  0.00  0.00    +0.016 A 
ATOM     21  C   UNL     1       1.071  -1.040   1.300  0.00  0.00    -0.047 A 
ATOM     22  C   UNL     1       1.708  -0.375   2.493  0.00  0.00    +0.044 C 
ENDBRANCH   1  19
BRANCH   5  23
ATOM     23  C   UNL     1       0.306  -5.558  -4.739  0.00  0.00    +0.218 C 
ATOM     24  O   UNL     1      -0.860  -5.261  -4.893  0.00  0.00    -0.275 OA
ATOM     25  N   UNL     1       1.051  -5.936  -5.797  0.00  0.00    -0.316 N 
ATOM     26  H   UNL     1       1.983  -6.173  -5.674  0.00  0.00    +0.149 HD
BRANCH  25  27
ATOM     27  C   UNL     1       0.452  -5.986  -7.133  0.00  0.00    +0.093 C 
BRANCH  27  28
ATOM     28  C   UNL     1       1.532  -6.325  -8.163  0.00  0.00    -0.021 C 
BRANCH  28  29
ATOM     29  C   UNL     1       2.049  -7.717  -7.910  0.00  0.00    -0.059 A 
ATOM     30  C   UNL     1       1.333  -8.812  -8.359  0.00  0.00    +0.005 A 
ATOM     31  C   UNL     1       1.805 -10.089  -8.127  0.00  0.00    +0.046 A 
ATOM     32  C   UNL     1       2.998 -10.274  -7.444  0.00  0.00    +0.120 A 
ATOM     33  C   UNL     1       3.715  -9.174  -6.995  0.00  0.00    +0.046 A 
ATOM     34  C   UNL     1       3.241  -7.898  -7.233  0.00  0.00    +0.005 A 
BRANCH  32  35
ATOM     35  O   UNL     1       3.464 -11.530  -7.214  0.00  0.00    -0.495 OA
ATOM     36  C   UNL     1       4.699 -11.644  -6.505  0.00  0.00    +0.277 C 
ENDBRANCH  32  35
ENDBRANCH  28  29
BRANCH  28  37
ATOM     37  N   UNL     1       0.960  -6.253  -9.514  0.00  0.00    +0.382 N 
ATOM     38  C   UNL     1       0.544  -4.873  -9.797  0.00  0.00    -0.096 C 
ATOM     39  C   UNL     1       1.969  -6.672 -10.496  0.00  0.00    -0.096 C 
ATOM     40  H   UNL     1       0.159  -6.865  -9.573  0.00  0.00    -0.082 HD
ENDBRANCH  28  37
ENDBRANCH  27  28
ENDBRANCH  25  27
ENDBRANCH   5  23
TORSDOF 7
