REMARK  Name = ZINC04885797
REMARK  9 active torsions:
REMARK  status: ('A' for Active; 'I' for Inactive)
REMARK    1  A    between atoms: C_1  and  C_2
REMARK    2  A    between atoms: C_2  and  C_3
REMARK    3  A    between atoms: C_3  and  C_29
REMARK    4  A    between atoms: C_8  and  C_10
REMARK    5  A    between atoms: C_13  and  O_16
REMARK    6  A    between atoms: N_19  and  C_22
REMARK    7  A    between atoms: C_25  and  C_28
REMARK    8  A    between atoms: C_29  and  O_31
REMARK    9  A    between atoms: O_31  and  C_32
REMARK                            x       y       z     vdW  Elec       q    Type
REMARK                         _______ _______ _______ _____ _____    ______ ____
ROOT
ATOM      1  C   UNL     1       1.238   2.151  -0.037  0.00  0.00    +0.043 C 
ATOM      2  C   UNL     1       1.058   3.530   0.630  0.00  0.00    +0.086 C 
ATOM      3  C   UNL     1       1.498   3.321   2.103  0.00  0.00    +0.077 C 
ATOM      4  C   UNL     1       1.903   1.835   2.188  0.00  0.00    -0.027 C 
ATOM      5  C   UNL     1       2.736   4.181   2.224  0.00  0.00    +0.229 C 
ATOM      6  O   UNL     1       3.406   4.309   3.227  0.00  0.00    -0.275 OA
ATOM      7  N   UNL     1       2.977   4.779   1.052  0.00  0.00    -0.210 N 
ATOM      8  C   UNL     1       2.087   4.489   0.074  0.00  0.00    +0.229 C 
ATOM      9  O   UNL     1       2.105   4.919  -1.059  0.00  0.00    -0.275 OA
ATOM     10  N   UNL     1       2.228   1.481   0.806  0.00  0.00    +0.395 N 
ATOM     11  H   UNL     1       3.174   1.806   0.570  0.00  0.00    -0.083 HD
ATOM     12  H   UNL     1       2.174   0.464   0.678  0.00  0.00    -0.083 HD
ENDROOT
BRANCH   7  13
ATOM     13  C   UNL     1       4.063   5.644   0.851  0.00  0.00    +0.044 A 
ATOM     14  C   UNL     1       5.099   5.274   0.004  0.00  0.00    +0.024 A 
ATOM     15  C   UNL     1       6.164   6.130  -0.196  0.00  0.00    +0.005 A 
ATOM     16  C   UNL     1       6.205   7.349   0.455  0.00  0.00    -0.050 A 
ATOM     17  C   UNL     1       5.176   7.718   1.302  0.00  0.00    +0.005 A 
ATOM     18  C   UNL     1       4.106   6.869   1.502  0.00  0.00    +0.024 A 
ATOM     19  C   UNL     1       7.372   8.279   0.239  0.00  0.00    +0.044 C 
ENDBRANCH   7  13
BRANCH   4  20
ATOM     20  C   UNL     1       3.093   1.665   3.097  0.00  0.00    -0.060 A 
ATOM     21  C   UNL     1       4.365   1.932   2.626  0.00  0.00    +0.005 A 
ATOM     22  C   UNL     1       5.457   1.783   3.459  0.00  0.00    +0.045 A 
ATOM     23  C   UNL     1       5.278   1.355   4.766  0.00  0.00    +0.117 A 
ATOM     24  C   UNL     1       4.001   1.082   5.235  0.00  0.00    +0.045 A 
ATOM     25  C   UNL     1       2.912   1.238   4.399  0.00  0.00    +0.005 A 
BRANCH  23  26
ATOM     26  O   UNL     1       6.351   1.203   5.586  0.00  0.00    -0.507 OA
ATOM     27  H   UNL     1       6.744   0.320   5.560  0.00  0.00    +0.292 HD
ENDBRANCH  23  26
ENDBRANCH   4  20
BRANCH   1  29
ATOM     28  C   UNL     1       1.950   0.934  -2.100  0.00  0.00    +0.003 C 
ATOM     29  C   UNL     1       1.742   2.314  -1.473  0.00  0.00    -0.004 C 
ENDBRANCH   1  29
BRANCH   1  30
ATOM     30  C   UNL     1      -0.060   1.387  -0.021  0.00  0.00    +0.297 C 
ATOM     31  O   UNL     1      -1.111   1.981   0.030  0.00  0.00    -0.252 OA
BRANCH  30  32
ATOM     32  O   UNL     1      -0.050   0.045  -0.069  0.00  0.00    -0.469 OA
ATOM     33  C   UNL     1      -1.338  -0.625  -0.050  0.00  0.00    +0.280 C 
ENDBRANCH  30  32
ENDBRANCH   1  30
TORSDOF 6
