REMARK  Name = ZINC66253431
REMARK  9 active torsions:
REMARK  status: ('A' for Active; 'I' for Inactive)
REMARK    1  A    between atoms: C_1  and  C_2
REMARK    2  A    between atoms: C_2  and  C_3
REMARK    3  A    between atoms: C_3  and  C_4
REMARK    4  A    between atoms: C_4  and  N_5
REMARK    5  A    between atoms: C_6  and  N_10
REMARK    6  A    between atoms: N_10  and  S_11
REMARK    7  A    between atoms: S_11  and  C_14
REMARK    8  A    between atoms: C_16  and  N_22
REMARK    9  A    between atoms: C_17  and  C_21
REMARK                            x       y       z     vdW  Elec       q    Type
REMARK                         _______ _______ _______ _____ _____    ______ ____
ROOT
ATOM      1  S   UNL     1      -4.057  -2.800   3.683  0.00  0.00    +0.074 S 
ATOM      2  O   UNL     1      -4.549  -4.132   3.739  0.00  0.00    -0.150 OA
ATOM      3  O   UNL     1      -3.282  -2.229   4.728  0.00  0.00    -0.150 OA
ENDROOT
BRANCH   1   4
ATOM      4  C   UNL     1      -5.458  -1.754   3.467  0.00  0.00    +0.112 A 
ATOM      5  C   UNL     1      -5.359  -0.401   3.734  0.00  0.00    +0.062 A 
ATOM      6  C   UNL     1      -6.458   0.420   3.565  0.00  0.00    +0.132 A 
ATOM      7  C   UNL     1      -7.657  -0.111   3.127  0.00  0.00    -0.002 A 
ATOM      8  C   UNL     1      -7.757  -1.464   2.859  0.00  0.00    +0.048 A 
ATOM      9  C   UNL     1      -6.655  -2.285   3.024  0.00  0.00    +0.049 A 
ATOM     10 CL   UNL     1      -9.263  -2.132   2.311  0.00  0.00    -0.083 Cl
ATOM     11  C   UNL     1      -8.855   0.784   2.943  0.00  0.00    +0.047 C 
BRANCH   6  12
ATOM     12  N   UNL     1      -6.351   1.868   3.852  0.00  0.00    +0.057 N 
ATOM     13  O   UNL     1      -6.938   2.667   3.159  0.00  0.00    -0.126 OA
ATOM     14  O   UNL     1      -5.676   2.252   4.778  0.00  0.00    -0.126 OA
ENDBRANCH   6  12
ENDBRANCH   1   4
BRANCH   1  15
ATOM     15  N   UNL     1      -3.147  -2.690   2.304  0.00  0.00    -0.200 N 
ATOM     16  H   UNL     1      -2.257  -2.305   2.340  0.00  0.00    +0.175 HD
BRANCH  15  18
ATOM     17  N   UNL     1      -3.101  -2.977  -0.127  0.00  0.00    -0.249 N 
ATOM     18  C   UNL     1      -3.658  -3.150   1.093  0.00  0.00    +0.136 A 
ATOM     19  C   UNL     1      -4.810  -3.855   0.923  0.00  0.00    +0.066 A 
ATOM     20  C   UNL     1      -4.954  -4.117  -0.443  0.00  0.00    +0.136 A 
ATOM     21  N   UNL     1      -3.936  -3.587  -1.072  0.00  0.00    -0.178 NA
BRANCH  17  22
ATOM     22  C   UNL     1      -1.850  -2.271  -0.411  0.00  0.00    +0.145 C 
BRANCH  22  23
ATOM     23  C   UNL     1      -2.145  -0.790  -0.662  0.00  0.00    +0.023 C 
BRANCH  23  25
ATOM     24  C   UNL     1      -1.133   1.427  -1.210  0.00  0.00    +0.004 C 
ATOM     25  C   UNL     1      -0.837  -0.053  -0.959  0.00  0.00    -0.002 C 
ENDBRANCH  23  25
ENDBRANCH  22  23
ENDBRANCH  17  22
ENDBRANCH  15  18
ENDBRANCH   1  15
TORSDOF 7
