REMARK  Name = ZINC37107638
REMARK  7 active torsions:
REMARK  status: ('A' for Active; 'I' for Inactive)
REMARK    1  A    between atoms: C_1  and  C_2
REMARK    2  A    between atoms: C_7  and  C_8
REMARK    3  A    between atoms: C_8  and  C_10
REMARK    4  A    between atoms: C_8  and  N_11
REMARK    5  A    between atoms: C_12  and  C_14
REMARK    6  A    between atoms: C_14  and  N_15
REMARK    7  A    between atoms: C_23  and  C_25
REMARK                            x       y       z     vdW  Elec       q    Type
REMARK                         _______ _______ _______ _____ _____    ______ ____
ROOT
ATOM      1  C   UNL     1       1.822  -1.083   5.691  0.00  0.00    +0.213 C 
ENDROOT
BRANCH   1   2
ATOM      2  N   UNL     1       2.368  -0.230   6.750  0.00  0.00    -0.215 N 
ATOM      3  C   UNL     1       3.626   0.257   6.758  0.00  0.00    +0.247 C 
ATOM      4  O   UNL     1       4.487   0.078   5.924  0.00  0.00    -0.273 OA
ATOM      5  C   UNL     1       3.735   1.071   8.027  0.00  0.00    +0.115 C 
ATOM      6  C   UNL     1       4.033   2.530   7.698  0.00  0.00    +0.035 C 
ATOM      7  C   UNL     1       5.400   2.631   7.015  0.00  0.00    +0.003 C 
ATOM      8  C   UNL     1       6.476   2.070   7.946  0.00  0.00    +0.000 C 
ATOM      9  C   UNL     1       6.176   0.602   8.251  0.00  0.00    +0.006 C 
ATOM     10  C   UNL     1       4.812   0.493   8.938  0.00  0.00    +0.018 C 
ATOM     11  C   UNL     1       4.502  -0.978   9.225  0.00  0.00    +0.010 C 
ATOM     12  N   UNL     1       2.411   0.943   8.648  0.00  0.00    -0.285 N 
ATOM     13  C   UNL     1       1.678   0.168   7.826  0.00  0.00    +0.310 C 
ATOM     14  O   UNL     1       0.521  -0.138   8.038  0.00  0.00    -0.252 OA
ATOM     15  H   UNL     1       2.120   1.341   9.484  0.00  0.00    +0.151 HD
ENDBRANCH   1   2
BRANCH   1  17
ATOM     16  N   UNL     1       0.630  -0.793   3.543  0.00  0.00    -0.307 N 
ATOM     17  C   UNL     1       1.199  -0.221   4.623  0.00  0.00    +0.231 C 
ATOM     18  O   UNL     1       1.211   0.986   4.735  0.00  0.00    -0.274 OA
ATOM     19  H   UNL     1       0.621  -1.758   3.453  0.00  0.00    +0.149 HD
BRANCH  16  20
ATOM     20  C   UNL     1       0.025   0.045   2.504  0.00  0.00    +0.100 C 
ATOM     21  C   UNL     1      -1.413   0.387   2.899  0.00  0.00    +0.033 C 
BRANCH  20  28
ATOM     22  C   UNL     1      -0.018   1.503   0.010  0.00  0.00    +0.044 C 
ATOM     23  C   UNL     1       0.002  -0.004   0.002  0.00  0.00    -0.046 A 
ATOM     24  C   UNL     1       0.006  -0.689  -1.199  0.00  0.00    +0.004 A 
ATOM     25  C   UNL     1       0.025  -2.071  -1.207  0.00  0.00    +0.000 A 
ATOM     26  C   UNL     1       0.040  -2.768  -0.013  0.00  0.00    +0.000 A 
ATOM     27  C   UNL     1       0.037  -2.084   1.188  0.00  0.00    +0.006 A 
ATOM     28  C   UNL     1       0.023  -0.702   1.195  0.00  0.00    -0.025 A 
ENDBRANCH  20  28
ENDBRANCH  16  20
ENDBRANCH   1  17
TORSDOF 4
