REMARK  Name = ZINC32810154
REMARK  6 active torsions:
REMARK  status: ('A' for Active; 'I' for Inactive)
REMARK    1  A    between atoms: C_6  and  N_7
REMARK    2  A    between atoms: C_8  and  C_10
REMARK    3  A    between atoms: C_14  and  N_15
REMARK    4  A    between atoms: C_16  and  C_18
REMARK    5  A    between atoms: C_18  and  N_19
REMARK    6  A    between atoms: C_21  and  C_26
REMARK                            x       y       z     vdW  Elec       q    Type
REMARK                         _______ _______ _______ _____ _____    ______ ____
ROOT
ATOM      1  C   UNL     1      -8.102  -0.797  -3.508  0.00  0.00    +0.069 A 
ATOM      2  C   UNL     1      -8.194  -1.035  -4.939  0.00  0.00    -0.023 A 
ATOM      3  C   UNL     1      -7.256  -0.413  -5.686  0.00  0.00    -0.004 A 
ATOM      4  S   UNL     1      -6.269   0.482  -4.521  0.00  0.00    -0.077 S 
ATOM      5  C   UNL     1      -7.088   0.038  -3.061  0.00  0.00    +0.084 A 
ATOM      6  C   UNL     1      -7.099  -0.477  -7.174  0.00  0.00    +0.043 C 
ATOM      7  C   UNL     1      -7.933  -1.655  -7.699  0.00  0.00    +0.005 C 
ATOM      8  C   UNL     1      -9.330  -1.586  -7.076  0.00  0.00    +0.005 C 
ATOM      9  C   UNL     1      -9.252  -1.921  -5.585  0.00  0.00    +0.037 C 
ENDROOT
BRANCH   1  11
ATOM     10  N   UNL     1      -8.774  -2.617  -2.032  0.00  0.00    -0.281 N 
ATOM     11  C   UNL     1      -9.048  -1.414  -2.573  0.00  0.00    +0.251 C 
ATOM     12  O   UNL     1     -10.082  -0.839  -2.286  0.00  0.00    -0.270 OA
ATOM     13  H   UNL     1      -7.884  -3.176  -2.357  0.00  0.00    +0.155 HD
BRANCH  10  19
ATOM     14  C   UNL     1     -10.270  -2.317  -0.160  0.00  0.00    +0.025 A 
ATOM     15  C   UNL     1     -11.109  -2.851   0.798  0.00  0.00    +0.022 A 
ATOM     16  C   UNL     1     -11.295  -4.220   0.872  0.00  0.00    +0.041 A 
ATOM     17  C   UNL     1     -10.645  -5.058  -0.018  0.00  0.00    +0.022 A 
ATOM     18  C   UNL     1      -9.809  -4.529  -0.981  0.00  0.00    +0.025 A 
ATOM     19  C   UNL     1      -9.620  -3.155  -1.057  0.00  0.00    +0.034 A 
ATOM     20 CL   UNL     1     -12.346  -4.888   2.082  0.00  0.00    -0.084 Cl
ENDBRANCH  10  19
ENDBRANCH   1  11
BRANCH   5  21
ATOM     21  N   UNL     1      -6.798   0.419  -1.760  0.00  0.00    -0.278 N 
ATOM     22  C   UNL     1      -5.758   1.242  -1.514  0.00  0.00    +0.237 C 
ATOM     23  O   UNL     1      -5.077   1.648  -2.432  0.00  0.00    -0.273 OA
ATOM     24  H   UNL     1      -7.415   0.051  -0.927  0.00  0.00    +0.155 HD
BRANCH  22  25
ATOM     25  C   UNL     1      -5.443   1.656  -0.100  0.00  0.00    +0.220 C 
BRANCH  25  26
ATOM     26  N   UNL     1      -4.278   2.544  -0.101  0.00  0.00    -0.306 N 
ATOM     27  C   UNL     1      -3.043   2.018   0.008  0.00  0.00    +0.102 A 
ATOM     28  C   UNL     1      -1.932   2.837   0.015  0.00  0.00    +0.053 A 
ATOM     29  C   UNL     1      -2.098   4.238  -0.104  0.00  0.00    +0.020 A 
ATOM     30  C   UNL     1      -3.354   4.746  -0.218  0.00  0.00    +0.071 A 
ATOM     31  C   UNL     1      -4.458   3.873  -0.214  0.00  0.00    +0.252 A 
ATOM     32  O   UNL     1      -5.587   4.324  -0.316  0.00  0.00    -0.268 OA
BRANCH  28  33
ATOM     33  C   UNL     1      -0.583   2.256   0.139  0.00  0.00    +0.243 C 
ATOM     34  O   UNL     1      -0.446   1.052   0.241  0.00  0.00    -0.270 OA
ATOM     35  N   UNL     1       0.499   3.059   0.134  0.00  0.00    -0.325 N 
ATOM     36  H   UNL     1       1.506   2.626   0.227  0.00  0.00    +0.145 HD
ATOM     37  H   UNL     1       0.376   4.148   0.038  0.00  0.00    +0.145 HD
ENDBRANCH  28  33
ENDBRANCH  25  26
ENDBRANCH  22  25
ENDBRANCH   5  21
TORSDOF 6
