REMARK  Name = ZINC06363165
REMARK  8 active torsions:
REMARK  status: ('A' for Active; 'I' for Inactive)
REMARK    1  A    between atoms: C_1  and  C_2
REMARK    2  A    between atoms: C_2  and  C_28
REMARK    3  A    between atoms: C_10  and  C_26
REMARK    4  A    between atoms: C_12  and  C_14
REMARK    5  A    between atoms: N_16  and  C_17
REMARK    6  A    between atoms: C_18  and  C_22
REMARK    7  A    between atoms: C_22  and  O_24
REMARK    8  A    between atoms: O_24  and  C_25
REMARK                            x       y       z     vdW  Elec       q    Type
REMARK                         _______ _______ _______ _____ _____    ______ ____
ROOT
ATOM      1  C   UNL     1      -1.142  -1.806  -1.969  0.00  0.00    +0.039 C 
ATOM      2  C   UNL     1       0.278  -1.456  -1.604  0.00  0.00    -0.076 C 
ATOM      3  C   UNL     1       0.514  -0.593  -0.647  0.00  0.00    -0.063 C 
ATOM      4  C   UNL     1       1.836  -0.047  -0.061  0.00  0.00    +0.028 C 
ATOM      5  C   UNL     1       1.639  -0.366   1.452  0.00  0.00    +0.009 C 
ATOM      6  C   UNL     1       0.109  -0.174   1.673  0.00  0.00    +0.009 C 
ATOM      7  C   UNL     1      -0.439   0.213   0.266  0.00  0.00    +0.030 C 
ATOM      8  C   UNL     1       0.081   1.662   0.024  0.00  0.00    +0.122 C 
ATOM      9  C   UNL     1       1.602   1.489  -0.195  0.00  0.00    +0.097 C 
ATOM     10  C   UNL     1       1.426  -2.099  -2.338  0.00  0.00    +0.039 C 
ENDROOT
BRANCH   9  11
ATOM     11  C   UNL     1       1.995   1.964  -1.570  0.00  0.00    +0.222 C 
ATOM     12  O   UNL     1       1.970   1.195  -2.508  0.00  0.00    -0.275 OA
ATOM     13  N   UNL     1       2.374   3.244  -1.758  0.00  0.00    -0.279 N 
ATOM     14  H   UNL     1       2.458   3.841  -0.999  0.00  0.00    +0.155 HD
BRANCH  13  15
ATOM     15  C   UNL     1       2.644   3.706  -3.037  0.00  0.00    +0.086 A 
ATOM     16  C   UNL     1       3.039   4.980  -3.429  0.00  0.00    +0.087 A 
ATOM     17  C   UNL     1       3.257   5.185  -4.842  0.00  0.00    +0.024 A 
ATOM     18  C   UNL     1       3.051   4.133  -5.654  0.00  0.00    +0.048 A 
ATOM     19  S   UNL     1       2.566   2.838  -4.533  0.00  0.00    -0.081 S 
BRANCH  16  20
ATOM     20  C   UNL     1       3.227   6.060  -2.458  0.00  0.00    +0.341 C 
ATOM     21  O   UNL     1       3.038   5.853  -1.274  0.00  0.00    -0.245 OA
BRANCH  20  22
ATOM     22  O   UNL     1       3.611   7.284  -2.876  0.00  0.00    -0.464 OA
ATOM     23  C   UNL     1       3.778   8.306  -1.858  0.00  0.00    +0.280 C 
ENDBRANCH  20  22
ENDBRANCH  16  20
ENDBRANCH  13  15
ENDBRANCH   9  11
BRANCH   8  24
ATOM     24  C   UNL     1      -0.564   2.256  -1.202  0.00  0.00    +0.360 C 
ATOM     25  O   UNL     1      -0.979   1.533  -2.076  0.00  0.00    -0.246 OA
ATOM     26  O   UNL     1      -0.677   3.588  -1.323  0.00  0.00    -0.246 OA
ENDBRANCH   8  24
TORSDOF 5
