REMARK  Name = ZINC60369008
REMARK  8 active torsions:
REMARK  status: ('A' for Active; 'I' for Inactive)
REMARK    1  A    between atoms: C_3  and  S_24
REMARK    2  A    between atoms: C_6  and  C_7
REMARK    3  A    between atoms: N_9  and  N_10
REMARK    4  A    between atoms: N_10  and  C_11
REMARK    5  A    between atoms: C_14  and  S_17
REMARK    6  A    between atoms: S_17  and  N_20
REMARK    7  A    between atoms: N_20  and  C_21
REMARK    8  A    between atoms: S_24  and  C_25
REMARK                            x       y       z     vdW  Elec       q    Type
REMARK                         _______ _______ _______ _____ _____    ______ ____
ROOT
ATOM      1  N   UNL     1      -2.447  -2.826   0.011  0.00  0.00    -0.264 N 
ATOM      2  H   UNL     1      -3.294  -2.353   0.022  0.00  0.00    +0.170 HD
ENDROOT
BRANCH   1   3
ATOM      3  C   UNL     1      -2.427  -4.223   0.004  0.00  0.00    +0.045 A 
ATOM      4  C   UNL     1      -1.214  -4.901  -0.006  0.00  0.00    +0.026 A 
ATOM      5  C   UNL     1      -1.198  -6.282  -0.014  0.00  0.00    +0.030 A 
ATOM      6  C   UNL     1      -2.386  -6.989  -0.012  0.00  0.00    +0.105 A 
ATOM      7  C   UNL     1      -3.595  -6.317  -0.002  0.00  0.00    +0.030 A 
ATOM      8  C   UNL     1      -3.618  -4.936   0.011  0.00  0.00    +0.026 A 
BRANCH   6   9
ATOM      9  S   UNL     1      -2.360  -8.751  -0.022  0.00  0.00    +0.059 S 
ATOM     10  O   UNL     1      -3.602  -9.172  -0.569  0.00  0.00    -0.153 OA
ATOM     11  O   UNL     1      -1.112  -9.136  -0.582  0.00  0.00    -0.153 OA
BRANCH   9  12
ATOM     12  N   UNL     1      -2.345  -9.250   1.557  0.00  0.00    -0.187 NA
ATOM     13  H   UNL     1      -1.574  -9.723   1.908  0.00  0.00    +0.148 HD
BRANCH  12  14
ATOM     14  C   UNL     1      -3.494  -8.976   2.423  0.00  0.00    +0.077 C 
ATOM     15  C   UNL     1      -3.215  -8.705   3.903  0.00  0.00    +0.022 C 
ATOM     16  C   UNL     1      -3.853 -10.028   3.474  0.00  0.00    +0.022 C 
ENDBRANCH  12  14
ENDBRANCH   9  12
ENDBRANCH   6   9
ENDBRANCH   1   3
BRANCH   1  19
ATOM     17  C   UNL     1      -1.264  -0.760   0.011  0.00  0.00    +0.260 C 
ATOM     18  O   UNL     1      -2.326  -0.168   0.024  0.00  0.00    -0.269 OA
ATOM     19  N   UNL     1      -1.244  -2.108   0.003  0.00  0.00    -0.232 N 
ATOM     20  H   UNL     1      -0.397  -2.580  -0.008  0.00  0.00    +0.173 HD
BRANCH  17  26
ATOM     21  C   UNL     1      -0.017   1.394   0.010  0.00  0.00    +0.014 A 
ATOM     22  C   UNL     1       1.162   2.094   0.002  0.00  0.00    +0.016 A 
ATOM     23  C   UNL     1       2.377   1.414  -0.013  0.00  0.00    +0.016 A 
ATOM     24  C   UNL     1       2.399   0.021  -0.022  0.00  0.00    +0.016 A 
ATOM     25  C   UNL     1       1.224  -0.684  -0.014  0.00  0.00    +0.014 A 
ATOM     26  C   UNL     1       0.002  -0.004   0.002  0.00  0.00    +0.038 A 
BRANCH  23  27
ATOM     27  S   UNL     1       3.890   2.318  -0.024  0.00  0.00    -0.016 S 
BRANCH  27  28
ATOM     28  C   UNL     1       5.169   1.032  -0.043  0.00  0.00    +0.448 C 
ATOM     29  F   UNL     1       5.019   0.242  -1.188  0.00  0.00    -0.160 F 
ATOM     30  F   UNL     1       6.433   1.631  -0.053  0.00  0.00    -0.160 F 
ATOM     31  F   UNL     1       5.042   0.230   1.096  0.00  0.00    -0.160 F 
ENDBRANCH  27  28
ENDBRANCH  23  27
ENDBRANCH  17  26
ENDBRANCH   1  19
TORSDOF 8
