REMARK  Name = ZINC16995797
REMARK  2 active torsions:
REMARK  status: ('A' for Active; 'I' for Inactive)
REMARK    1  A    between atoms: C_11  and  C_16
REMARK    2  A    between atoms: N_23  and  C_26
REMARK                            x       y       z     vdW  Elec       q    Type
REMARK                         _______ _______ _______ _____ _____    ______ ____
ROOT
ATOM      1  C   UNL     1       4.948  -2.634  -1.148  0.00  0.00    +0.073 A 
ATOM      2  C   UNL     1       4.634  -3.196  -2.398  0.00  0.00    +0.260 A 
ATOM      3  O   UNL     1       3.489  -3.162  -2.816  0.00  0.00    -0.267 OA
ATOM      4  N   UNL     1       5.606  -3.773  -3.132  0.00  0.00    -0.274 N 
ATOM      5  H   UNL     1       5.393  -4.161  -3.994  0.00  0.00    +0.173 HD
ATOM      6  C   UNL     1       6.872  -3.813  -2.677  0.00  0.00    +0.337 A 
ATOM      7  O   UNL     1       7.736  -4.337  -3.354  0.00  0.00    -0.246 OA
ATOM      8  N   UNL     1       7.196  -3.281  -1.484  0.00  0.00    -0.229 N 
ATOM      9  C   UNL     1       6.237  -2.680  -0.706  0.00  0.00    +0.267 A 
ATOM     10  O   UNL     1       6.566  -2.143   0.487  0.00  0.00    -0.267 OA
ENDROOT
BRANCH   1  21
ATOM     11  C   UNL     1       1.050   2.704  -2.972  0.00  0.00    +0.001 A 
ATOM     12  C   UNL     1       2.341   3.068  -3.331  0.00  0.00    +0.002 A 
ATOM     13  C   UNL     1       3.418   2.297  -2.955  0.00  0.00    +0.026 A 
ATOM     14  C   UNL     1       3.215   1.142  -2.207  0.00  0.00    +0.047 A 
ATOM     15  C   UNL     1       1.904   0.776  -1.844  0.00  0.00    +0.003 A 
ATOM     16  C   UNL     1       0.827   1.574  -2.238  0.00  0.00    +0.010 A 
ATOM     17  C   UNL     1       2.035  -0.457  -1.080  0.00  0.00    -0.022 A 
ATOM     18  C   UNL     1       3.349  -0.761  -1.023  0.00  0.00    +0.011 A 
ATOM     19  N   UNL     1       4.066   0.187  -1.692  0.00  0.00    -0.359 N 
ATOM     20  H   UNL     1       5.031   0.189  -1.790  0.00  0.00    +0.166 HD
ATOM     21  C   UNL     1       3.876  -1.985  -0.311  0.00  0.00    +0.018 C 
ATOM     22  N   UNL     1       2.763  -2.926  -0.111  0.00  0.00    +0.388 N 
ATOM     23  C   UNL     1       1.639  -2.250   0.553  0.00  0.00    -0.076 C 
ATOM     24  C   UNL     1       0.959  -1.294  -0.438  0.00  0.00    +0.018 C 
ATOM     25  H   UNL     1       2.459  -3.279  -1.006  0.00  0.00    -0.084 HD
ATOM     26  H   UNL     1       3.075  -3.696   0.462  0.00  0.00    -0.084 HD
ENDBRANCH   1  21
BRANCH   8  27
ATOM     27  C   UNL     1       8.523  -3.337  -1.034  0.00  0.00    +0.055 A 
ATOM     28  C   UNL     1       9.405  -2.309  -1.341  0.00  0.00    +0.029 A 
ATOM     29  C   UNL     1      10.711  -2.365  -0.897  0.00  0.00    +0.040 A 
ATOM     30  C   UNL     1      11.142  -3.445  -0.145  0.00  0.00    +0.124 A 
ATOM     31  C   UNL     1      10.264  -4.471   0.163  0.00  0.00    +0.040 A 
ATOM     32  C   UNL     1       8.956  -4.416  -0.276  0.00  0.00    +0.029 A 
ATOM     33  F   UNL     1      12.420  -3.499   0.288  0.00  0.00    -0.205 F 
ENDBRANCH   8  27
TORSDOF 2
