REMARK  Name = ZINC40154205
REMARK  7 active torsions:
REMARK  status: ('A' for Active; 'I' for Inactive)
REMARK    1  A    between atoms: C_1  and  O_2
REMARK    2  A    between atoms: O_2  and  C_3
REMARK    3  A    between atoms: C_8  and  C_9
REMARK    4  A    between atoms: C_12  and  N_15
REMARK    5  A    between atoms: C_16  and  C_18
REMARK    6  A    between atoms: N_23  and  S_25
REMARK    7  A    between atoms: S_25  and  C_28
REMARK                            x       y       z     vdW  Elec       q    Type
REMARK                         _______ _______ _______ _____ _____    ______ ____
ROOT
ATOM      1  N   UNL     1      -0.781  -5.860  -1.491  0.00  0.00    -0.176 NA
ATOM      2  C   UNL     1      -0.330  -6.835  -0.755  0.00  0.00    +0.254 C 
ATOM      3  O   UNL     1       0.338  -6.565   0.383  0.00  0.00    -0.270 OA
ENDROOT
BRANCH   1   7
ATOM      4  C   UNL     1       0.063  -2.830   0.026  0.00  0.00    +0.187 A 
ATOM      5  N   UNL     1       0.056  -4.168  -0.025  0.00  0.00    -0.189 NA
ATOM      6  H   UNL     1      -1.487  -3.436  -2.616  0.00  0.00    +0.192 HD
ATOM      7  C   UNL     1      -0.579  -4.567  -1.110  0.00  0.00    +0.249 A 
ATOM      8  N   UNL     1      -0.994  -3.459  -1.781  0.00  0.00    -0.243 N 
ATOM      9  N   UNL     1      -0.571  -2.355  -1.023  0.00  0.00    -0.151 NA
BRANCH   4  15
ATOM     10  C   UNL     1       0.625  -0.618   1.041  0.00  0.00    +0.131 A 
ATOM     11  C   UNL     1       1.202   0.137   2.050  0.00  0.00    +0.046 A 
ATOM     12  C   UNL     1       1.836  -0.489   3.107  0.00  0.00    +0.004 A 
ATOM     13  C   UNL     1       1.900  -1.870   3.163  0.00  0.00    +0.001 A 
ATOM     14  C   UNL     1       1.330  -2.634   2.165  0.00  0.00    +0.015 A 
ATOM     15  C   UNL     1       0.683  -2.014   1.099  0.00  0.00    +0.062 A 
BRANCH  10  17
ATOM     16  C   UNL     1      -0.017   1.425   0.010  0.00  0.00    +0.277 C 
ATOM     17  O   UNL     1       0.002  -0.004   0.002  0.00  0.00    -0.494 OA
ENDBRANCH  10  17
ENDBRANCH   4  15
ENDBRANCH   1   7
BRANCH   2  18
ATOM     18  C   UNL     1      -0.554  -8.264  -1.177  0.00  0.00    +0.095 C 
ATOM     19  C   UNL     1      -1.790  -8.343  -2.076  0.00  0.00    +0.015 C 
ATOM     20  C   UNL     1      -2.038  -9.799  -2.478  0.00  0.00    +0.018 C 
ATOM     21  C   UNL     1      -0.832 -10.319  -3.267  0.00  0.00    +0.109 C 
ATOM     22  N   UNL     1       0.382 -10.113  -2.465  0.00  0.00    -0.176 NA
ATOM     23  C   UNL     1       0.669  -8.767  -1.950  0.00  0.00    +0.122 C 
BRANCH  22  24
ATOM     24  S   UNL     1       1.408 -11.373  -2.148  0.00  0.00    +0.061 S 
ATOM     25  O   UNL     1       2.115 -11.033  -0.963  0.00  0.00    -0.153 OA
ATOM     26  O   UNL     1       0.638 -12.562  -2.260  0.00  0.00    -0.153 OA
BRANCH  24  27
ATOM     27  C   UNL     1       2.596 -11.419  -3.448  0.00  0.00    +0.105 A 
ATOM     28  C   UNL     1       2.349 -12.167  -4.584  0.00  0.00    +0.028 A 
ATOM     29  C   UNL     1       3.281 -12.203  -5.604  0.00  0.00    +0.002 A 
ATOM     30  C   UNL     1       4.459 -11.489  -5.489  0.00  0.00    +0.000 A 
ATOM     31  C   UNL     1       4.706 -10.740  -4.354  0.00  0.00    +0.002 A 
ATOM     32  C   UNL     1       3.772 -10.701  -3.335  0.00  0.00    +0.028 A 
ENDBRANCH  24  27
ENDBRANCH  22  24
ENDBRANCH   2  18
TORSDOF 6
