REMARK  Name = ZINC39197675
REMARK  8 active torsions:
REMARK  status: ('A' for Active; 'I' for Inactive)
REMARK    1  A    between atoms: C_1  and  C_2
REMARK    2  A    between atoms: C_4  and  O_27
REMARK    3  A    between atoms: C_5  and  C_26
REMARK    4  A    between atoms: C_6  and  C_25
REMARK    5  A    between atoms: C_7  and  S_8
REMARK    6  A    between atoms: S_8  and  N_11
REMARK    7  A    between atoms: C_14  and  N_17
REMARK    8  A    between atoms: O_27  and  C_28
REMARK                            x       y       z     vdW  Elec       q    Type
REMARK                         _______ _______ _______ _____ _____    ______ ____
ROOT
ATOM      1  N   UNL     1      -1.151   0.013   3.606  0.00  0.00    -0.177 NA
ATOM      2  C   UNL     1      -2.018   1.181   3.399  0.00  0.00    +0.108 C 
ATOM      3  C   UNL     1      -3.400   0.697   2.948  0.00  0.00    +0.002 C 
ATOM      4  C   UNL     1      -3.938  -0.314   3.964  0.00  0.00    -0.066 C 
ATOM      5  C   UNL     1      -3.001  -1.522   4.030  0.00  0.00    +0.002 C 
ATOM      6  C   UNL     1      -1.617  -1.065   4.489  0.00  0.00    +0.108 C 
ENDROOT
BRANCH   4   7
ATOM      7  N   UNL     1      -5.277  -0.755   3.552  0.00  0.00    +0.383 N 
ATOM      8  C   UNL     1      -5.873  -1.499   4.650  0.00  0.00    -0.069 C 
ATOM      9  C   UNL     1      -7.358  -1.766   4.386  0.00  0.00    +0.077 C 
ATOM     10  C   UNL     1      -7.473  -3.018   3.540  0.00  0.00    +0.211 C 
ATOM     11  O   UNL     1      -7.928  -4.035   4.019  0.00  0.00    -0.276 OA
ATOM     12  N   UNL     1      -7.073  -2.997   2.266  0.00  0.00    -0.317 N 
ATOM     13  C   UNL     1      -6.526  -1.759   1.685  0.00  0.00    +0.085 C 
ATOM     14  C   UNL     1      -5.153  -1.496   2.307  0.00  0.00    -0.059 C 
ATOM     15  H   UNL     1      -7.142  -3.798   1.723  0.00  0.00    +0.149 HD
ATOM     16  H   UNL     1      -5.842   0.063   3.381  0.00  0.00    -0.081 HD
ENDBRANCH   4   7
BRANCH   1  17
ATOM     17  S   UNL     1       0.320  -0.091   2.852  0.00  0.00    +0.061 S 
ATOM     18  O   UNL     1       1.131  -0.933   3.659  0.00  0.00    -0.153 OA
ATOM     19  O   UNL     1       0.698   1.237   2.516  0.00  0.00    -0.153 OA
BRANCH  17  26
ATOM     20  C   UNL     1      -0.424   1.263   0.253  0.00  0.00    +0.046 C 
ATOM     21  C   UNL     1      -0.272  -0.235   0.192  0.00  0.00    -0.020 A 
ATOM     22  C   UNL     1      -0.465  -0.899  -1.004  0.00  0.00    +0.051 A 
ATOM     23  C   UNL     1      -0.325  -2.278  -1.060  0.00  0.00    +0.124 A 
ATOM     24  C   UNL     1       0.010  -2.986   0.085  0.00  0.00    -0.004 A 
ATOM     25  C   UNL     1       0.202  -2.317   1.278  0.00  0.00    -0.017 A 
ATOM     26  C   UNL     1       0.066  -0.942   1.330  0.00  0.00    +0.112 A 
ATOM     27  C   UNL     1       0.565  -3.086   2.522  0.00  0.00    +0.046 C 
ATOM     28  C   UNL     1       0.163  -4.484   0.027  0.00  0.00    +0.048 C 
BRANCH  23  29
ATOM     29  O   UNL     1      -0.515  -2.934  -2.235  0.00  0.00    -0.495 OA
ATOM     30  C   UNL     1      -0.858  -2.141  -3.373  0.00  0.00    +0.277 C 
ENDBRANCH  23  29
ENDBRANCH  17  26
ENDBRANCH   1  17
TORSDOF 4
