REMARK  Name = ZINC01461202
REMARK  8 active torsions:
REMARK  status: ('A' for Active; 'I' for Inactive)
REMARK    1  A    between atoms: C_1  and  C_2
REMARK    2  A    between atoms: C_7  and  C_8
REMARK    3  A    between atoms: C_8  and  O_10
REMARK    4  A    between atoms: O_10  and  C_11
REMARK    5  A    between atoms: C_11  and  C_12
REMARK    6  A    between atoms: C_12  and  C_13
REMARK    7  A    between atoms: C_12  and  C_14
REMARK    8  A    between atoms: C_16  and  C_21
REMARK                            x       y       z     vdW  Elec       q    Type
REMARK                         _______ _______ _______ _____ _____    ______ ____
ROOT
ATOM      1  C   UNL     1      -1.942   3.507  -3.577  0.00  0.00    +0.047 C 
ATOM      2  C   UNL     1      -1.715   3.845  -2.126  0.00  0.00    -0.008 A 
ATOM      3  C   UNL     1      -1.204   2.994  -1.139  0.00  0.00    +0.042 A 
ATOM      4  C   UNL     1      -1.164   3.710   0.058  0.00  0.00    +0.028 A 
ATOM      5  N   UNL     1      -1.622   4.938  -0.182  0.00  0.00    -0.352 N 
ATOM      6  H   UNL     1      -1.701   5.647   0.475  0.00  0.00    +0.166 HD
ATOM      7  C   UNL     1      -1.968   5.044  -1.517  0.00  0.00    +0.128 A 
ATOM      8  C   UNL     1      -0.673   3.112   1.352  0.00  0.00    +0.062 C 
ATOM      9  C   UNL     1      -0.740   1.585   1.261  0.00  0.00    +0.032 C 
ATOM     10  C   UNL     1      -0.013   1.086   0.008  0.00  0.00    +0.088 C 
ATOM     11  C   UNL     1      -0.758   1.595  -1.217  0.00  0.00    +0.166 C 
ATOM     12  O   UNL     1      -0.970   0.897  -2.186  0.00  0.00    -0.292 OA
ENDROOT
BRANCH   9  13
ATOM     13  C   UNL     1      -0.093   0.985   2.482  0.00  0.00    -0.043 A 
ATOM     14  C   UNL     1       1.243   1.224   2.744  0.00  0.00    +0.005 A 
ATOM     15  C   UNL     1       1.836   0.678   3.868  0.00  0.00    +0.020 A 
ATOM     16  C   UNL     1       1.094  -0.116   4.724  0.00  0.00    +0.041 A 
ATOM     17  C   UNL     1      -0.242  -0.359   4.458  0.00  0.00    +0.020 A 
ATOM     18  C   UNL     1      -0.835   0.191   3.338  0.00  0.00    +0.005 A 
ATOM     19 CL   UNL     1       1.839  -0.808   6.131  0.00  0.00    -0.084 Cl
ENDBRANCH   9  13
BRANCH   7  20
ATOM     20  C   UNL     1      -2.513   6.239  -2.169  0.00  0.00    +0.356 C 
ATOM     21  O   UNL     1      -2.781   6.216  -3.355  0.00  0.00    -0.243 OA
BRANCH  20  22
ATOM     22  O   UNL     1      -2.717   7.364  -1.454  0.00  0.00    -0.460 OA
BRANCH  22  23
ATOM     23  C   UNL     1      -3.259   8.508  -2.164  0.00  0.00    +0.235 C 
BRANCH  23  24
ATOM     24  C   UNL     1      -3.420   9.681  -1.196  0.00  0.00    +0.020 C 
ATOM     25  C   UNL     1      -3.873  10.922  -1.968  0.00  0.00    +0.010 C 
ATOM     26  C   UNL     1      -4.467   9.329  -0.137  0.00  0.00    +0.010 C 
ENDBRANCH  23  24
ENDBRANCH  22  23
ENDBRANCH  20  22
ENDBRANCH   7  20
TORSDOF 5
