REMARK  Name = ZINC07765557
REMARK  9 active torsions:
REMARK  status: ('A' for Active; 'I' for Inactive)
REMARK    1  A    between atoms: C_1  and  C_2
REMARK    2  A    between atoms: N_11  and  C_15
REMARK    3  A    between atoms: C_15  and  C_16
REMARK    4  A    between atoms: C_16  and  O_18
REMARK    5  A    between atoms: O_18  and  C_19
REMARK    6  A    between atoms: C_19  and  C_21
REMARK    7  A    between atoms: C_19  and  C_22
REMARK    8  A    between atoms: N_24  and  C_25
REMARK    9  A    between atoms: C_25  and  C_26
REMARK                            x       y       z     vdW  Elec       q    Type
REMARK                         _______ _______ _______ _____ _____    ______ ____
ROOT
ATOM      1  C   UNL     1       2.909   1.446  -1.438  0.00  0.00    +0.326 C 
ATOM      2  O   UNL     1       2.153   1.690  -2.348  0.00  0.00    -0.249 OA
ENDROOT
BRANCH   1   3
ATOM      3  C   UNL     1       2.443   1.592  -0.012  0.00  0.00    +0.238 C 
BRANCH   3  13
ATOM      4  C   UNL     1      -1.220   2.162  -2.475  0.00  0.00    +0.010 C 
ATOM      5  C   UNL     1      -2.069   1.879  -1.234  0.00  0.00    +0.018 C 
ATOM      6  C   UNL     1      -3.279   2.817  -1.219  0.00  0.00    +0.006 C 
ATOM      7  C   UNL     1      -4.116   2.547   0.033  0.00  0.00    +0.000 C 
ATOM      8  C   UNL     1      -3.268   2.804   1.280  0.00  0.00    +0.003 C 
ATOM      9  C   UNL     1      -2.058   1.866   1.276  0.00  0.00    +0.035 C 
ATOM     10  C   UNL     1      -1.230   2.107   0.018  0.00  0.00    +0.115 C 
ATOM     11  C   UNL     1      -0.014   1.208   0.009  0.00  0.00    +0.247 C 
ATOM     12  O   UNL     1       0.002  -0.004   0.002  0.00  0.00    -0.273 OA
ATOM     13  N   UNL     1       1.048   2.039   0.003  0.00  0.00    -0.213 N 
ATOM     14  C   UNL     1       0.670   3.323   0.013  0.00  0.00    +0.310 C 
ATOM     15  O   UNL     1       1.448   4.257   0.010  0.00  0.00    -0.252 OA
ATOM     16  N   UNL     1      -0.670   3.464   0.026  0.00  0.00    -0.285 N 
ATOM     17  H   UNL     1      -1.166   4.297   0.034  0.00  0.00    +0.151 HD
ENDBRANCH   3  13
ENDBRANCH   1   3
BRANCH   1  18
ATOM     18  O   UNL     1       4.163   1.044  -1.696  0.00  0.00    -0.451 OA
BRANCH  18  19
ATOM     19  C   UNL     1       4.543   0.925  -3.093  0.00  0.00    +0.258 C 
ATOM     20  C   UNL     1       5.116   2.257  -3.581  0.00  0.00    +0.062 C 
BRANCH  19  21
ATOM     21  C   UNL     1       5.584  -0.154  -3.240  0.00  0.00    +0.254 C 
ATOM     22  O   UNL     1       5.968  -0.763  -2.264  0.00  0.00    -0.272 OA
ATOM     23  N   UNL     1       6.088  -0.443  -4.456  0.00  0.00    -0.308 N 
ATOM     24  H   UNL     1       5.780   0.044  -5.237  0.00  0.00    +0.149 HD
BRANCH  23  25
ATOM     25  C   UNL     1       7.100  -1.492  -4.599  0.00  0.00    +0.139 C 
BRANCH  25  26
ATOM     26  C   UNL     1       7.494  -1.616  -6.049  0.00  0.00    -0.030 A 
ATOM     27  C   UNL     1       6.813  -2.488  -6.878  0.00  0.00    +0.008 A 
ATOM     28  C   UNL     1       7.170  -2.599  -8.208  0.00  0.00    +0.038 A 
ATOM     29  C   UNL     1       8.217  -1.843  -8.709  0.00  0.00    +0.123 A 
ATOM     30  C   UNL     1       8.901  -0.974  -7.876  0.00  0.00    +0.038 A 
ATOM     31  C   UNL     1       8.539  -0.861  -6.547  0.00  0.00    +0.008 A 
ATOM     32  F   UNL     1       8.570  -1.954 -10.008  0.00  0.00    -0.205 F 
ENDBRANCH  25  26
ENDBRANCH  23  25
ENDBRANCH  19  21
ENDBRANCH  18  19
ENDBRANCH   1  18
TORSDOF 7
