REMARK  Name = ZINC06727400
REMARK  5 active torsions:
REMARK  status: ('A' for Active; 'I' for Inactive)
REMARK    1  A    between atoms: C_1  and  C_2
REMARK    2  A    between atoms: C_2  and  C_3
REMARK    3  A    between atoms: C_6  and  N_8
REMARK    4  A    between atoms: C_9  and  C_11
REMARK    5  A    between atoms: C_12  and  N_26
REMARK                            x       y       z     vdW  Elec       q    Type
REMARK                         _______ _______ _______ _____ _____    ______ ____
ROOT
ATOM      1  C   UNL     1      -7.276  -2.690   0.290  0.00  0.00    +0.102 A 
ATOM      2  C   UNL     1      -8.331  -3.084  -0.503  0.00  0.00    +0.054 A 
ATOM      3  C   UNL     1      -9.552  -3.534   0.146  0.00  0.00    +0.027 A 
ATOM      4  C   UNL     1     -10.755  -3.991  -0.453  0.00  0.00    +0.017 A 
ATOM      5  C   UNL     1     -11.798  -4.362   0.358  0.00  0.00    -0.028 A 
ATOM      6  C   UNL     1     -11.672  -4.287   1.741  0.00  0.00    +0.020 A 
ATOM      7  N   UNL     1     -10.553  -3.879   2.295  0.00  0.00    -0.352 N 
ATOM      8  C   UNL     1      -9.524  -3.512   1.559  0.00  0.00    +0.088 A 
ATOM      9  S   UNL     1      -7.894  -2.923   1.945  0.00  0.00    -0.064 S 
ATOM     10  C   UNL     1     -12.873  -4.674   2.563  0.00  0.00    +0.053 C 
ATOM     11  C   UNL     1     -12.968  -6.151   2.774  0.00  0.00    +0.006 C 
ATOM     12  C   UNL     1     -13.514  -7.003   1.645  0.00  0.00    +0.000 C 
ATOM     13  C   UNL     1     -12.460  -7.163   0.534  0.00  0.00    +0.000 C 
ATOM     14  C   UNL     1     -12.917  -6.305  -0.677  0.00  0.00    +0.005 C 
ATOM     15  C   UNL     1     -13.096  -4.861  -0.219  0.00  0.00    +0.037 C 
ATOM     16  H   UNL     1     -10.484  -3.848   3.262  0.00  0.00    +0.166 HD
ENDROOT
BRANCH   1  18
ATOM     17  N   UNL     1      -5.103  -1.890   0.794  0.00  0.00    -0.180 NA
ATOM     18  C   UNL     1      -6.002  -2.219  -0.113  0.00  0.00    +0.288 C 
ATOM     19  O   UNL     1      -5.707  -2.108  -1.429  0.00  0.00    -0.265 OA
BRANCH  17  23
ATOM     20  C   UNL     1      -1.412  -0.526   0.013  0.00  0.00    +0.104 A 
ATOM     21  N   UNL     1      -2.213  -0.819  -0.993  0.00  0.00    -0.144 NA
ATOM     22  N   UNL     1      -3.385  -1.251  -0.815  0.00  0.00    -0.121 NA
ATOM     23  C   UNL     1      -3.883  -1.438   0.408  0.00  0.00    +0.218 A 
ATOM     24  S   UNL     1      -2.477  -0.931   1.394  0.00  0.00    -0.031 S 
BRANCH  20  26
ATOM     25  C   UNL     1      -0.019   1.526   0.010  0.00  0.00    +0.011 C 
ATOM     26  C   UNL     1       0.002  -0.004   0.002  0.00  0.00    +0.061 C 
ENDBRANCH  20  26
ENDBRANCH  17  23
ENDBRANCH   1  18
BRANCH   2  27
ATOM     27  N   UNL     1      -8.231  -3.051  -1.890  0.00  0.00    -0.356 N 
ATOM     28  H   UNL     1      -7.411  -2.749  -2.310  0.00  0.00    +0.142 HD
ATOM     29  H   UNL     1      -8.982  -3.331  -2.437  0.00  0.00    +0.142 HD
ENDBRANCH   2  27
TORSDOF 4
