REMARK  Name = ZINC13013355
REMARK  4 active torsions:
REMARK  status: ('A' for Active; 'I' for Inactive)
REMARK    1  A    between atoms: C_1  and  C_2
REMARK    2  A    between atoms: N_15  and  N_16
REMARK    3  A    between atoms: C_17  and  C_18
REMARK    4  A    between atoms: C_23  and  C_24
REMARK                            x       y       z     vdW  Elec       q    Type
REMARK                         _______ _______ _______ _____ _____    ______ ____
ROOT
ATOM      1  C   UNL     1      -2.111   4.466   1.217  0.00  0.00    +0.088 C 
ATOM      2  C   UNL     1      -0.887   5.321   1.012  0.00  0.00    +0.129 A 
ATOM      3  N   UNL     1       0.283   4.738   0.825  0.00  0.00    -0.216 NA
ATOM      4  C   UNL     1       1.395   5.433   0.639  0.00  0.00    +0.150 A 
ATOM      5  C   UNL     1       1.332   6.854   0.647  0.00  0.00    +0.052 A 
ATOM      6  C   UNL     1       2.415   7.820   0.458  0.00  0.00    -0.025 A 
ATOM      7  C   UNL     1       2.085   9.127   0.503  0.00  0.00    -0.004 A 
ATOM      8  S   UNL     1       0.335   9.152   0.789  0.00  0.00    -0.073 S 
ATOM      9  C   UNL     1       0.049   7.402   0.848  0.00  0.00    +0.114 A 
ATOM     10  N   UNL     1      -1.008   6.634   1.024  0.00  0.00    -0.225 NA
ATOM     11  C   UNL     1       3.002  10.301   0.346  0.00  0.00    +0.043 C 
ATOM     12  C   UNL     1       4.449   9.809   0.493  0.00  0.00    +0.005 C 
ATOM     13  C   UNL     1       4.635   8.562  -0.378  0.00  0.00    +0.005 C 
ATOM     14  C   UNL     1       3.861   7.389   0.225  0.00  0.00    +0.037 C 
ATOM     15  N   UNL     1       2.603   4.785   0.447  0.00  0.00    -0.220 N 
ATOM     16  H   UNL     1       3.436   5.268   0.561  0.00  0.00    +0.176 HD
ENDROOT
BRANCH  15  17
ATOM     17  N   UNL     1       2.622   3.431   0.087  0.00  0.00    -0.189 NA
ATOM     18  C   UNL     1       3.756   2.823  -0.094  0.00  0.00    +0.139 C 
BRANCH  18  19
ATOM     19  C   UNL     1       3.776   1.401  -0.472  0.00  0.00    +0.009 A 
ATOM     20  C   UNL     1       2.584   0.734  -0.762  0.00  0.00    +0.010 A 
ATOM     21  C   UNL     1       2.610  -0.599  -1.116  0.00  0.00    +0.001 A 
ATOM     22  C   UNL     1       3.812  -1.285  -1.188  0.00  0.00    +0.001 A 
ATOM     23  C   UNL     1       5.001  -0.644  -0.911  0.00  0.00    +0.016 A 
ATOM     24  C   UNL     1       5.000   0.703  -0.545  0.00  0.00    +0.072 A 
BRANCH  24  25
ATOM     25  C   UNL     1       6.267   1.391  -0.243  0.00  0.00    +0.387 C 
ATOM     26  O   UNL     1       6.271   2.586  -0.022  0.00  0.00    -0.241 OA
ATOM     27  O   UNL     1       7.421   0.696  -0.213  0.00  0.00    -0.241 OA
ENDBRANCH  24  25
ENDBRANCH  18  19
ENDBRANCH  15  17
TORSDOF 3
