REMARK  Name = ZINC37245992
REMARK  6 active torsions:
REMARK  status: ('A' for Active; 'I' for Inactive)
REMARK    1  A    between atoms: C_1  and  O_2
REMARK    2  A    between atoms: O_2  and  C_3
REMARK    3  A    between atoms: C_5  and  N_27
REMARK    4  A    between atoms: C_7  and  O_26
REMARK    5  A    between atoms: C_16  and  C_19
REMARK    6  A    between atoms: C_19  and  C_20
REMARK                            x       y       z     vdW  Elec       q    Type
REMARK                         _______ _______ _______ _____ _____    ______ ____
ROOT
ATOM      1  C   UNL     1       0.673  -0.582   1.123  0.00  0.00    +0.280 C 
ATOM      2  C   UNL     1       0.528  -2.106   1.076  0.00  0.00    +0.229 C 
ATOM      3  C   UNL     1       1.293  -2.718   2.253  0.00  0.00    +0.178 C 
ATOM      4  C   UNL     1       2.759  -2.279   2.183  0.00  0.00    +0.183 C 
ATOM      5  C   UNL     1       2.828  -0.749   2.144  0.00  0.00    +0.178 C 
ATOM      6  O   UNL     1       2.060  -0.239   1.078  0.00  0.00    -0.341 OA
ATOM      7  C   UNL     1       2.267  -0.192   3.455  0.00  0.00    +0.197 C 
ATOM      8  O   UNL     1       2.972  -0.787   4.550  0.00  0.00    -0.348 OA
ATOM      9  C   UNL     1       2.902  -2.215   4.573  0.00  0.00    +0.255 C 
ATOM     10  O   UNL     1       3.444  -2.758   3.346  0.00  0.00    -0.343 OA
ENDROOT
BRANCH   2  11
ATOM     11  N   UNL     1       1.077  -2.612  -0.184  0.00  0.00    -0.099 NA
ATOM     12  N   UNL     1       0.592  -2.335  -1.160  0.00  0.00    -0.167 NA
ATOM     13  N   UNL     1       0.118  -2.064  -2.115  0.00  0.00    +0.068 NA
ENDBRANCH   2  11
BRANCH   1  15
ATOM     14  C   UNL     1      -0.017   1.425   0.010  0.00  0.00    +0.197 C 
ATOM     15  O   UNL     1       0.002  -0.004   0.002  0.00  0.00    -0.352 OA
ENDBRANCH   1  15
BRANCH   3  16
ATOM     16  O   UNL     1       0.718  -2.270   3.482  0.00  0.00    -0.387 OA
ATOM     17  H   UNL     1      -0.212  -2.511   3.591  0.00  0.00    +0.210 HD
ENDBRANCH   3  16
BRANCH   9  18
ATOM     18  C   UNL     1       3.713  -2.745   5.758  0.00  0.00    +0.096 C 
BRANCH  18  19
ATOM     19  C   UNL     1       3.074  -2.294   7.046  0.00  0.00    -0.043 A 
ATOM     20  C   UNL     1       3.447  -1.093   7.619  0.00  0.00    +0.004 A 
ATOM     21  C   UNL     1       2.861  -0.679   8.800  0.00  0.00    +0.000 A 
ATOM     22  C   UNL     1       1.901  -1.466   9.408  0.00  0.00    +0.000 A 
ATOM     23  C   UNL     1       1.527  -2.667   8.835  0.00  0.00    +0.000 A 
ATOM     24  C   UNL     1       2.110  -3.079   7.651  0.00  0.00    +0.004 A 
ENDBRANCH  18  19
ENDBRANCH   9  18
TORSDOF 5
