REMARK  Name = ZINC08915508
REMARK  7 active torsions:
REMARK  status: ('A' for Active; 'I' for Inactive)
REMARK    1  A    between atoms: C_4  and  O_7
REMARK    2  A    between atoms: O_7  and  C_8
REMARK    3  A    between atoms: C_12  and  C_14
REMARK    4  A    between atoms: C_16  and  C_28
REMARK    5  A    between atoms: C_18  and  C_23
REMARK    6  A    between atoms: C_20  and  O_22
REMARK    7  A    between atoms: C_28  and  C_30
REMARK                            x       y       z     vdW  Elec       q    Type
REMARK                         _______ _______ _______ _____ _____    ______ ____
ROOT
ATOM      1  C   UNL     1       5.683  -5.039  -0.059  0.00  0.00    +0.120 C 
ATOM      2  C   UNL     1       5.888  -5.603   1.355  0.00  0.00    +0.150 C 
ATOM      3  C   UNL     1       4.655  -6.428   1.730  0.00  0.00    +0.284 C 
ATOM      4  N   UNL     1       4.322  -7.365   0.663  0.00  0.00    -0.306 N 
ATOM      5  C   UNL     1       4.715  -7.231  -0.558  0.00  0.00    +0.256 C 
ATOM      6  N   UNL     1       5.504  -6.182  -0.967  0.00  0.00    -0.293 N 
ATOM      7  O   UNL     1       3.549  -5.551   1.949  0.00  0.00    -0.194 OA
ATOM      8  H   UNL     1       5.936  -6.195  -1.836  0.00  0.00    +0.151 HD
ATOM      9  H   UNL     1       3.773  -8.134   0.885  0.00  0.00    +0.167 HD
ENDROOT
BRANCH   1  14
ATOM     10  C   UNL     1       3.459  -1.984  -0.076  0.00  0.00    +0.129 A 
ATOM     11  C   UNL     1       2.199  -2.562  -0.144  0.00  0.00    +0.046 A 
ATOM     12  C   UNL     1       2.073  -3.937  -0.185  0.00  0.00    +0.004 A 
ATOM     13  C   UNL     1       3.200  -4.737  -0.157  0.00  0.00    +0.006 A 
ATOM     14  C   UNL     1       4.457  -4.164  -0.089  0.00  0.00    -0.023 A 
ATOM     15  C   UNL     1       4.588  -2.789  -0.054  0.00  0.00    +0.051 A 
BRANCH  10  16
ATOM     16  O   UNL     1       3.586  -0.632  -0.036  0.00  0.00    -0.456 OA
BRANCH  16  20
ATOM     17  C   UNL     1       3.918   1.389  -3.618  0.00  0.00    +0.000 A 
ATOM     18  C   UNL     1       3.778   0.013  -3.611  0.00  0.00    +0.004 A 
ATOM     19  C   UNL     1       3.667  -0.666  -2.414  0.00  0.00    +0.046 A 
ATOM     20  C   UNL     1       3.695   0.034  -1.216  0.00  0.00    +0.128 A 
ATOM     21  C   UNL     1       3.836   1.414  -1.225  0.00  0.00    +0.046 A 
ATOM     22  C   UNL     1       3.947   2.088  -2.425  0.00  0.00    +0.004 A 
ENDBRANCH  16  20
ENDBRANCH  10  16
ENDBRANCH   1  14
BRANCH   3  23
ATOM     23  C   UNL     1       4.941  -7.208   3.015  0.00  0.00    +0.441 C 
ATOM     24  F   UNL     1       5.237  -6.312   4.048  0.00  0.00    -0.166 F 
ATOM     25  F   UNL     1       3.817  -7.965   3.361  0.00  0.00    -0.166 F 
ATOM     26  F   UNL     1       6.032  -8.060   2.810  0.00  0.00    -0.166 F 
ENDBRANCH   3  23
BRANCH   5  27
ATOM     27  O   UNL     1       4.337  -8.154  -1.469  0.00  0.00    -0.483 OA
ATOM     28  H   UNL     1       3.784  -8.860  -1.107  0.00  0.00    +0.295 HD
ENDBRANCH   5  27
BRANCH   2  29
ATOM     29  C   UNL     1       6.056  -4.469   2.334  0.00  0.00    +0.180 C 
ATOM     30  O   UNL     1       5.512  -3.403   2.128  0.00  0.00    -0.291 OA
BRANCH  29  31
ATOM     31  C   UNL     1       6.848  -4.646   3.490  0.00  0.00    +0.055 A 
ATOM     32  C   UNL     1       7.125  -3.741   4.511  0.00  0.00    +0.019 A 
ATOM     33  C   UNL     1       7.935  -4.208   5.515  0.00  0.00    +0.008 A 
ATOM     34  C   UNL     1       8.401  -5.482   5.450  0.00  0.00    +0.046 A 
ATOM     35  S   UNL     1       7.745  -6.090   4.028  0.00  0.00    -0.094 S 
ENDBRANCH  29  31
ENDBRANCH   2  29
TORSDOF 7
