REMARK  Name = ZINC12497504
REMARK  7 active torsions:
REMARK  status: ('A' for Active; 'I' for Inactive)
REMARK    1  A    between atoms: C_1  and  C_2
REMARK    2  A    between atoms: C_5  and  C_8
REMARK    3  A    between atoms: N_16  and  C_19
REMARK    4  A    between atoms: C_26  and  C_27
REMARK    5  A    between atoms: C_26  and  C_28
REMARK    6  A    between atoms: C_28  and  O_30
REMARK    7  A    between atoms: O_30  and  C_31
REMARK                            x       y       z     vdW  Elec       q    Type
REMARK                         _______ _______ _______ _____ _____    ______ ____
ROOT
ATOM      1  C   UNL     1      -0.013  -4.270  -0.023  0.00  0.00    -0.027 C 
ATOM      2  C   UNL     1      -1.359  -4.815  -0.335  0.00  0.00    +0.077 C 
ATOM      3  C   UNL     1      -1.345  -4.760  -1.917  0.00  0.00    +0.086 C 
ATOM      4  C   UNL     1      -2.687  -5.337  -2.156  0.00  0.00    +0.229 C 
ATOM      5  O   UNL     1      -3.023  -6.065  -3.066  0.00  0.00    -0.275 OA
ATOM      6  N   UNL     1      -3.469  -4.873  -1.131  0.00  0.00    -0.207 N 
ATOM      7  C   UNL     1      -2.728  -4.361  -0.095  0.00  0.00    +0.229 C 
ATOM      8  O   UNL     1      -3.119  -3.671   0.822  0.00  0.00    -0.275 OA
ATOM      9  C   UNL     1      -0.020  -5.449  -2.137  0.00  0.00    +0.041 C 
ATOM     10  C   UNL     1      -0.130  -6.947  -1.845  0.00  0.00    +0.002 C 
ATOM     11  N   UNL     1       0.852  -4.774  -1.128  0.00  0.00    +0.395 N 
ATOM     12  H   UNL     1       1.535  -5.444  -0.756  0.00  0.00    -0.083 HD
ATOM     13  H   UNL     1       1.347  -3.989  -1.567  0.00  0.00    -0.083 HD
ENDROOT
BRANCH   1  18
ATOM     14  C   UNL     1      -0.127   1.507  -0.007  0.00  0.00    +0.044 C 
ATOM     15  C   UNL     1      -0.097   0.001  -0.011  0.00  0.00    -0.050 A 
ATOM     16  C   UNL     1      -0.063  -0.687  -1.210  0.00  0.00    +0.003 A 
ATOM     17  C   UNL     1      -0.031  -2.069  -1.214  0.00  0.00    +0.002 A 
ATOM     18  C   UNL     1      -0.043  -2.764  -0.019  0.00  0.00    -0.061 A 
ATOM     19  C   UNL     1      -0.082  -2.076   1.180  0.00  0.00    +0.002 A 
ATOM     20  C   UNL     1      -0.109  -0.694   1.184  0.00  0.00    +0.003 A 
ENDBRANCH   1  18
BRANCH   6  21
ATOM     21  C   UNL     1      -4.871  -4.915  -1.140  0.00  0.00    +0.079 A 
ATOM     22  C   UNL     1      -5.537  -6.021  -0.631  0.00  0.00    +0.027 A 
ATOM     23  C   UNL     1      -6.918  -6.059  -0.640  0.00  0.00    +0.002 A 
ATOM     24  C   UNL     1      -7.638  -4.998  -1.157  0.00  0.00    +0.003 A 
ATOM     25  C   UNL     1      -6.979  -3.894  -1.666  0.00  0.00    +0.040 A 
ATOM     26  C   UNL     1      -5.597  -3.846  -1.654  0.00  0.00    +0.145 A 
ATOM     27  F   UNL     1      -4.953  -2.765  -2.146  0.00  0.00    -0.204 F 
ENDBRANCH   6  21
BRANCH   9  28
ATOM     28  C   UNL     1       0.482  -5.210  -3.537  0.00  0.00    +0.296 C 
ATOM     29  O   UNL     1      -0.303  -5.057  -4.443  0.00  0.00    -0.252 OA
BRANCH  28  30
ATOM     30  O   UNL     1       1.802  -5.167  -3.779  0.00  0.00    -0.469 OA
ATOM     31  C   UNL     1       2.213  -4.932  -5.152  0.00  0.00    +0.280 C 
ENDBRANCH  28  30
ENDBRANCH   9  28
TORSDOF 4
