REMARK  Name = ZINC13971804
REMARK  10 active torsions:
REMARK  status: ('A' for Active; 'I' for Inactive)
REMARK    1  A    between atoms: C_1  and  C_2
REMARK    2  A    between atoms: C_2  and  O_3
REMARK    3  A    between atoms: O_3  and  C_4
REMARK    4  A    between atoms: C_12  and  N_17
REMARK    5  A    between atoms: C_13  and  C_14
REMARK    6  A    between atoms: C_18  and  C_20
REMARK    7  A    between atoms: C_20  and  C_21
REMARK    8  A    between atoms: C_24  and  O_28
REMARK    9  A    between atoms: C_25  and  C_27
REMARK   10  A    between atoms: O_28  and  C_29
REMARK                            x       y       z     vdW  Elec       q    Type
REMARK                         _______ _______ _______ _____ _____    ______ ____
ROOT
ATOM      1  C   UNL     1      -3.321   4.628  -8.376  0.00  0.00    +0.403 C 
ATOM      2  O   UNL     1      -2.966   4.593  -9.538  0.00  0.00    -0.226 OA
ATOM      3  N   UNL     1      -3.191   3.535  -7.598  0.00  0.00    -0.262 N 
ATOM      4  C   UNL     1      -2.622   2.286  -8.126  0.00  0.00    +0.116 C 
ATOM      5  C   UNL     1      -1.312   1.974  -7.401  0.00  0.00    +0.056 C 
ATOM      6  C   UNL     1      -1.523   2.117  -5.899  0.00  0.00    -0.020 A 
ATOM      7  C   UNL     1      -2.558   2.828  -5.400  0.00  0.00    +0.013 A 
ATOM      8  S   UNL     1      -2.386   2.712  -3.643  0.00  0.00    -0.076 S 
ATOM      9  C   UNL     1      -0.959   1.732  -3.566  0.00  0.00    +0.084 A 
ATOM     10  C   UNL     1      -0.647   1.523  -4.902  0.00  0.00    +0.068 A 
ATOM     11  C   UNL     1      -3.614   3.548  -6.184  0.00  0.00    +0.153 C 
ENDROOT
BRANCH  10  12
ATOM     12  C   UNL     1       0.521   0.728  -5.294  0.00  0.00    +0.244 C 
ATOM     13  O   UNL     1       0.412  -0.473  -5.460  0.00  0.00    -0.270 OA
ATOM     14  N   UNL     1       1.715   1.327  -5.472  0.00  0.00    -0.325 N 
ATOM     15  H   UNL     1       1.802   2.284  -5.340  0.00  0.00    +0.145 HD
ATOM     16  H   UNL     1       2.488   0.802  -5.731  0.00  0.00    +0.145 HD
ENDBRANCH  10  12
BRANCH   9  17
ATOM     17  N   UNL     1      -0.288   1.272  -2.443  0.00  0.00    -0.279 N 
ATOM     18  C   UNL     1      -0.742   1.585  -1.213  0.00  0.00    +0.222 C 
ATOM     19  O   UNL     1      -1.736   2.268  -1.088  0.00  0.00    -0.275 OA
ATOM     20  H   UNL     1       0.507   0.726  -2.543  0.00  0.00    +0.155 HD
BRANCH  18  21
ATOM     21  C   UNL     1      -0.013   1.086   0.008  0.00  0.00    +0.131 C 
BRANCH  21  22
ATOM     22  C   UNL     1      -0.718   1.572   1.248  0.00  0.00    -0.038 A 
ATOM     23  C   UNL     1      -0.359   2.780   1.818  0.00  0.00    +0.008 A 
ATOM     24  C   UNL     1      -1.008   3.230   2.951  0.00  0.00    +0.046 A 
ATOM     25  C   UNL     1      -2.013   2.464   3.524  0.00  0.00    +0.123 A 
ATOM     26  C   UNL     1      -2.368   1.250   2.954  0.00  0.00    -0.009 A 
ATOM     27  C   UNL     1      -1.719   0.807   1.817  0.00  0.00    +0.011 A 
ATOM     28  C   UNL     1      -3.459   0.416   3.573  0.00  0.00    +0.047 C 
BRANCH  25  29
ATOM     29  O   UNL     1      -2.649   2.902   4.642  0.00  0.00    -0.495 OA
ATOM     30  C   UNL     1      -2.232   4.161   5.174  0.00  0.00    +0.277 C 
ENDBRANCH  25  29
ENDBRANCH  21  22
ENDBRANCH  18  21
ENDBRANCH   9  17
BRANCH   1  31
ATOM     31  O   UNL     1      -3.845   5.759  -7.867  0.00  0.00    -0.451 OA
BRANCH  31  33
ATOM     32  C   UNL     1      -4.568   8.080  -8.011  0.00  0.00    +0.048 C 
ATOM     33  C   UNL     1      -3.955   6.896  -8.763  0.00  0.00    +0.230 C 
ENDBRANCH  31  33
ENDBRANCH   1  31
TORSDOF 7
