REMARK  Name = ZINC14472704
REMARK  6 active torsions:
REMARK  status: ('A' for Active; 'I' for Inactive)
REMARK    1  A    between atoms: C_1  and  C_2
REMARK    2  A    between atoms: C_2  and  O_3
REMARK    3  A    between atoms: O_3  and  C_4
REMARK    4  A    between atoms: C_4  and  C_6
REMARK    5  A    between atoms: C_19  and  C_22
REMARK    6  A    between atoms: C_24  and  N_29
REMARK                            x       y       z     vdW  Elec       q    Type
REMARK                         _______ _______ _______ _____ _____    ______ ____
ROOT
ATOM      1  C   UNL     1      -4.699   6.342  -1.912  0.00  0.00    +0.059 A 
ATOM      2  C   UNL     1      -4.772   6.616  -0.543  0.00  0.00    +0.017 A 
ATOM      3  C   UNL     1      -3.678   6.434   0.252  0.00  0.00    +0.024 A 
ATOM      4  C   UNL     1      -2.477   5.976  -0.286  0.00  0.00    +0.031 A 
ATOM      5  C   UNL     1      -2.403   5.687  -1.657  0.00  0.00    -0.019 A 
ATOM      6  C   UNL     1      -3.500   5.875  -2.461  0.00  0.00    +0.021 A 
ATOM      7  C   UNL     1      -1.115   5.180  -2.179  0.00  0.00    +0.049 C 
ATOM      8  C   UNL     1      -0.713   5.364  -3.596  0.00  0.00    -0.023 C 
ATOM      9  C   UNL     1       0.610   5.458  -3.652  0.00  0.00    -0.030 C 
ATOM     10  C   UNL     1       1.200   5.376  -2.243  0.00  0.00    +0.033 C 
ATOM     11  C   UNL     1       0.030   5.880  -1.388  0.00  0.00    +0.029 C 
ATOM     12  C   UNL     1      -0.073   5.348   0.030  0.00  0.00    +0.106 C 
ATOM     13  N   UNL     1      -1.369   5.837   0.548  0.00  0.00    -0.336 N 
ATOM     14  H   UNL     1      -1.449   6.067   1.487  0.00  0.00    +0.147 HD
ENDROOT
BRANCH  12  15
ATOM     15  C   UNL     1      -0.052   3.841   0.022  0.00  0.00    -0.007 A 
ATOM     16  C   UNL     1      -1.239   3.133   0.030  0.00  0.00    +0.039 A 
ATOM     17  C   UNL     1      -1.219   1.751   0.017  0.00  0.00    +0.127 A 
ATOM     18  C   UNL     1      -0.013   1.076   0.008  0.00  0.00    +0.034 A 
ATOM     19  C   UNL     1       1.175   1.783   0.000  0.00  0.00    +0.022 A 
ATOM     20  C   UNL     1       1.156   3.167   0.008  0.00  0.00    +0.046 A 
ATOM     21 CL   UNL     1       2.647   4.055  -0.003  0.00  0.00    -0.083 Cl
BRANCH  17  22
ATOM     22  N   UNL     1      -2.491   0.993   0.019  0.00  0.00    +0.056 N 
ATOM     23  O   UNL     1      -2.474  -0.225   0.013  0.00  0.00    -0.126 OA
ATOM     24  O   UNL     1      -3.554   1.587   0.028  0.00  0.00    -0.126 OA
ENDBRANCH  17  22
ENDBRANCH  12  15
BRANCH   1  25
ATOM     25  C   UNL     1      -5.878   6.545  -2.773  0.00  0.00    +0.339 C 
ATOM     26  O   UNL     1      -5.810   6.307  -3.962  0.00  0.00    -0.245 OA
BRANCH  25  27
ATOM     27  O   UNL     1      -7.031   6.996  -2.240  0.00  0.00    -0.461 OA
BRANCH  27  29
ATOM     28  C   UNL     1      -9.363   7.687  -2.367  0.00  0.00    +0.048 C 
ATOM     29  C   UNL     1      -8.151   7.173  -3.147  0.00  0.00    +0.229 C 
ENDBRANCH  27  29
ENDBRANCH  25  27
ENDBRANCH   1  25
TORSDOF 5
