REMARK  Name = ZINC05647824
REMARK  6 active torsions:
REMARK  status: ('A' for Active; 'I' for Inactive)
REMARK    1  A    between atoms: C_1  and  C_2
REMARK    2  A    between atoms: C_9  and  C_11
REMARK    3  A    between atoms: C_14  and  N_17
REMARK    4  A    between atoms: N_17  and  C_18
REMARK    5  A    between atoms: N_22  and  C_29
REMARK    6  A    between atoms: N_25  and  C_28
REMARK                            x       y       z     vdW  Elec       q    Type
REMARK                         _______ _______ _______ _____ _____    ______ ____
ROOT
ATOM      1  C   UNL     1      -2.038   4.566   0.000  0.00  0.00    +0.007 A 
ATOM      2  C   UNL     1      -1.710   5.923   0.034  0.00  0.00    +0.012 A 
ATOM      3  C   UNL     1      -2.709   6.871   0.051  0.00  0.00    +0.024 A 
ATOM      4  C   UNL     1      -4.043   6.478   0.044  0.00  0.00    +0.031 A 
ATOM      5  C   UNL     1      -4.373   5.127   0.017  0.00  0.00    +0.024 A 
ATOM      6  C   UNL     1      -3.378   4.174  -0.005  0.00  0.00    +0.012 A 
ENDROOT
BRANCH   1  15
ATOM      7  C   UNL     1       3.702  -0.798  -0.124  0.00  0.00    +0.044 C 
ATOM      8  C   UNL     1       2.415  -0.015  -0.106  0.00  0.00    -0.049 A 
ATOM      9  C   UNL     1       1.193  -0.674  -0.117  0.00  0.00    +0.005 A 
ATOM     10  C   UNL     1       0.015   0.005  -0.101  0.00  0.00    +0.029 A 
ATOM     11  C   UNL     1      -0.006   1.420  -0.071  0.00  0.00    +0.079 A 
ATOM     12  C   UNL     1       1.255   2.062  -0.059  0.00  0.00    +0.040 A 
ATOM     13  C   UNL     1       2.439   1.367  -0.076  0.00  0.00    +0.020 A 
ATOM     14  S   UNL     1       0.804   3.780  -0.022  0.00  0.00    -0.067 S 
ATOM     15  C   UNL     1      -0.968   3.546  -0.024  0.00  0.00    +0.109 A 
ATOM     16  N   UNL     1      -1.078   2.236  -0.057  0.00  0.00    -0.239 NA
ENDBRANCH   1  15
BRANCH   4  17
ATOM     17  N   UNL     1      -5.053   7.440   0.066  0.00  0.00    -0.320 N 
ATOM     18  H   UNL     1      -6.109   7.130   0.062  0.00  0.00    +0.152 HD
BRANCH  17  19
ATOM     19  C   UNL     1      -4.735   8.752   0.093  0.00  0.00    +0.090 C 
ATOM     20  C   UNL     1      -5.731   9.706   0.003  0.00  0.00    +0.113 C 
ATOM     21  C   UNL     1      -7.157   9.333   0.005  0.00  0.00    +0.260 C 
ATOM     22  O   UNL     1      -7.498   8.168   0.086  0.00  0.00    -0.269 OA
ATOM     23  N   UNL     1      -8.074  10.319  -0.080  0.00  0.00    -0.224 N 
ATOM     24  C   UNL     1      -7.712  11.606  -0.176  0.00  0.00    +0.317 C 
ATOM     25  O   UNL     1      -8.587  12.445  -0.256  0.00  0.00    -0.252 OA
ATOM     26  N   UNL     1      -6.436  12.017  -0.190  0.00  0.00    -0.224 N 
ATOM     27  C   UNL     1      -5.413  11.141  -0.105  0.00  0.00    +0.260 C 
ATOM     28  O   UNL     1      -4.259  11.526  -0.118  0.00  0.00    -0.269 OA
ATOM     29  C   UNL     1      -6.146  13.448  -0.299  0.00  0.00    +0.143 C 
ATOM     30  C   UNL     1      -9.498   9.974  -0.074  0.00  0.00    +0.143 C 
ENDBRANCH  17  19
ENDBRANCH   4  17
TORSDOF 3
