REMARK  Name = ZINC36207672
REMARK  13 active torsions:
REMARK  status: ('A' for Active; 'I' for Inactive)
REMARK    1  A    between atoms: C_1  and  C_2
REMARK    2  A    between atoms: C_2  and  N_3
REMARK    3  A    between atoms: N_3  and  C_4
REMARK    4  A    between atoms: N_3  and  C_23
REMARK    5  A    between atoms: C_4  and  C_5
REMARK    6  A    between atoms: C_11  and  C_16
REMARK    7  A    between atoms: C_21  and  C_22
REMARK    8  A    between atoms: C_23  and  C_24
REMARK    9  A    between atoms: C_24  and  C_26
REMARK   10  A    between atoms: C_24  and  O_35
REMARK   11  A    between atoms: C_26  and  O_27
REMARK   12  A    between atoms: O_27  and  C_28
REMARK   13  A    between atoms: C_33  and  C_34
REMARK                            x       y       z     vdW  Elec       q    Type
REMARK                         _______ _______ _______ _____ _____    ______ ____
ROOT
ATOM      1  C   UNL     1      -2.116  -0.233  -1.101  0.00  0.00    -0.003 C 
ENDROOT
BRANCH   1   2
ATOM      2  C   UNL     1      -3.577  -0.529  -0.882  0.00  0.00    +0.094 A 
ATOM      3  N   UNL     1      -4.470  -0.248  -1.866  0.00  0.00    -0.312 N 
ATOM      4  H   UNL     1      -4.154   0.140  -2.698  0.00  0.00    +0.170 HD
ATOM      5  C   UNL     1      -5.783  -0.497  -1.711  0.00  0.00    +0.260 A 
ATOM      6  O   UNL     1      -6.571  -0.239  -2.605  0.00  0.00    -0.267 OA
ATOM      7  C   UNL     1      -6.240  -1.069  -0.481  0.00  0.00    +0.080 A 
ATOM      8  C   UNL     1      -7.595  -1.427  -0.078  0.00  0.00    +0.004 A 
ATOM      9  C   UNL     1      -7.788  -1.962   1.152  0.00  0.00    +0.056 A 
ATOM     10  S   UNL     1      -6.145  -2.015   1.842  0.00  0.00    -0.076 S 
ATOM     11  C   UNL     1      -5.246  -1.325   0.477  0.00  0.00    +0.116 A 
ATOM     12  N   UNL     1      -3.963  -1.056   0.249  0.00  0.00    -0.229 NA
BRANCH   8  13
ATOM     13  C   UNL     1      -8.739  -1.209  -0.995  0.00  0.00    -0.014 A 
ATOM     14  C   UNL     1      -9.734  -0.290  -0.666  0.00  0.00    +0.009 A 
ATOM     15  C   UNL     1     -10.797  -0.091  -1.524  0.00  0.00    +0.001 A 
ATOM     16  C   UNL     1     -10.875  -0.802  -2.708  0.00  0.00    +0.000 A 
ATOM     17  C   UNL     1      -9.890  -1.714  -3.040  0.00  0.00    +0.004 A 
ATOM     18  C   UNL     1      -8.820  -1.918  -2.192  0.00  0.00    -0.043 A 
ATOM     19  C   UNL     1      -7.745  -2.908  -2.558  0.00  0.00    +0.044 C 
ENDBRANCH   8  13
ENDBRANCH   1   2
BRANCH   1  20
ATOM     20  N   UNL     1      -1.336  -0.760   0.027  0.00  0.00    +0.386 N 
ATOM     21  H   UNL     1      -1.719  -0.413   0.893  0.00  0.00    -0.081 HD
BRANCH  20  23
ATOM     22  C   UNL     1       0.137   1.197   0.038  0.00  0.00    -0.017 C 
ATOM     23  C   UNL     1       0.062  -0.325  -0.099  0.00  0.00    -0.082 C 
ENDBRANCH  20  23
BRANCH  20  24
ATOM     24  C   UNL     1      -1.394  -2.228   0.019  0.00  0.00    -0.043 C 
BRANCH  24  25
ATOM     25  C   UNL     1      -0.687  -2.773   1.262  0.00  0.00    +0.135 C 
BRANCH  25  26
ATOM     26  O   UNL     1      -1.403  -2.372   2.432  0.00  0.00    -0.390 OA
ATOM     27  H   UNL     1      -2.317  -2.688   2.461  0.00  0.00    +0.210 HD
ENDBRANCH  25  26
BRANCH  25  28
ATOM     28  C   UNL     1      -0.639  -4.301   1.192  0.00  0.00    +0.258 C 
BRANCH  28  29
ATOM     29  O   UNL     1       0.122  -4.804   2.292  0.00  0.00    -0.489 OA
BRANCH  29  30
ATOM     30  C   UNL     1       0.263  -6.153   2.379  0.00  0.00    +0.124 A 
ATOM     31  C   UNL     1      -0.314  -6.975   1.421  0.00  0.00    +0.046 A 
ATOM     32  C   UNL     1      -0.168  -8.345   1.512  0.00  0.00    +0.004 A 
ATOM     33  C   UNL     1       0.551  -8.898   2.555  0.00  0.00    +0.000 A 
ATOM     34  C   UNL     1       1.127  -8.081   3.510  0.00  0.00    +0.007 A 
ATOM     35  C   UNL     1       0.989  -6.710   3.421  0.00  0.00    -0.009 A 
ATOM     36  C   UNL     1       1.622  -5.819   4.459  0.00  0.00    +0.047 C 
ENDBRANCH  29  30
ENDBRANCH  28  29
ENDBRANCH  25  28
ENDBRANCH  24  25
ENDBRANCH  20  24
ENDBRANCH   1  20
TORSDOF 10
