REMARK  Name = ZINC24091379
REMARK  7 active torsions:
REMARK  status: ('A' for Active; 'I' for Inactive)
REMARK    1  A    between atoms: C_10  and  C_13
REMARK    2  A    between atoms: C_13  and  C_14
REMARK    3  A    between atoms: C_14  and  O_16
REMARK    4  A    between atoms: O_16  and  C_17
REMARK    5  A    between atoms: C_17  and  C_18
REMARK    6  A    between atoms: N_20  and  C_21
REMARK    7  A    between atoms: C_24  and  C_28
REMARK                            x       y       z     vdW  Elec       q    Type
REMARK                         _______ _______ _______ _____ _____    ______ ____
ROOT
ATOM      1  C   UNL     1      -3.596   3.842  -2.478  0.00  0.00    +0.312 C 
ATOM      2  O   UNL     1      -4.448   3.683  -1.636  0.00  0.00    -0.251 OA
ENDROOT
BRANCH   1   3
ATOM      3  C   UNL     1      -2.231   4.343  -2.083  0.00  0.00    +0.174 C 
BRANCH   3  13
ATOM      4  C   UNL     1       0.921   0.788   0.134  0.00  0.00    +0.002 A 
ATOM      5  C   UNL     1      -0.359   0.265   0.135  0.00  0.00    +0.004 A 
ATOM      6  C   UNL     1      -1.456   1.108   0.113  0.00  0.00    +0.047 A 
ATOM      7  C   UNL     1      -1.272   2.480   0.100  0.00  0.00    +0.143 A 
ATOM      8  C   UNL     1       0.019   3.006   0.088  0.00  0.00    +0.076 A 
ATOM      9  C   UNL     1       1.112   2.157   0.110  0.00  0.00    +0.027 A 
ATOM     10  N   UNL     1       0.194   4.397   0.061  0.00  0.00    -0.280 N 
ATOM     11  C   UNL     1      -0.868   5.190  -0.192  0.00  0.00    +0.259 C 
ATOM     12  O   UNL     1      -0.760   6.396  -0.115  0.00  0.00    -0.271 OA
ATOM     13  C   UNL     1      -2.189   4.570  -0.570  0.00  0.00    +0.269 C 
ATOM     14  O   UNL     1      -2.342   3.318   0.103  0.00  0.00    -0.477 OA
ATOM     15  H   UNL     1       1.189   4.829   0.246  0.00  0.00    +0.155 HD
ENDBRANCH   3  13
ENDBRANCH   1   3
BRANCH   1  16
ATOM     16  O   UNL     1      -3.865   3.574  -3.765  0.00  0.00    -0.455 OA
BRANCH  16  17
ATOM     17  C   UNL     1      -5.201   3.094  -4.073  0.00  0.00    +0.328 C 
BRANCH  17  18
ATOM     18  C   UNL     1      -5.317   2.848  -5.555  0.00  0.00    +0.255 C 
ATOM     19  O   UNL     1      -4.368   3.056  -6.281  0.00  0.00    -0.272 OA
ATOM     20  N   UNL     1      -6.476   2.397  -6.074  0.00  0.00    -0.283 N 
ATOM     21  H   UNL     1      -7.309   2.126  -5.409  0.00  0.00    +0.155 HD
BRANCH  20  22
ATOM     22  C   UNL     1      -6.620   2.273  -7.457  0.00  0.00    +0.035 A 
ATOM     23  C   UNL     1      -5.984   3.176  -8.304  0.00  0.00    +0.024 A 
ATOM     24  C   UNL     1      -6.119   3.055  -9.669  0.00  0.00    +0.022 A 
ATOM     25  C   UNL     1      -6.905   2.030 -10.204  0.00  0.00    +0.070 A 
ATOM     26  C   UNL     1      -7.547   1.127  -9.350  0.00  0.00    +0.060 A 
ATOM     27  C   UNL     1      -7.402   1.252  -7.984  0.00  0.00    +0.044 A 
ATOM     28 CL   UNL     1      -8.524  -0.148 -10.007  0.00  0.00    -0.082 Cl
BRANCH  25  29
ATOM     29  C   UNL     1      -7.053   1.905 -11.623  0.00  0.00    +0.101 C 
ATOM     30  N   UNL     1      -7.171   1.806 -12.748  0.00  0.00    -0.191 NA
ENDBRANCH  25  29
ENDBRANCH  20  22
ENDBRANCH  17  18
ENDBRANCH  16  17
ENDBRANCH   1  16
TORSDOF 7
