REMARK  Name = ZINC39469763
REMARK  8 active torsions:
REMARK  status: ('A' for Active; 'I' for Inactive)
REMARK    1  A    between atoms: C_1  and  C_2
REMARK    2  A    between atoms: C_2  and  O_3
REMARK    3  A    between atoms: O_3  and  C_4
REMARK    4  A    between atoms: P_13  and  S_29
REMARK    5  A    between atoms: C_21  and  C_22
REMARK    6  A    between atoms: C_27  and  O_28
REMARK    7  A    between atoms: S_29  and  O_32
REMARK    8  A    between atoms: O_32  and  C_33
REMARK                            x       y       z     vdW  Elec       q    Type
REMARK                         _______ _______ _______ _____ _____    ______ ____
ROOT
ATOM      1  C   UNL     1       0.777  -1.810  -1.336  0.00  0.00    +0.124 C 
ATOM      2  C   UNL     1       0.263  -2.640  -0.423  0.00  0.00    +0.023 C 
ATOM      3  C   UNL     1       0.387  -4.123  -0.638  0.00  0.00    +0.019 C 
ATOM      4  C   UNL     1      -0.677  -4.892   0.137  0.00  0.00    -0.002 C 
ATOM      5  C   UNL     1      -0.530  -6.394  -0.144  0.00  0.00    -0.020 C 
ATOM      6  C   UNL     1      -1.635  -7.115   0.639  0.00  0.00    +0.158 C 
ATOM      7  O   UNL     1      -1.484  -8.537   0.476  0.00  0.00    -0.301 OA
ATOM      8  P   UNL     1      -1.323  -9.113  -1.037  0.00  0.00    +0.431 P 
ATOM      9  O   UNL     1      -2.647  -9.217  -1.690  0.00  0.00    -0.246 OA
ATOM     10  N   UNL     1      -0.381  -8.008  -1.824  0.00  0.00    -0.271 NA
ATOM     11  N   UNL     1      -0.642  -6.676  -1.575  0.00  0.00    +0.398 N 
ATOM     12  C   UNL     1       0.361  -5.925  -2.351  0.00  0.00    -0.046 C 
ATOM     13  C   UNL     1       0.196  -4.428  -2.130  0.00  0.00    +0.005 C 
ATOM     14  C   UNL     1       1.187  -3.622  -2.923  0.00  0.00    -0.013 C 
ATOM     15  C   UNL     1       1.457  -2.365  -2.530  0.00  0.00    +0.023 C 
ATOM     16  H   UNL     1       0.316  -8.289  -2.437  0.00  0.00    +0.113 HD
ATOM     17  H   UNL     1      -1.568  -6.434  -1.894  0.00  0.00    -0.055 HD
ENDROOT
BRANCH  15  18
ATOM     18  C   UNL     1       2.433  -1.543  -3.284  0.00  0.00    +0.027 A 
ATOM     19  C   UNL     1       2.079  -0.986  -4.512  0.00  0.00    +0.012 A 
ATOM     20  C   UNL     1       2.992  -0.221  -5.209  0.00  0.00    +0.001 A 
ATOM     21  C   UNL     1       4.258  -0.005  -4.695  0.00  0.00    +0.004 A 
ATOM     22  C   UNL     1       4.620  -0.553  -3.479  0.00  0.00    +0.046 A 
ATOM     23  C   UNL     1       3.712  -1.318  -2.765  0.00  0.00    +0.125 A 
BRANCH  23  24
ATOM     24  O   UNL     1       4.065  -1.853  -1.567  0.00  0.00    -0.506 OA
ATOM     25  H   UNL     1       4.461  -2.732  -1.630  0.00  0.00    +0.292 HD
ENDBRANCH  23  24
ENDBRANCH  15  18
BRANCH   8  26
ATOM     26  S   UNL     1      -0.370 -11.007  -1.005  0.00  0.00    +0.209 S 
ATOM     27  O   UNL     1      -0.399 -11.498  -2.338  0.00  0.00    -0.126 OA
ATOM     28  O   UNL     1       0.841 -10.840  -0.280  0.00  0.00    -0.126 OA
BRANCH  26  29
ATOM     29  O   UNL     1      -1.246 -11.937  -0.179  0.00  0.00    -0.339 OA
BRANCH  29  30
ATOM     30  C   UNL     1      -2.370 -12.353  -0.821  0.00  0.00    +0.157 A 
ATOM     31  C   UNL     1      -3.541 -11.615  -0.720  0.00  0.00    +0.048 A 
ATOM     32  C   UNL     1      -4.681 -12.039  -1.374  0.00  0.00    +0.004 A 
ATOM     33  C   UNL     1      -4.657 -13.198  -2.128  0.00  0.00    +0.000 A 
ATOM     34  C   UNL     1      -3.492 -13.935  -2.229  0.00  0.00    +0.004 A 
ATOM     35  C   UNL     1      -2.347 -13.512  -1.582  0.00  0.00    +0.048 A 
ENDBRANCH  29  30
ENDBRANCH  26  29
ENDBRANCH   8  26
BRANCH   1  36
ATOM     36  O   UNL     1       0.671  -0.465  -1.174  0.00  0.00    -0.492 OA
BRANCH  36  38
ATOM     37  C   UNL     1      -0.019   1.526   0.010  0.00  0.00    +0.048 C 
ATOM     38  C   UNL     1       0.002  -0.004   0.002  0.00  0.00    +0.225 C 
ENDBRANCH  36  38
ENDBRANCH   1  36
TORSDOF 7
