REMARK  Name = ZINC10772168
REMARK  8 active torsions:
REMARK  status: ('A' for Active; 'I' for Inactive)
REMARK    1  A    between atoms: C_1  and  C_2
REMARK    2  A    between atoms: C_5  and  C_8
REMARK    3  A    between atoms: N_14  and  C_15
REMARK    4  A    between atoms: C_15  and  C_16
REMARK    5  A    between atoms: C_16  and  C_17
REMARK    6  A    between atoms: N_19  and  C_20
REMARK    7  A    between atoms: C_20  and  C_21
REMARK    8  A    between atoms: C_21  and  C_26
REMARK                            x       y       z     vdW  Elec       q    Type
REMARK                         _______ _______ _______ _____ _____    ______ ____
ROOT
ATOM      1  C   UNL     1       5.628   1.814   2.005  0.00  0.00    +0.215 C 
ATOM      2  O   UNL     1       6.272   1.208   2.835  0.00  0.00    -0.276 OA
ATOM      3  N   UNL     1       4.802   1.148   1.175  0.00  0.00    -0.314 N 
ATOM      4  H   UNL     1       4.287   1.633   0.511  0.00  0.00    +0.149 HD
ENDROOT
BRANCH   1   5
ATOM      5  C   UNL     1       5.752   3.313   1.903  0.00  0.00    +0.117 C 
BRANCH   5   6
ATOM      6  C   UNL     1       6.747   3.815   2.951  0.00  0.00    +0.135 C 
BRANCH   6  13
ATOM      7  C   UNL     1       7.834   5.957   2.143  0.00  0.00    +0.163 A 
ATOM      8  N   UNL     1       7.621   7.236   2.282  0.00  0.00    -0.153 NA
ATOM      9  N   UNL     1       6.499   7.402   3.105  0.00  0.00    -0.254 N 
ATOM     10  H   UNL     1       6.112   8.247   3.384  0.00  0.00    +0.191 HD
ATOM     11  C   UNL     1       6.056   6.173   3.441  0.00  0.00    +0.176 A 
ATOM     12  S   UNL     1       4.708   5.822   4.435  0.00  0.00    -0.011 S 
ATOM     13  N   UNL     1       6.867   5.272   2.851  0.00  0.00    -0.303 N 
BRANCH   7  18
ATOM     14  C   UNL     1      12.080   3.570  -0.922  0.00  0.00    +0.044 C 
ATOM     15  C   UNL     1      10.968   4.195  -0.120  0.00  0.00    -0.050 A 
ATOM     16  C   UNL     1      11.090   5.498   0.327  0.00  0.00    +0.004 A 
ATOM     17  C   UNL     1      10.076   6.077   1.062  0.00  0.00    +0.012 A 
ATOM     18  C   UNL     1       8.925   5.343   1.354  0.00  0.00    +0.019 A 
ATOM     19  C   UNL     1       8.811   4.028   0.906  0.00  0.00    +0.012 A 
ATOM     20  C   UNL     1       9.830   3.463   0.166  0.00  0.00    +0.004 A 
ENDBRANCH   7  18
ENDBRANCH   6  13
ENDBRANCH   5   6
ENDBRANCH   1   5
BRANCH   3  21
ATOM     21  C   UNL     1       4.682  -0.309   1.274  0.00  0.00    +0.115 C 
BRANCH  21  22
ATOM     22  C   UNL     1       3.772  -0.823   0.157  0.00  0.00    +0.011 C 
ATOM     23  C   UNL     1       4.338  -0.413  -1.218  0.00  0.00    +0.013 C 
ATOM     24  C   UNL     1       5.149  -1.649  -1.679  0.00  0.00    +0.001 C 
ATOM     25  C   UNL     1       4.276  -2.832  -1.189  0.00  0.00    +0.001 C 
ATOM     26  C   UNL     1       3.732  -2.361   0.175  0.00  0.00    +0.013 C 
BRANCH  22  27
ATOM     27  C   UNL     1       2.381  -0.269   0.329  0.00  0.00    -0.036 A 
ATOM     28  C   UNL     1       1.420  -0.506  -0.636  0.00  0.00    +0.008 A 
ATOM     29  C   UNL     1       0.143   0.002  -0.483  0.00  0.00    +0.050 A 
ATOM     30  C   UNL     1      -0.177   0.750   0.640  0.00  0.00    +0.162 A 
ATOM     31  C   UNL     1       0.789   0.986   1.611  0.00  0.00    +0.162 A 
ATOM     32  C   UNL     1       2.068   0.475   1.451  0.00  0.00    +0.053 A 
ATOM     33  O   UNL     1       0.494   1.710   2.725  0.00  0.00    -0.485 OA
ATOM     34  C   UNL     1      -0.687   2.519   2.672  0.00  0.00    +0.270 C 
ATOM     35  C   UNL     1      -1.824   1.673   2.085  0.00  0.00    +0.270 C 
ATOM     36  O   UNL     1      -1.435   1.250   0.773  0.00  0.00    -0.485 OA
ENDBRANCH  22  27
ENDBRANCH  21  22
ENDBRANCH   3  21
TORSDOF 7
