REMARK  Name = ZINC65523495
REMARK  3 active torsions:
REMARK  status: ('A' for Active; 'I' for Inactive)
REMARK    1  A    between atoms: C_1  and  C_2
REMARK    2  A    between atoms: C_10  and  C_11
REMARK    3  A    between atoms: C_16  and  N_19
REMARK                            x       y       z     vdW  Elec       q    Type
REMARK                         _______ _______ _______ _____ _____    ______ ____
ROOT
ATOM      1  C   UNL     1       0.029  -0.161   2.546  0.00  0.00    +0.254 C 
ATOM      2  O   UNL     1      -0.079  -0.601   1.418  0.00  0.00    -0.269 OA
ATOM      3  N   UNL     1       0.153  -1.005   3.590  0.00  0.00    -0.297 N 
ATOM      4  C   UNL     1       0.288  -2.451   3.371  0.00  0.00    +0.110 C 
ATOM      5  C   UNL     1      -0.782  -3.177   4.192  0.00  0.00    +0.041 C 
ATOM      6  C   UNL     1      -0.671  -2.750   5.658  0.00  0.00    +0.081 C 
ATOM      7  C   UNL     1      -0.914  -1.243   5.772  0.00  0.00    +0.041 C 
ATOM      8  C   UNL     1       0.161  -0.495   4.968  0.00  0.00    +0.110 C 
ENDROOT
BRANCH   1  18
ATOM      9  C   UNL     1      -1.694   1.851   1.069  0.00  0.00    +0.046 C 
ATOM     10  C   UNL     1      -0.718   2.244   2.148  0.00  0.00    -0.024 A 
ATOM     11  C   UNL     1      -0.580   3.594   2.515  0.00  0.00    -0.007 A 
ATOM     12  C   UNL     1      -1.262   4.722   1.990  0.00  0.00    +0.009 A 
ATOM     13  C   UNL     1      -1.007   5.970   2.460  0.00  0.00    +0.001 A 
ATOM     14  C   UNL     1      -0.074   6.193   3.466  0.00  0.00    +0.001 A 
ATOM     15  C   UNL     1       0.612   5.124   4.006  0.00  0.00    +0.015 A 
ATOM     16  C   UNL     1       0.363   3.851   3.538  0.00  0.00    +0.020 A 
ATOM     17  S   UNL     1       0.996   2.240   3.931  0.00  0.00    -0.083 S 
ATOM     18  C   UNL     1       0.025   1.292   2.772  0.00  0.00    +0.078 A 
ENDBRANCH   1  18
BRANCH   6  19
ATOM     19  N   UNL     1      -1.672  -3.467   6.452  0.00  0.00    -0.281 N 
ATOM     20  C   UNL     1      -1.381  -4.362   7.582  0.00  0.00    +0.128 C 
ATOM     21  C   UNL     1      -2.773  -4.837   8.044  0.00  0.00    +0.124 C 
ATOM     22  N   UNL     1      -3.700  -4.160   7.125  0.00  0.00    -0.298 N 
ATOM     23  C   UNL     1      -2.998  -3.407   6.268  0.00  0.00    +0.303 C 
ATOM     24  O   UNL     1      -3.516  -2.733   5.399  0.00  0.00    -0.253 OA
ATOM     25  H   UNL     1      -4.666  -4.242   7.139  0.00  0.00    +0.150 HD
ENDBRANCH   6  19
TORSDOF 2
