REMARK  Name = ZINC12713228
REMARK  6 active torsions:
REMARK  status: ('A' for Active; 'I' for Inactive)
REMARK    1  A    between atoms: C_1  and  C_2
REMARK    2  A    between atoms: C_8  and  C_10
REMARK    3  A    between atoms: C_8  and  C_25
REMARK    4  A    between atoms: C_8  and  N_60
REMARK    5  A    between atoms: N_29  and  C_30
REMARK    6  A    between atoms: C_30  and  C_31
REMARK                            x       y       z     vdW  Elec       q    Type
REMARK                         _______ _______ _______ _____ _____    ______ ____
ROOT
ATOM      1  C   UNL     1      -4.985   1.042   0.059  0.00  0.00    +0.039 C 
ENDROOT
BRANCH   1   2
ATOM      2  C   UNL     1      -3.633   1.709   0.055  0.00  0.00    +0.011 A 
ATOM      3  C   UNL     1      -2.506   0.953   0.093  0.00  0.00    +0.017 A 
ATOM      4  C   UNL     1      -1.210   1.629   0.082  0.00  0.00    +0.002 A 
ATOM      5  C   UNL     1      -0.015   0.900   0.127  0.00  0.00    +0.059 A 
ATOM      6  C   UNL     1       1.191   1.565   0.122  0.00  0.00    +0.167 A 
ATOM      7  C   UNL     1       1.225   2.965   0.077  0.00  0.00    +0.168 A 
ATOM      8  C   UNL     1       0.050   3.693   0.038  0.00  0.00    +0.075 A 
ATOM      9  C   UNL     1      -1.175   3.037   0.043  0.00  0.00    +0.053 A 
ATOM     10  N   UNL     1      -2.358   3.747   0.005  0.00  0.00    -0.322 N 
ATOM     11  H   UNL     1      -2.333   4.716  -0.026  0.00  0.00    +0.169 HD
ATOM     12  C   UNL     1      -3.544   3.115   0.011  0.00  0.00    +0.251 A 
ATOM     13  O   UNL     1      -4.569   3.774  -0.022  0.00  0.00    -0.268 OA
ATOM     14  O   UNL     1       2.529   3.366   0.083  0.00  0.00    -0.453 OA
ATOM     15  C   UNL     1       3.281   2.229   0.545  0.00  0.00    +0.466 C 
ATOM     16  O   UNL     1       2.476   1.102   0.156  0.00  0.00    -0.453 OA
ENDBRANCH   1   2
BRANCH   1  23
ATOM     17  C   UNL     1      -9.452   1.238   2.108  0.00  0.00    +0.005 C 
ATOM     18  C   UNL     1      -8.022   1.778   2.160  0.00  0.00    -0.031 C 
ATOM     19  C   UNL     1      -7.422   1.504   3.542  0.00  0.00    -0.001 C 
ATOM     20  C   UNL     1      -5.972   1.993   3.567  0.00  0.00    -0.018 C 
ATOM     21  C   UNL     1      -5.182   1.291   2.459  0.00  0.00    -0.077 C 
ATOM     22  C   UNL     1      -7.173   1.082   1.094  0.00  0.00    -0.074 C 
ATOM     23  N   UNL     1      -5.796   1.615   1.154  0.00  0.00    +0.389 N 
ATOM     24  H   UNL     1      -5.828   2.635   1.045  0.00  0.00    -0.080 HD
ENDBRANCH   1  23
BRANCH   1  25
ATOM     25  C   UNL     1      -5.678   1.303  -1.253  0.00  0.00    +0.143 A 
ATOM     26  N   UNL     1      -6.242   2.424  -1.631  0.00  0.00    -0.115 NA
ATOM     27  N   UNL     1      -6.721   2.249  -2.814  0.00  0.00    -0.023 NA
ATOM     28  N   UNL     1      -6.485   1.043  -3.197  0.00  0.00    -0.044 NA
ATOM     29  N   UNL     1      -5.843   0.428  -2.262  0.00  0.00    -0.226 N 
BRANCH  29  30
ATOM     30  C   UNL     1      -5.381  -0.962  -2.294  0.00  0.00    +0.182 C 
BRANCH  30  31
ATOM     31  C   UNL     1      -6.455  -1.861  -1.736  0.00  0.00    -0.026 A 
ATOM     32  C   UNL     1      -6.482  -2.149  -0.385  0.00  0.00    +0.005 A 
ATOM     33  C   UNL     1      -7.469  -2.970   0.127  0.00  0.00    +0.000 A 
ATOM     34  C   UNL     1      -8.424  -3.510  -0.714  0.00  0.00    +0.000 A 
ATOM     35  C   UNL     1      -8.393  -3.227  -2.067  0.00  0.00    +0.000 A 
ATOM     36  C   UNL     1      -7.409  -2.402  -2.578  0.00  0.00    +0.005 A 
ENDBRANCH  30  31
ENDBRANCH  29  30
ENDBRANCH   1  25
TORSDOF 5
