REMARK  Name = ZINC30499809
REMARK  13 active torsions:
REMARK  status: ('A' for Active; 'I' for Inactive)
REMARK    1  A    between atoms: C_1  and  C_2
REMARK    2  A    between atoms: C_2  and  C_3
REMARK    3  A    between atoms: N_5  and  C_6
REMARK    4  A    between atoms: C_9  and  C_12
REMARK    5  A    between atoms: C_12  and  C_14
REMARK    6  A    between atoms: C_12  and  N_15
REMARK    7  A    between atoms: N_15  and  C_16
REMARK    8  A    between atoms: C_16  and  C_18
REMARK    9  A    between atoms: C_16  and  C_19
REMARK   10  A    between atoms: N_24  and  C_25
REMARK   11  A    between atoms: C_25  and  C_26
REMARK   12  A    between atoms: C_26  and  C_27
REMARK   13  A    between atoms: C_26  and  C_28
REMARK                            x       y       z     vdW  Elec       q    Type
REMARK                         _______ _______ _______ _____ _____    ______ ____
ROOT
ATOM      1  N   UNL     1      -5.733  -2.317   1.346  0.00  0.00    +0.391 N 
ATOM      2  H   UNL     1      -5.263  -3.169   0.833  0.00  0.00    -0.084 HD
ATOM      3  H   UNL     1      -5.080  -1.975   2.162  0.00  0.00    -0.084 HD
ENDROOT
BRANCH   1   4
ATOM      4  C   UNL     1      -5.935  -1.221   0.389  0.00  0.00    -0.043 C 
ATOM      5  C   UNL     1      -6.275  -1.800  -0.986  0.00  0.00    -0.009 C 
BRANCH   4   9
ATOM      6  C   UNL     1      -2.361   1.105   0.110  0.00  0.00    +0.033 A 
ATOM      7  C   UNL     1      -2.286  -0.279   0.192  0.00  0.00    +0.023 A 
ATOM      8  C   UNL     1      -3.442  -1.028   0.287  0.00  0.00    +0.004 A 
ATOM      9  C   UNL     1      -4.675  -0.401   0.291  0.00  0.00    -0.062 A 
ATOM     10  C   UNL     1      -4.753   0.977   0.204  0.00  0.00    +0.004 A 
ATOM     11  C   UNL     1      -3.600   1.732   0.113  0.00  0.00    +0.023 A 
BRANCH   6  14
ATOM     12  C   UNL     1      -1.125   3.076   0.609  0.00  0.00    +0.217 C 
ATOM     13  O   UNL     1      -2.107   3.541   1.149  0.00  0.00    -0.275 OA
ATOM     14  N   UNL     1      -1.191   1.867   0.018  0.00  0.00    -0.286 N 
ATOM     15  H   UNL     1      -0.324   1.478  -0.537  0.00  0.00    +0.155 HD
BRANCH  12  17
ATOM     16  C   UNL     1      -0.026   5.174   1.343  0.00  0.00    +0.013 C 
ATOM     17  C   UNL     1       0.169   3.848   0.605  0.00  0.00    +0.093 C 
ENDBRANCH  12  17
ENDBRANCH   6  14
ENDBRANCH   4   9
ENDBRANCH   1   4
BRANCH   1  18
ATOM     18  C   UNL     1      -7.011  -2.759   1.918  0.00  0.00    +0.014 C 
ATOM     19  C   UNL     1      -7.370  -1.871   3.111  0.00  0.00    -0.004 C 
BRANCH  18  20
ATOM     20  C   UNL     1      -6.889  -4.190   2.375  0.00  0.00    +0.206 C 
ATOM     21  O   UNL     1      -5.841  -4.783   2.238  0.00  0.00    -0.277 OA
ATOM     22  N   UNL     1      -7.946  -4.811   2.937  0.00  0.00    -0.242 N 
ATOM     23  C   UNL     1      -7.836  -6.090   3.346  0.00  0.00    +0.306 C 
ATOM     24  O   UNL     1      -6.785  -6.684   3.208  0.00  0.00    -0.252 OA
ATOM     25  N   UNL     1      -8.893  -6.711   3.908  0.00  0.00    -0.299 N 
ATOM     26  H   UNL     1      -8.897  -4.273   3.062  0.00  0.00    +0.159 HD
ATOM     27  H   UNL     1      -9.844  -6.173   4.032  0.00  0.00    +0.150 HD
BRANCH  25  28
ATOM     28  C   UNL     1      -8.774  -8.102   4.352  0.00  0.00    +0.108 C 
BRANCH  28  29
ATOM     29  C   UNL     1     -10.106  -8.562   4.948  0.00  0.00    -0.000 C 
ATOM     30  C   UNL     1     -10.021 -10.049   5.298  0.00  0.00    +0.009 C 
ATOM     31  C   UNL     1     -10.403  -7.756   6.215  0.00  0.00    +0.009 C 
ENDBRANCH  28  29
ENDBRANCH  25  28
ENDBRANCH  18  20
ENDBRANCH   1  18
TORSDOF 8
