REMARK  Name = ZINC04084622
REMARK  6 active torsions:
REMARK  status: ('A' for Active; 'I' for Inactive)
REMARK    1  A    between atoms: C_1  and  C_2
REMARK    2  A    between atoms: C_2  and  C_4
REMARK    3  A    between atoms: C_2  and  O_33
REMARK    4  A    between atoms: N_12  and  C_15
REMARK    5  A    between atoms: C_15  and  C_16
REMARK    6  A    between atoms: C_16  and  C_17
REMARK                            x       y       z     vdW  Elec       q    Type
REMARK                         _______ _______ _______ _____ _____    ______ ____
ROOT
ATOM      1  C   UNL     1      -1.236   4.258  -1.329  0.00  0.00    -0.028 C 
ATOM      2  C   UNL     1      -0.825   3.645   0.027  0.00  0.00    +0.075 C 
ATOM      3  C   UNL     1       0.730   3.666   0.018  0.00  0.00    +0.088 C 
ATOM      4  C   UNL     1       1.098   2.200   0.003  0.00  0.00    +0.225 C 
ATOM      5  O   UNL     1       2.228   1.761  -0.012  0.00  0.00    -0.275 OA
ATOM      6  N   UNL     1      -0.018   1.461   0.010  0.00  0.00    -0.241 N 
ATOM      7  C   UNL     1      -1.153   2.169   0.019  0.00  0.00    +0.224 C 
ATOM      8  O   UNL     1      -2.271   1.700   0.023  0.00  0.00    -0.275 OA
ATOM      9  C   UNL     1       1.101   4.308  -1.323  0.00  0.00    +0.050 C 
ATOM     10  C   UNL     1       2.326   5.169  -1.202  0.00  0.00    -0.028 A 
ATOM     11  C   UNL     1       2.638   6.271  -0.436  0.00  0.00    +0.004 A 
ATOM     12  C   UNL     1       3.884   6.861  -0.549  0.00  0.00    +0.000 A 
ATOM     13  C   UNL     1       4.814   6.344  -1.433  0.00  0.00    +0.002 A 
ATOM     14  C   UNL     1       4.505   5.240  -2.201  0.00  0.00    +0.023 A 
ATOM     15  C   UNL     1       3.254   4.638  -2.093  0.00  0.00    +0.036 A 
ATOM     16  N   UNL     1       2.713   3.531  -2.750  0.00  0.00    -0.286 N 
ATOM     17  C   UNL     1       1.453   3.270  -2.353  0.00  0.00    +0.211 C 
ATOM     18  O   UNL     1       0.740   2.373  -2.751  0.00  0.00    -0.277 OA
ATOM     19  H   UNL     1       3.190   3.010  -3.415  0.00  0.00    +0.155 HD
ATOM     20  N   UNL     1      -0.076   5.064  -1.718  0.00  0.00    +0.396 N 
ATOM     21  H   UNL     1      -0.095   5.970  -1.235  0.00  0.00    -0.083 HD
ATOM     22  H   UNL     1      -0.075   5.217  -2.733  0.00  0.00    -0.083 HD
ENDROOT
BRANCH   1  24
ATOM     23  C   UNL     1      -2.830   5.782  -2.502  0.00  0.00    +0.036 C 
ATOM     24  C   UNL     1      -2.487   5.123  -1.165  0.00  0.00    +0.098 C 
BRANCH  24  25
ATOM     25  O   UNL     1      -2.242   6.134  -0.185  0.00  0.00    -0.394 OA
ATOM     26  H   UNL     1      -1.512   6.728  -0.406  0.00  0.00    +0.210 HD
ENDBRANCH  24  25
ENDBRANCH   1  24
BRANCH   6  27
ATOM     27  C   UNL     1       0.002  -0.004   0.002  0.00  0.00    +0.121 C 
BRANCH  27  28
ATOM     28  C   UNL     1       0.023  -0.522   1.442  0.00  0.00    +0.054 C 
BRANCH  28  29
ATOM     29  C   UNL     1       0.043  -2.029   1.433  0.00  0.00    -0.046 A 
ATOM     30  C   UNL     1      -1.144  -2.736   1.447  0.00  0.00    +0.004 A 
ATOM     31  C   UNL     1      -1.126  -4.118   1.434  0.00  0.00    +0.000 A 
ATOM     32  C   UNL     1       0.081  -4.793   1.419  0.00  0.00    +0.000 A 
ATOM     33  C   UNL     1       1.268  -4.086   1.411  0.00  0.00    +0.000 A 
ATOM     34  C   UNL     1       1.250  -2.703   1.418  0.00  0.00    +0.004 A 
ENDBRANCH  28  29
ENDBRANCH  27  28
ENDBRANCH   6  27
TORSDOF 5
