REMARK  Name = ZINC39584762
REMARK  7 active torsions:
REMARK  status: ('A' for Active; 'I' for Inactive)
REMARK    1  A    between atoms: C_4  and  C_7
REMARK    2  A    between atoms: C_11  and  S_21
REMARK    3  A    between atoms: N_13  and  C_14
REMARK    4  A    between atoms: S_21  and  C_22
REMARK    5  A    between atoms: C_22  and  C_23
REMARK    6  A    between atoms: N_25  and  N_26
REMARK    7  A    between atoms: C_27  and  C_28
REMARK                            x       y       z     vdW  Elec       q    Type
REMARK                         _______ _______ _______ _____ _____    ______ ____
ROOT
ATOM      1  C   UNL     1       3.629  -0.642  -0.232  0.00  0.00    +0.188 C 
ATOM      2  N   UNL     1       4.576   0.088  -1.105  0.00  0.00    -0.230 NA
ATOM      3  N   UNL     1       5.517  -0.944  -1.568  0.00  0.00    -0.226 NA
ATOM      4  C   UNL     1       4.641  -2.130  -1.764  0.00  0.00    +0.218 C 
ATOM      5  N   UNL     1       3.671  -2.054  -0.651  0.00  0.00    -0.284 N 
ATOM      6  H   UNL     1       5.057   0.812  -0.592  0.00  0.00    +0.143 HD
ATOM      7  H   UNL     1       6.223  -1.128  -0.872  0.00  0.00    +0.143 HD
ENDROOT
BRANCH   5   8
ATOM      8  C   UNL     1       2.938  -3.111  -0.105  0.00  0.00    +0.033 A 
ATOM      9  C   UNL     1       2.160  -2.906   1.027  0.00  0.00    +0.024 A 
ATOM     10  C   UNL     1       1.436  -3.953   1.564  0.00  0.00    +0.022 A 
ATOM     11  C   UNL     1       1.487  -5.204   0.976  0.00  0.00    +0.041 A 
ATOM     12  C   UNL     1       2.262  -5.411  -0.152  0.00  0.00    +0.022 A 
ATOM     13  C   UNL     1       2.983  -4.367  -0.697  0.00  0.00    +0.024 A 
ATOM     14 CL   UNL     1       0.577  -6.518   1.655  0.00  0.00    -0.084 Cl
ENDBRANCH   5   8
BRANCH   1  18
ATOM     15  C   UNL     1      -0.318   0.915  -0.726  0.00  0.00    +0.000 A 
ATOM     16  C   UNL     1      -0.066  -0.421  -0.975  0.00  0.00    +0.000 A 
ATOM     17  C   UNL     1       1.212  -0.925  -0.815  0.00  0.00    +0.007 A 
ATOM     18  C   UNL     1       2.237  -0.092  -0.407  0.00  0.00    -0.012 A 
ATOM     19  C   UNL     1       1.985   1.244  -0.159  0.00  0.00    +0.007 A 
ATOM     20  C   UNL     1       0.707   1.747  -0.317  0.00  0.00    +0.000 A 
ENDBRANCH   1  18
BRANCH   4  21
ATOM     21  S   UNL     1       3.789  -2.032  -3.362  0.00  0.00    -0.112 S 
BRANCH  21  22
ATOM     22  C   UNL     1       3.000  -0.398  -3.339  0.00  0.00    +0.169 C 
BRANCH  22  23
ATOM     23  C   UNL     1       2.399  -0.112  -4.691  0.00  0.00    +0.242 C 
ATOM     24  O   UNL     1       2.494  -0.929  -5.582  0.00  0.00    -0.273 OA
ATOM     25  N   UNL     1       1.757   1.053  -4.910  0.00  0.00    -0.206 N 
ATOM     26  H   UNL     1       1.682   1.707  -4.197  0.00  0.00    +0.177 HD
BRANCH  25  27
ATOM     27  N   UNL     1       1.198   1.319  -6.167  0.00  0.00    -0.188 NA
ATOM     28  C   UNL     1       0.575   2.450  -6.380  0.00  0.00    +0.136 C 
BRANCH  28  29
ATOM     29  C   UNL     1       0.015   2.717  -7.638  0.00  0.00    +0.000 C 
ATOM     30  C   UNL     1      -0.671   3.865  -8.028  0.00  0.00    +0.004 A 
ATOM     31  C   UNL     1      -1.009   5.053  -7.345  0.00  0.00    +0.010 A 
ATOM     32  C   UNL     1      -1.699   6.027  -7.990  0.00  0.00    +0.001 A 
ATOM     33  C   UNL     1      -2.089   5.888  -9.325  0.00  0.00    +0.002 A 
ATOM     34  C   UNL     1      -1.799   4.776 -10.042  0.00  0.00    +0.026 A 
ATOM     35  C   UNL     1      -1.079   3.712  -9.436  0.00  0.00    +0.043 A 
ATOM     36  N   UNL     1      -0.681   2.549  -9.907  0.00  0.00    -0.380 N 
ATOM     37  C   UNL     1       0.037   1.821  -8.857  0.00  0.00    +0.150 C 
ATOM     38  H   UNL     1      -0.835   2.227 -10.809  0.00  0.00    +0.160 HD
ENDBRANCH  28  29
ENDBRANCH  25  27
ENDBRANCH  22  23
ENDBRANCH  21  22
ENDBRANCH   4  21
TORSDOF 7
