REMARK  Name = ZINC16651780
REMARK  11 active torsions:
REMARK  status: ('A' for Active; 'I' for Inactive)
REMARK    1  A    between atoms: C_1  and  C_2
REMARK    2  A    between atoms: C_5  and  C_7
REMARK    3  A    between atoms: C_7  and  N_8
REMARK    4  A    between atoms: N_8  and  C_9
REMARK    5  A    between atoms: C_9  and  C_10
REMARK    6  A    between atoms: C_19  and  C_21
REMARK    7  A    between atoms: C_21  and  N_22
REMARK    8  A    between atoms: N_22  and  C_23
REMARK    9  A    between atoms: C_23  and  C_24
REMARK   10  A    between atoms: C_23  and  C_25
REMARK   11  A    between atoms: N_28  and  C_29
REMARK                            x       y       z     vdW  Elec       q    Type
REMARK                         _______ _______ _______ _____ _____    ______ ____
ROOT
ATOM      1  N   UNL     1      -2.625   0.939   1.503  0.00  0.00    -0.289 N 
ATOM      2  C   UNL     1      -2.358  -0.251   2.077  0.00  0.00    +0.234 C 
ATOM      3  O   UNL     1      -1.724  -1.088   1.470  0.00  0.00    -0.274 OA
ENDROOT
BRANCH   1   4
ATOM      4  C   UNL     1      -3.391   1.950   2.235  0.00  0.00    +0.182 C 
BRANCH   4   9
ATOM      5  C   UNL     1      -7.922   2.393   0.064  0.00  0.00    +0.086 C 
ATOM      6  C   UNL     1      -6.831   1.962   1.010  0.00  0.00    +0.102 A 
ATOM      7  C   UNL     1      -6.977   1.121   2.050  0.00  0.00    +0.045 A 
ATOM      8  C   UNL     1      -5.707   0.997   2.658  0.00  0.00    +0.046 A 
ATOM      9  C   UNL     1      -4.860   1.769   1.953  0.00  0.00    +0.122 A 
ATOM     10  O   UNL     1      -5.548   2.355   0.960  0.00  0.00    -0.463 OA
ENDBRANCH   4   9
ENDBRANCH   1   4
BRANCH   1  11
ATOM     11  C   UNL     1      -2.149   1.221   0.146  0.00  0.00    +0.143 C 
BRANCH  11  12
ATOM     12  C   UNL     1      -0.779   1.845   0.214  0.00  0.00    -0.026 A 
ATOM     13  C   UNL     1      -0.651   3.219   0.303  0.00  0.00    +0.009 A 
ATOM     14  C   UNL     1       0.603   3.797   0.358  0.00  0.00    +0.050 A 
ATOM     15  C   UNL     1       1.736   2.999   0.332  0.00  0.00    +0.166 A 
ATOM     16  C   UNL     1       1.607   1.615   0.250  0.00  0.00    +0.167 A 
ATOM     17  C   UNL     1       0.346   1.043   0.194  0.00  0.00    +0.054 A 
ATOM     18  O   UNL     1       2.854   1.060   0.240  0.00  0.00    -0.453 OA
ATOM     19  C   UNL     1       3.751   2.136  -0.095  0.00  0.00    +0.466 C 
ATOM     20  O   UNL     1       3.064   3.312   0.374  0.00  0.00    -0.453 OA
ENDBRANCH  11  12
ENDBRANCH   1  11
BRANCH   2  21
ATOM     21  C   UNL     1      -2.848  -0.541   3.472  0.00  0.00    +0.205 C 
BRANCH  21  22
ATOM     22  N   UNL     1      -2.431  -1.889   3.866  0.00  0.00    -0.274 N 
ATOM     23  C   UNL     1      -1.248  -2.076   4.484  0.00  0.00    +0.303 C 
ATOM     24  O   UNL     1      -0.945  -3.179   4.895  0.00  0.00    -0.253 OA
ATOM     25  N   UNL     1      -0.402  -1.040   4.647  0.00  0.00    -0.294 N 
ATOM     26  H   UNL     1      -0.673  -0.146   4.384  0.00  0.00    +0.151 HD
BRANCH  25  27
ATOM     27  C   UNL     1       0.926  -1.262   5.223  0.00  0.00    +0.037 C 
ATOM     28  C   UNL     1       0.782  -1.846   6.629  0.00  0.00    +0.029 C 
ATOM     29  C   UNL     1       2.170  -2.079   7.230  0.00  0.00    -0.008 C 
ATOM     30  C   UNL     1       2.922  -0.749   7.305  0.00  0.00    +0.007 C 
ATOM     31  C   UNL     1       3.067  -0.165   5.898  0.00  0.00    -0.008 C 
ATOM     32  C   UNL     1       1.679   0.068   5.297  0.00  0.00    +0.029 C 
ATOM     33  C   UNL     1       3.847  -1.144   5.017  0.00  0.00    +0.007 C 
ATOM     34  C   UNL     1       3.094  -2.473   4.942  0.00  0.00    -0.008 C 
ATOM     35  C   UNL     1       2.949  -3.057   6.349  0.00  0.00    +0.007 C 
ATOM     36  C   UNL     1       1.706  -2.241   4.342  0.00  0.00    +0.029 C 
ENDBRANCH  25  27
BRANCH  22  37
ATOM     37  C   UNL     1      -3.300  -3.035   3.586  0.00  0.00    +0.072 C 
ATOM     38  C   UNL     1      -4.683  -2.786   4.194  0.00  0.00    +0.028 C 
ATOM     39  C   UNL     1      -3.434  -3.217   2.073  0.00  0.00    +0.028 C 
ENDBRANCH  22  37
ENDBRANCH  21  22
ENDBRANCH   2  21
TORSDOF 8
