REMARK  Name = ZINC33937188
REMARK  13 active torsions:
REMARK  status: ('A' for Active; 'I' for Inactive)
REMARK    1  A    between atoms: C_1  and  C_2
REMARK    2  A    between atoms: C_2  and  C_3
REMARK    3  A    between atoms: C_3  and  C_5
REMARK    4  A    between atoms: C_3  and  N_17
REMARK    5  A    between atoms: N_9  and  C_10
REMARK    6  A    between atoms: C_10  and  C_11
REMARK    7  A    between atoms: N_17  and  C_18
REMARK    8  A    between atoms: N_17  and  C_27
REMARK    9  A    between atoms: C_18  and  C_19
REMARK   10  A    between atoms: C_19  and  C_20
REMARK   11  A    between atoms: C_24  and  C_26
REMARK   12  A    between atoms: C_27  and  C_28
REMARK   13  A    between atoms: C_32  and  C_40
REMARK                            x       y       z     vdW  Elec       q    Type
REMARK                         _______ _______ _______ _____ _____    ______ ____
ROOT
ATOM      1  N   UNL     1       1.812   0.234  -0.691  0.00  0.00    +0.389 N 
ATOM      2  H   UNL     1       2.585  -0.326  -0.365  0.00  0.00    -0.080 HD
ENDROOT
BRANCH   1   3
ATOM      3  C   UNL     1       1.179   0.907   0.451  0.00  0.00    +0.003 C 
BRANCH   3   4
ATOM      4  C   UNL     1       0.150   1.887  -0.052  0.00  0.00    +0.138 A 
ATOM      5  N   UNL     1      -0.211   2.073  -1.298  0.00  0.00    -0.115 NA
ATOM      6  N   UNL     1      -1.112   2.994  -1.318  0.00  0.00    -0.023 NA
ATOM      7  N   UNL     1      -1.336   3.400  -0.117  0.00  0.00    -0.044 NA
ATOM      8  N   UNL     1      -0.581   2.738   0.693  0.00  0.00    -0.228 N 
BRANCH   8   9
ATOM      9  C   UNL     1      -0.526   2.887   2.150  0.00  0.00    +0.178 C 
BRANCH   9  10
ATOM     10  C   UNL     1       0.631   3.815   2.524  0.00  0.00    +0.140 C 
ATOM     11  C   UNL     1       0.666   4.039   4.057  0.00  0.00    +0.035 C 
ATOM     12  C   UNL     1       2.161   4.400   4.268  0.00  0.00    +0.031 C 
ATOM     13  C   UNL     1       2.862   3.530   3.203  0.00  0.00    +0.160 C 
ATOM     14  O   UNL     1       1.888   3.198   2.205  0.00  0.00    -0.375 OA
ENDBRANCH   9  10
ENDBRANCH   8   9
ENDBRANCH   3   4
BRANCH   3  16
ATOM     15  C   UNL     1       1.557  -1.063   1.939  0.00  0.00    +0.002 C 
ATOM     16  C   UNL     1       0.499  -0.132   1.344  0.00  0.00    -0.011 C 
ENDBRANCH   3  16
ENDBRANCH   1   3
BRANCH   1  17
ATOM     17  C   UNL     1       2.302   1.239  -1.643  0.00  0.00    -0.073 C 
BRANCH  17  18
ATOM     18  C   UNL     1       3.042   2.342  -0.883  0.00  0.00    +0.016 C 
BRANCH  18  19
ATOM     19  C   UNL     1       3.562   3.364  -1.861  0.00  0.00    -0.049 A 
ATOM     20  C   UNL     1       4.914   3.427  -2.142  0.00  0.00    +0.003 A 
ATOM     21  C   UNL     1       5.391   4.364  -3.039  0.00  0.00    +0.001 A 
ATOM     22  C   UNL     1       4.515   5.238  -3.656  0.00  0.00    +0.003 A 
ATOM     23  C   UNL     1       3.163   5.175  -3.377  0.00  0.00    -0.050 A 
ATOM     24  C   UNL     1       2.686   4.235  -2.482  0.00  0.00    +0.007 A 
ATOM     25  C   UNL     1       2.209   6.128  -4.049  0.00  0.00    +0.044 C 
ENDBRANCH  18  19
ENDBRANCH  17  18
ENDBRANCH   1  17
BRANCH   1  26
ATOM     26  C   UNL     1       0.828  -0.631  -1.356  0.00  0.00    -0.037 C 
BRANCH  26  27
ATOM     27  C   UNL     1       1.510  -1.429  -2.437  0.00  0.00    +0.001 A 
ATOM     28  C   UNL     1       1.949  -2.685  -2.176  0.00  0.00    +0.017 A 
ATOM     29  C   UNL     1       2.607  -3.433  -3.248  0.00  0.00    -0.001 A 
ATOM     30  C   UNL     1       3.080  -4.733  -3.039  0.00  0.00    +0.013 A 
ATOM     31  C   UNL     1       3.690  -5.404  -4.060  0.00  0.00    -0.050 A 
ATOM     32  C   UNL     1       3.844  -4.809  -5.305  0.00  0.00    +0.005 A 
ATOM     33  C   UNL     1       3.386  -3.529  -5.534  0.00  0.00    +0.026 A 
ATOM     34  C   UNL     1       2.761  -2.826  -4.509  0.00  0.00    +0.049 A 
ATOM     35  N   UNL     1       2.292  -1.545  -4.710  0.00  0.00    -0.322 N 
ATOM     36  H   UNL     1       2.399  -1.129  -5.580  0.00  0.00    +0.169 HD
ATOM     37  C   UNL     1       1.684  -0.868  -3.721  0.00  0.00    +0.251 A 
ATOM     38  O   UNL     1       1.278   0.261  -3.936  0.00  0.00    -0.268 OA
ATOM     39  C   UNL     1       4.200  -6.804  -3.834  0.00  0.00    +0.044 C 
ENDBRANCH  26  27
ENDBRANCH   1  26
TORSDOF 10
