REMARK  Name = ZINC36945648
REMARK  5 active torsions:
REMARK  status: ('A' for Active; 'I' for Inactive)
REMARK    1  A    between atoms: C_1  and  C_2
REMARK    2  A    between atoms: C_2  and  C_4
REMARK    3  A    between atoms: C_2  and  N_11
REMARK    4  A    between atoms: N_11  and  C_12
REMARK    5  A    between atoms: C_21  and  O_22
REMARK                            x       y       z     vdW  Elec       q    Type
REMARK                         _______ _______ _______ _____ _____    ______ ____
ROOT
ATOM      1  N   UNL     1       0.713  -0.491   1.192  0.00  0.00    +0.388 N 
ATOM      2  H   UNL     1       0.798  -1.495   1.145  0.00  0.00    -0.084 HD
ATOM      3  H   UNL     1       1.632  -0.076   1.228  0.00  0.00    -0.084 HD
ENDROOT
BRANCH   1   4
ATOM      4  C   UNL     1      -0.040  -0.119   2.398  0.00  0.00    -0.039 C 
ATOM      5  C   UNL     1       0.735  -0.541   3.664  0.00  0.00    -0.006 C 
ATOM      6  C   UNL     1       0.157  -1.943   3.953  0.00  0.00    +0.038 C 
ATOM      7  C   UNL     1      -1.232  -1.931   3.352  0.00  0.00    -0.004 A 
ATOM      8  C   UNL     1      -1.347  -0.881   2.457  0.00  0.00    -0.055 A 
ATOM      9  C   UNL     1      -2.538  -0.672   1.783  0.00  0.00    +0.002 A 
ATOM     10  C   UNL     1      -3.617  -1.508   1.999  0.00  0.00    +0.004 A 
ATOM     11  C   UNL     1      -3.511  -2.558   2.890  0.00  0.00    +0.046 A 
ATOM     12  C   UNL     1      -2.316  -2.772   3.571  0.00  0.00    +0.120 A 
BRANCH  12  13
ATOM     13  O   UNL     1      -2.207  -3.804   4.449  0.00  0.00    -0.506 OA
ATOM     14  H   UNL     1      -2.453  -3.575   5.356  0.00  0.00    +0.292 HD
ENDBRANCH  12  13
ENDBRANCH   1   4
BRANCH   1  16
ATOM     15  C   UNL     1      -0.019   1.526   0.010  0.00  0.00    -0.009 C 
ATOM     16  C   UNL     1       0.002  -0.004   0.002  0.00  0.00    -0.042 C 
BRANCH  16  17
ATOM     17  C   UNL     1       0.707  -0.490  -1.238  0.00  0.00    -0.048 A 
ATOM     18  C   UNL     1       2.024  -0.904  -1.167  0.00  0.00    +0.003 A 
ATOM     19  C   UNL     1       2.671  -1.351  -2.304  0.00  0.00    +0.000 A 
ATOM     20  C   UNL     1       2.002  -1.383  -3.513  0.00  0.00    +0.001 A 
ATOM     21  C   UNL     1       0.685  -0.969  -3.585  0.00  0.00    +0.015 A 
ATOM     22  C   UNL     1       0.036  -0.527  -2.446  0.00  0.00    +0.019 A 
ATOM     23 BR   UNL     1      -1.768   0.033  -2.543  0.00  0.00    -0.050 Br
ENDBRANCH  16  17
ENDBRANCH   1  16
TORSDOF 4
