REMARK  Name = ZINC17076926
REMARK  4 active torsions:
REMARK  status: ('A' for Active; 'I' for Inactive)
REMARK    1  A    between atoms: C_5  and  C_7
REMARK    2  A    between atoms: N_9  and  C_10
REMARK    3  A    between atoms: C_10  and  N_12
REMARK    4  A    between atoms: C_18  and  N_22
REMARK                            x       y       z     vdW  Elec       q    Type
REMARK                         _______ _______ _______ _____ _____    ______ ____
ROOT
ATOM      1  N   UNL     1      -1.033  -4.898  -0.015  0.00  0.00    -0.276 N 
ATOM      2  C   UNL     1      -1.007  -6.282  -0.024  0.00  0.00    +0.165 A 
ATOM      3  N   UNL     1       0.031  -7.086  -0.032  0.00  0.00    -0.225 NA
ATOM      4  C   UNL     1      -0.093  -8.431  -0.039  0.00  0.00    +0.080 A 
ATOM      5  C   UNL     1       0.934  -9.403  -0.049  0.00  0.00    +0.031 A 
ATOM      6  C   UNL     1       0.634 -10.740  -0.055  0.00  0.00    +0.035 A 
ATOM      7  C   UNL     1      -0.679 -11.188  -0.052  0.00  0.00    +0.127 A 
ATOM      8  C   UNL     1      -1.710 -10.265  -0.042  0.00  0.00    +0.050 A 
ATOM      9  C   UNL     1      -1.418  -8.924  -0.036  0.00  0.00    +0.043 A 
ATOM     10  S   UNL     1      -2.378  -7.429  -0.017  0.00  0.00    -0.052 S 
ATOM     11  H   UNL     1      -1.882  -4.429  -0.004  0.00  0.00    +0.156 HD
ENDROOT
BRANCH   7  12
ATOM     12  N   UNL     1      -0.975 -12.638  -0.059  0.00  0.00    +0.056 N 
ATOM     13  O   UNL     1      -0.069 -13.439  -0.068  0.00  0.00    -0.126 OA
ATOM     14  O   UNL     1      -2.121 -13.022  -0.056  0.00  0.00    -0.126 OA
ENDBRANCH   7  12
BRANCH   1  15
ATOM     15  C   UNL     1       0.121  -4.202  -0.023  0.00  0.00    +0.143 C 
ATOM     16  S   UNL     1       1.620  -5.030  -0.042  0.00  0.00    -0.018 S 
BRANCH  15  19
ATOM     17  C   UNL     1       1.250  -2.159  -0.022  0.00  0.00    +0.252 C 
ATOM     18  O   UNL     1       2.314  -2.747  -0.036  0.00  0.00    -0.270 OA
ATOM     19  N   UNL     1       0.096  -2.855  -0.015  0.00  0.00    -0.263 N 
ATOM     20  H   UNL     1      -0.753  -2.386  -0.004  0.00  0.00    +0.157 HD
BRANCH  17  25
ATOM     21  C   UNL     1      -0.017   1.374   0.010  0.00  0.00    +0.001 A 
ATOM     22  C   UNL     1       1.170   2.087   0.002  0.00  0.00    +0.003 A 
ATOM     23  C   UNL     1       2.383   1.425  -0.013  0.00  0.00    +0.039 A 
ATOM     24  C   UNL     1       2.418   0.042  -0.021  0.00  0.00    +0.135 A 
ATOM     25  C   UNL     1       1.223  -0.683  -0.013  0.00  0.00    +0.072 A 
ATOM     26  C   UNL     1       0.002  -0.004   0.002  0.00  0.00    +0.016 A 
ATOM     27  F   UNL     1       3.604  -0.605  -0.036  0.00  0.00    -0.205 F 
ENDBRANCH  17  25
ENDBRANCH  15  19
ENDBRANCH   1  15
TORSDOF 4
