REMARK  Name = ZINC66253580
REMARK  4 active torsions:
REMARK  status: ('A' for Active; 'I' for Inactive)
REMARK    1  A    between atoms: C_4  and  C_7
REMARK    2  A    between atoms: C_10  and  N_12
REMARK    3  A    between atoms: N_12  and  S_13
REMARK    4  A    between atoms: S_13  and  C_16
REMARK                            x       y       z     vdW  Elec       q    Type
REMARK                         _______ _______ _______ _____ _____    ______ ____
ROOT
ATOM      1  S   UNL     1       8.139  -3.269  -0.100  0.00  0.00    +0.096 S 
ATOM      2  O   UNL     1       7.780  -3.858   1.142  0.00  0.00    -0.148 OA
ATOM      3  O   UNL     1       7.760  -3.832  -1.349  0.00  0.00    -0.148 OA
ENDROOT
BRANCH   1   4
ATOM      4  C   UNL     1       9.898  -3.154  -0.113  0.00  0.00    +0.137 A 
ATOM      5  C   UNL     1      10.733  -3.572   0.851  0.00  0.00    +0.114 A 
ATOM      6  N   UNL     1      12.028  -3.316   0.488  0.00  0.00    -0.344 N 
ATOM      7  H   UNL     1      12.809  -3.529   1.024  0.00  0.00    +0.167 HD
ATOM      8  C   UNL     1      12.061  -2.713  -0.746  0.00  0.00    +0.140 A 
ATOM      9  C   UNL     1      10.727  -2.591  -1.180  0.00  0.00    +0.045 A 
ATOM     10  C   UNL     1      10.458  -2.010  -2.421  0.00  0.00    +0.015 A 
ATOM     11  C   UNL     1      11.529  -1.578  -3.182  0.00  0.00    +0.020 A 
ATOM     12  C   UNL     1      12.817  -1.733  -2.694  0.00  0.00    +0.113 A 
ATOM     13  N   UNL     1      13.048  -2.276  -1.517  0.00  0.00    -0.237 NA
ENDBRANCH   1   4
BRANCH   1  14
ATOM     14  N   UNL     1       7.548  -1.722  -0.080  0.00  0.00    -0.070 NA
BRANCH  14  18
ATOM     15  C   UNL     1       3.695  -0.684  -0.038  0.00  0.00    +0.041 A 
ATOM     16  C   UNL     1       3.946  -2.030  -0.054  0.00  0.00    +0.129 A 
ATOM     17  N   UNL     1       5.211  -2.396  -0.067  0.00  0.00    -0.230 NA
ATOM     18  C   UNL     1       6.181  -1.504  -0.066  0.00  0.00    +0.202 A 
ATOM     19  S   UNL     1       5.359  -0.036  -0.052  0.00  0.00    -0.049 S 
BRANCH  15  23
ATOM     20  C   UNL     1      -0.017   1.379   0.010  0.00  0.00    +0.000 A 
ATOM     21  C   UNL     1       1.168   2.094   0.002  0.00  0.00    +0.001 A 
ATOM     22  C   UNL     1       2.377   1.430  -0.013  0.00  0.00    +0.009 A 
ATOM     23  C   UNL     1       2.404   0.034  -0.021  0.00  0.00    -0.010 A 
ATOM     24  C   UNL     1       1.204  -0.681  -0.013  0.00  0.00    +0.009 A 
ATOM     25  C   UNL     1       0.002  -0.004   0.002  0.00  0.00    +0.001 A 
ENDBRANCH  15  23
ENDBRANCH  14  18
ENDBRANCH   1  14
TORSDOF 4
