REMARK  Name = ZINC39636623
REMARK  11 active torsions:
REMARK  status: ('A' for Active; 'I' for Inactive)
REMARK    1  A    between atoms: C_1  and  C_2
REMARK    2  A    between atoms: C_5  and  C_35
REMARK    3  A    between atoms: C_6  and  C_8
REMARK    4  A    between atoms: C_8  and  N_9
REMARK    5  A    between atoms: C_10  and  C_12
REMARK    6  A    between atoms: C_23  and  C_25
REMARK    7  A    between atoms: C_27  and  C_34
REMARK    8  A    between atoms: N_29  and  C_30
REMARK    9  A    between atoms: C_30  and  C_31
REMARK   10  A    between atoms: C_30  and  C_32
REMARK   11  A    between atoms: C_30  and  C_33
REMARK                            x       y       z     vdW  Elec       q    Type
REMARK                         _______ _______ _______ _____ _____    ______ ____
ROOT
ATOM      1  C   UNL     1       3.391  -4.298   4.437  0.00  0.00    +0.100 C 
ATOM      2  C   UNL     1       3.780  -5.075   3.159  0.00  0.00    +0.121 C 
ATOM      3  N   UNL     1       4.537  -6.250   3.651  0.00  0.00    -0.295 N 
ATOM      4  C   UNL     1       3.811  -6.671   4.873  0.00  0.00    +0.115 C 
ATOM      5  C   UNL     1       3.412  -5.349   5.559  0.00  0.00    -0.004 C 
ATOM      6  C   UNL     1       4.444  -4.972   6.618  0.00  0.00    -0.010 C 
ATOM      7  C   UNL     1       4.407  -6.001   7.751  0.00  0.00    -0.082 C 
ATOM      8  N   UNL     1       3.062  -6.034   8.339  0.00  0.00    +0.379 N 
ATOM      9  C   UNL     1       2.088  -6.488   7.339  0.00  0.00    -0.082 C 
ATOM     10  C   UNL     1       2.028  -5.479   6.188  0.00  0.00    -0.010 C 
ATOM     11  C   UNL     1       5.637  -6.810   3.109  0.00  0.00    +0.265 C 
ATOM     12  O   UNL     1       6.153  -7.775   3.641  0.00  0.00    -0.268 OA
ATOM     13  H   UNL     1       3.056  -6.668   9.124  0.00  0.00    -0.086 HD
ATOM     14  H   UNL     1       2.812  -5.109   8.655  0.00  0.00    -0.086 HD
ENDROOT
BRANCH  11  15
ATOM     15  C   UNL     1       6.214  -6.254   1.875  0.00  0.00    +0.124 A 
ATOM     16  C   UNL     1       5.639  -5.311   1.041  0.00  0.00    +0.057 A 
ATOM     17  C   UNL     1       6.565  -5.112   0.014  0.00  0.00    +0.061 A 
ATOM     18  N   UNL     1       7.594  -5.886   0.246  0.00  0.00    -0.175 NA
ATOM     19  N   UNL     1       7.426  -6.562   1.325  0.00  0.00    -0.254 N 
ATOM     20  C   UNL     1       6.407  -4.172  -1.153  0.00  0.00    +0.067 C 
BRANCH  19  21
ATOM     21  C   UNL     1       8.385  -7.520   1.879  0.00  0.00    +0.056 C 
ATOM     22  C   UNL     1       7.772  -8.922   1.867  0.00  0.00    +0.036 C 
ATOM     23  C   UNL     1       9.660  -7.513   1.033  0.00  0.00    +0.036 C 
ATOM     24  C   UNL     1       8.726  -7.126   3.318  0.00  0.00    +0.036 C 
ENDBRANCH  19  21
ENDBRANCH  11  15
BRANCH   1  26
ATOM     25  N   UNL     1       1.699  -2.561   4.926  0.00  0.00    -0.311 N 
ATOM     26  C   UNL     1       2.011  -3.711   4.294  0.00  0.00    +0.218 C 
ATOM     27  O   UNL     1       1.181  -4.272   3.611  0.00  0.00    -0.275 OA
ATOM     28  H   UNL     1       2.338  -2.151   5.529  0.00  0.00    +0.149 HD
BRANCH  25  29
ATOM     29  C   UNL     1       0.396  -1.932   4.700  0.00  0.00    +0.139 C 
BRANCH  29  35
ATOM     30  C   UNL     1      -1.231   0.481   8.772  0.00  0.00    +0.044 C 
ATOM     31  C   UNL     1      -0.480   0.485   7.465  0.00  0.00    -0.050 A 
ATOM     32  C   UNL     1       0.121   1.647   7.016  0.00  0.00    +0.003 A 
ATOM     33  C   UNL     1       0.810   1.650   5.818  0.00  0.00    +0.004 A 
ATOM     34  C   UNL     1       0.899   0.492   5.069  0.00  0.00    -0.046 A 
ATOM     35  C   UNL     1       0.299  -0.670   5.518  0.00  0.00    -0.027 A 
ATOM     36  C   UNL     1      -0.386  -0.674   6.718  0.00  0.00    +0.008 A 
ATOM     37  C   UNL     1       1.649   0.496   3.762  0.00  0.00    +0.044 C 
ENDBRANCH  29  35
ENDBRANCH  25  29
ENDBRANCH   1  26
TORSDOF 5
