REMARK  Name = ZINC10274413
REMARK  2 active torsions:
REMARK  status: ('A' for Active; 'I' for Inactive)
REMARK    1  A    between atoms: N_13  and  C_14
REMARK    2  A    between atoms: C_19  and  C_20
REMARK                            x       y       z     vdW  Elec       q    Type
REMARK                         _______ _______ _______ _____ _____    ______ ____
ROOT
ATOM      1  C   UNL     1       2.580  -2.648  -0.776  0.00  0.00    +0.001 A 
ATOM      2  C   UNL     1       3.714  -1.864  -0.935  0.00  0.00    +0.002 A 
ATOM      3  C   UNL     1       3.638  -0.490  -0.843  0.00  0.00    +0.026 A 
ATOM      4  C   UNL     1       2.416   0.116  -0.588  0.00  0.00    +0.052 A 
ATOM      5  C   UNL     1       1.265  -0.678  -0.426  0.00  0.00    +0.038 A 
ATOM      6  C   UNL     1       1.357  -2.066  -0.522  0.00  0.00    +0.013 A 
ATOM      7  C   UNL     1      -0.012  -0.001  -0.158  0.00  0.00    +0.135 A 
ATOM      8  N   UNL     1      -0.021   1.321  -0.081  0.00  0.00    -0.207 NA
ATOM      9  C   UNL     1       1.088   2.041  -0.239  0.00  0.00    +0.179 A 
ATOM     10  S   UNL     1       0.979   3.746  -0.124  0.00  0.00    -0.011 S 
ATOM     11  N   UNL     1       2.289   1.489  -0.487  0.00  0.00    -0.333 N 
ATOM     12  H   UNL     1       3.068   2.056  -0.595  0.00  0.00    +0.168 HD
ATOM     13  N   UNL     1      -1.167  -0.722   0.010  0.00  0.00    -0.298 N 
ATOM     14  H   UNL     1      -1.133  -1.691   0.044  0.00  0.00    +0.154 HD
ENDROOT
BRANCH  13  15
ATOM     15  C   UNL     1      -2.393  -0.060   0.131  0.00  0.00    +0.044 A 
ATOM     16  C   UNL     1      -2.571   1.188  -0.452  0.00  0.00    +0.024 A 
ATOM     17  C   UNL     1      -3.784   1.836  -0.335  0.00  0.00    +0.002 A 
ATOM     18  C   UNL     1      -4.818   1.249   0.371  0.00  0.00    +0.001 A 
ATOM     19  C   UNL     1      -4.643   0.009   0.957  0.00  0.00    +0.014 A 
ATOM     20  C   UNL     1      -3.433  -0.647   0.839  0.00  0.00    +0.076 A 
BRANCH  20  21
ATOM     21  C   UNL     1      -3.243  -1.998   1.479  0.00  0.00    +0.419 C 
ATOM     22  F   UNL     1      -4.422  -2.376   2.131  0.00  0.00    -0.166 F 
ATOM     23  F   UNL     1      -2.931  -2.941   0.494  0.00  0.00    -0.166 F 
ATOM     24  F   UNL     1      -2.198  -1.931   2.407  0.00  0.00    -0.166 F 
ENDBRANCH  20  21
ENDBRANCH  13  15
TORSDOF 2
