REMARK  Name = ZINC04773781
REMARK  13 active torsions:
REMARK  status: ('A' for Active; 'I' for Inactive)
REMARK    1  A    between atoms: C_1  and  C_2
REMARK    2  A    between atoms: C_2  and  N_63
REMARK    3  A    between atoms: C_3  and  C_4
REMARK    4  A    between atoms: C_3  and  N_63
REMARK    5  A    between atoms: C_5  and  C_6
REMARK    6  A    between atoms: C_5  and  N_63
REMARK    7  A    between atoms: C_6  and  C_7
REMARK    8  A    between atoms: C_7  and  C_8
REMARK    9  A    between atoms: C_8  and  C_10
REMARK   10  A    between atoms: C_8  and  N_11
REMARK   11  A    between atoms: N_11  and  C_12
REMARK   12  A    between atoms: C_22  and  O_31
REMARK   13  A    between atoms: C_29  and  O_30
REMARK                            x       y       z     vdW  Elec       q    Type
REMARK                         _______ _______ _______ _____ _____    ______ ____
ROOT
ATOM      1  C   UNL     1       2.404   1.480  -0.797  0.00  0.00    +0.039 A 
ATOM      2  C   UNL     1       3.773   1.597  -1.020  0.00  0.00    +0.024 A 
ATOM      3  C   UNL     1       4.334   2.830  -1.284  0.00  0.00    +0.003 A 
ATOM      4  C   UNL     1       3.546   3.967  -1.331  0.00  0.00    +0.012 A 
ATOM      5  C   UNL     1       2.175   3.876  -1.113  0.00  0.00    +0.035 A 
ATOM      6  C   UNL     1       1.593   2.621  -0.849  0.00  0.00    +0.054 A 
ATOM      7  C   UNL     1       0.142   2.509  -0.610  0.00  0.00    +0.200 C 
ATOM      8  O   UNL     1      -0.328   1.493  -0.132  0.00  0.00    -0.286 OA
ATOM      9  C   UNL     1      -0.731   3.639  -0.960  0.00  0.00    +0.079 A 
ATOM     10  C   UNL     1      -0.128   4.946  -1.241  0.00  0.00    +0.079 A 
ATOM     11  C   UNL     1      -0.936   6.023  -1.574  0.00  0.00    +0.136 A 
ATOM     12  C   UNL     1      -2.341   5.852  -1.642  0.00  0.00    +0.028 A 
ATOM     13  C   UNL     1      -3.169   6.932  -1.981  0.00  0.00    +0.012 A 
ATOM     14  C   UNL     1      -4.521   6.757  -2.045  0.00  0.00    +0.001 A 
ATOM     15  C   UNL     1      -5.093   5.518  -1.778  0.00  0.00    +0.001 A 
ATOM     16  C   UNL     1      -4.316   4.447  -1.446  0.00  0.00    +0.012 A 
ATOM     17  C   UNL     1      -2.922   4.591  -1.371  0.00  0.00    +0.028 A 
ATOM     18  C   UNL     1      -2.107   3.484  -1.028  0.00  0.00    +0.136 A 
ATOM     19  C   UNL     1       1.333   5.090  -1.164  0.00  0.00    +0.198 C 
ATOM     20  O   UNL     1       1.843   6.195  -1.143  0.00  0.00    -0.286 OA
ENDROOT
BRANCH   1  21
ATOM     21  N   UNL     1       1.844   0.238  -0.531  0.00  0.00    -0.341 N 
ATOM     22  H   UNL     1       0.902   0.168  -0.310  0.00  0.00    +0.146 HD
BRANCH  21  23
ATOM     23  C   UNL     1       2.676  -0.967  -0.585  0.00  0.00    +0.067 C 
ATOM     24  C   UNL     1       3.381  -1.160   0.759  0.00  0.00    +0.028 C 
BRANCH  23  25
ATOM     25  C   UNL     1       1.795  -2.183  -0.878  0.00  0.00    +0.020 C 
BRANCH  25  26
ATOM     26  C   UNL     1       1.188  -2.048  -2.276  0.00  0.00    -0.017 C 
BRANCH  26  27
ATOM     27  C   UNL     1       0.307  -3.263  -2.569  0.00  0.00    -0.079 C 
BRANCH  27  28
ATOM     28  N   UNL     1      -0.288  -3.108  -3.913  0.00  0.00    +0.379 N 
ATOM     29  H   UNL     1      -0.737  -2.186  -3.975  0.00  0.00    -0.082 HD
BRANCH  28  31
ATOM     30  C   UNL     1       1.540  -4.511  -4.806  0.00  0.00    -0.017 C 
ATOM     31  C   UNL     1       0.765  -3.199  -4.946  0.00  0.00    -0.082 C 
ENDBRANCH  28  31
BRANCH  28  32
ATOM     32  C   UNL     1      -1.308  -4.154  -4.138  0.00  0.00    -0.082 C 
ATOM     33  C   UNL     1      -2.146  -3.769  -5.359  0.00  0.00    -0.017 C 
ENDBRANCH  28  32
ENDBRANCH  27  28
ENDBRANCH  26  27
ENDBRANCH  25  26
ENDBRANCH  23  25
ENDBRANCH  21  23
ENDBRANCH   1  21
BRANCH  18  34
ATOM     34  O   UNL     1      -2.670   2.280  -0.769  0.00  0.00    -0.505 OA
ATOM     35  H   UNL     1      -2.766   1.715  -1.547  0.00  0.00    +0.292 HD
ENDBRANCH  18  34
BRANCH  11  36
ATOM     36  O   UNL     1      -0.386   7.232  -1.833  0.00  0.00    -0.505 OA
ATOM     37  H   UNL     1      -0.158   7.370  -2.763  0.00  0.00    +0.292 HD
ENDBRANCH  11  36
TORSDOF 10
