REMARK  Name = ZINC39456285
REMARK  6 active torsions:
REMARK  status: ('A' for Active; 'I' for Inactive)
REMARK    1  A    between atoms: C_1  and  C_2
REMARK    2  A    between atoms: C_2  and  C_3
REMARK    3  A    between atoms: C_2  and  S_4
REMARK    4  A    between atoms: S_4  and  C_7
REMARK    5  A    between atoms: N_27  and  O_28
REMARK    6  A    between atoms: O_28  and  C_29
REMARK                            x       y       z     vdW  Elec       q    Type
REMARK                         _______ _______ _______ _____ _____    ______ ____
ROOT
ATOM      1  C   UNL     1       2.506   0.133  -1.319  0.00  0.00    +0.222 C 
ATOM      2  C   UNL     1       3.377  -0.281  -2.511  0.00  0.00    +0.127 C 
ATOM      3  C   UNL     1       3.662  -1.758  -2.432  0.00  0.00    +0.188 C 
ATOM      4  O   UNL     1       3.836  -2.392  -3.453  0.00  0.00    -0.290 OA
ATOM      5  C   UNL     1       3.728  -2.413  -1.181  0.00  0.00    +0.150 A 
ATOM      6  C   UNL     1       3.472  -1.707  -0.022  0.00  0.00    +0.086 A 
ATOM      7  C   UNL     1       3.546  -2.386   1.283  0.00  0.00    +0.100 A 
ATOM      8  C   UNL     1       3.876  -3.768   1.297  0.00  0.00    +0.070 A 
ATOM      9  C   UNL     1       3.957  -4.456   2.498  0.00  0.00    +0.026 A 
ATOM     10  C   UNL     1       3.703  -3.742   3.679  0.00  0.00    +0.015 A 
ATOM     11  C   UNL     1       3.370  -2.318   3.589  0.00  0.00    +0.073 A 
ATOM     12  N   UNL     1       3.311  -1.722   2.399  0.00  0.00    -0.245 NA
ATOM     13  C   UNL     1       3.118  -1.611   4.779  0.00  0.00    +0.028 A 
ATOM     14  C   UNL     1       3.188  -2.259   5.973  0.00  0.00    +0.003 A 
ATOM     15  C   UNL     1       3.503  -3.612   6.057  0.00  0.00    +0.016 A 
ATOM     16  C   UNL     1       3.758  -4.354   4.943  0.00  0.00    +0.027 A 
ATOM     17 BR   UNL     1       4.183  -6.190   5.097  0.00  0.00    -0.050 Br
ATOM     18  C   UNL     1       4.128  -4.449   0.017  0.00  0.00    +0.293 A 
ATOM     19  O   UNL     1       4.411  -5.633   0.004  0.00  0.00    -0.264 OA
ATOM     20  N   UNL     1       4.045  -3.767  -1.139  0.00  0.00    -0.139 N 
ATOM     21  N   UNL     1       3.141  -0.367  -0.089  0.00  0.00    -0.319 N 
ATOM     22  H   UNL     1       3.322   0.229   0.654  0.00  0.00    +0.148 HD
ENDROOT
BRANCH   1  23
ATOM     23  S   UNL     1       0.851  -0.589  -1.490  0.00  0.00    -0.010 S 
ATOM     24  O   UNL     1       0.968  -2.003  -1.416  0.00  0.00    -0.172 OA
ATOM     25  O   UNL     1       0.222  -0.006  -2.623  0.00  0.00    -0.172 OA
BRANCH  23  27
ATOM     26  C   UNL     1      -0.019   1.526   0.010  0.00  0.00    +0.031 C 
ATOM     27  C   UNL     1       0.002  -0.004   0.002  0.00  0.00    +0.126 C 
ATOM     28  C   UNL     1      -1.433  -0.534   0.013  0.00  0.00    +0.031 C 
ENDBRANCH  23  27
ENDBRANCH   1  23
BRANCH  20  29
ATOM     29  O   UNL     1       4.289  -4.450  -2.355  0.00  0.00    -0.411 OA
ATOM     30  C   UNL     1       5.657  -4.430  -2.768  0.00  0.00    +0.311 C 
ENDBRANCH  20  29
TORSDOF 3
