REMARK  Name = ZINC13784816
REMARK  6 active torsions:
REMARK  status: ('A' for Active; 'I' for Inactive)
REMARK    1  A    between atoms: C_4  and  C_7
REMARK    2  A    between atoms: N_9  and  C_10
REMARK    3  A    between atoms: C_10  and  C_12
REMARK    4  A    between atoms: C_10  and  C_24
REMARK    5  A    between atoms: N_26  and  N_27
REMARK    6  A    between atoms: C_28  and  C_29
REMARK                            x       y       z     vdW  Elec       q    Type
REMARK                         _______ _______ _______ _____ _____    ______ ____
ROOT
ATOM      1  C   UNL     1       2.361   8.992   0.029  0.00  0.00    +0.212 C 
ENDROOT
BRANCH   1   2
ATOM      2  C   UNL     1       3.218   8.968  -1.210  0.00  0.00    +0.099 A 
ATOM      3  C   UNL     1       4.464   8.200  -1.223  0.00  0.00    +0.013 A 
ATOM      4  C   UNL     1       4.889   7.468  -0.113  0.00  0.00    +0.010 A 
ATOM      5  C   UNL     1       6.057   6.761  -0.176  0.00  0.00    +0.001 A 
ATOM      6  C   UNL     1       6.827   6.756  -1.332  0.00  0.00    +0.001 A 
ATOM      7  C   UNL     1       6.430   7.466  -2.444  0.00  0.00    +0.014 A 
ATOM      8  C   UNL     1       5.242   8.194  -2.403  0.00  0.00    +0.050 A 
ATOM      9  C   UNL     1       4.764   8.969  -3.554  0.00  0.00    +0.272 A 
ATOM     10  O   UNL     1       5.402   8.999  -4.591  0.00  0.00    -0.266 OA
ATOM     11  N   UNL     1       3.604   9.649  -3.442  0.00  0.00    -0.242 N 
ATOM     12  H   UNL     1       3.226  10.237  -4.292  0.00  0.00    +0.192 HD
ATOM     13  N   UNL     1       2.854   9.633  -2.266  0.00  0.00    -0.173 NA
ENDBRANCH   1   2
BRANCH   1  16
ATOM     14  C   UNL     1       2.081  11.359   0.538  0.00  0.00    +0.245 C 
ATOM     15  O   UNL     1       3.216  11.370   0.972  0.00  0.00    -0.270 OA
ATOM     16  N   UNL     1       1.559  10.219   0.044  0.00  0.00    -0.295 N 
ATOM     17  H   UNL     1       0.532  10.209  -0.349  0.00  0.00    +0.150 HD
BRANCH  14  21
ATOM     18  C   UNL     1      -0.243  14.914   0.581  0.00  0.00    +0.000 A 
ATOM     19  C   UNL     1       1.049  14.930   1.075  0.00  0.00    +0.001 A 
ATOM     20  C   UNL     1       1.809  13.778   1.065  0.00  0.00    +0.013 A 
ATOM     21  C   UNL     1       1.272  12.596   0.553  0.00  0.00    +0.037 A 
ATOM     22  C   UNL     1      -0.030  12.588   0.051  0.00  0.00    +0.013 A 
ATOM     23  C   UNL     1      -0.782  13.745   0.072  0.00  0.00    +0.001 A 
ENDBRANCH  14  21
ENDBRANCH   1  16
BRANCH   1  24
ATOM     24  C   UNL     1       1.447   7.794   0.031  0.00  0.00    +0.259 C 
ATOM     25  O   UNL     1       0.243   7.950   0.044  0.00  0.00    -0.272 OA
ATOM     26  N   UNL     1       1.966   6.551   0.019  0.00  0.00    -0.205 N 
ATOM     27  H   UNL     1       3.057   6.410   0.007  0.00  0.00    +0.177 HD
BRANCH  26  28
ATOM     28  N   UNL     1       1.116   5.437   0.021  0.00  0.00    -0.188 NA
ATOM     29  C   UNL     1       1.616   4.238   0.009  0.00  0.00    +0.140 C 
BRANCH  29  30
ATOM     30  C   UNL     1       0.723   3.068   0.012  0.00  0.00    +0.020 A 
ATOM     31  C   UNL     1       1.096   1.760   0.001  0.00  0.00    +0.093 A 
ATOM     32  N   UNL     1      -0.011   0.966   0.007  0.00  0.00    -0.360 N 
ATOM     33  H   UNL     1       0.097  -0.129   0.005  0.00  0.00    +0.165 HD
ATOM     34  C   UNL     1      -1.153   1.738   0.016  0.00  0.00    +0.047 A 
ATOM     35  C   UNL     1      -0.751   3.085   0.026  0.00  0.00    +0.008 A 
ATOM     36  C   UNL     1      -1.706   4.098   0.040  0.00  0.00    +0.010 A 
ATOM     37  C   UNL     1      -3.045   3.774   0.051  0.00  0.00    +0.001 A 
ATOM     38  C   UNL     1      -3.443   2.445   0.048  0.00  0.00    +0.002 A 
ATOM     39  C   UNL     1      -2.510   1.432   0.033  0.00  0.00    +0.026 A 
ENDBRANCH  29  30
ENDBRANCH  26  28
ENDBRANCH   1  24
TORSDOF 6
