REMARK  Name = ZINC12881684
REMARK  6 active torsions:
REMARK  status: ('A' for Active; 'I' for Inactive)
REMARK    1  A    between atoms: C_1  and  C_2
REMARK    2  A    between atoms: C_16  and  C_18
REMARK    3  A    between atoms: C_18  and  C_20
REMARK    4  A    between atoms: C_18  and  O_21
REMARK    5  A    between atoms: N_24  and  C_27
REMARK    6  A    between atoms: C_27  and  C_28
REMARK                            x       y       z     vdW  Elec       q    Type
REMARK                         _______ _______ _______ _____ _____    ______ ____
ROOT
ATOM      1  C   UNL     1       2.486   1.037  -0.015  0.00  0.00    +0.045 C 
ATOM      2  C   UNL     1       1.175   1.778   0.000  0.00  0.00    -0.029 A 
ATOM      3  C   UNL     1      -0.013   1.076   0.008  0.00  0.00    +0.005 A 
ATOM      4  C   UNL     1      -1.221   1.747   0.017  0.00  0.00    +0.001 A 
ATOM      5  C   UNL     1      -1.240   3.131   0.030  0.00  0.00    +0.004 A 
ATOM      6  C   UNL     1      -0.058   3.836   0.023  0.00  0.00    -0.027 A 
ATOM      7  C   UNL     1       1.165   3.171   0.007  0.00  0.00    +0.039 A 
ATOM      8  N   UNL     1       2.215   4.091   0.000  0.00  0.00    -0.286 N 
ATOM      9  C   UNL     1       1.775   5.364   0.008  0.00  0.00    +0.211 C 
ATOM     10  O   UNL     1       2.458   6.367   0.001  0.00  0.00    -0.277 OA
ATOM     11  C   UNL     1       0.273   5.302   0.026  0.00  0.00    +0.050 C 
ATOM     12  C   UNL     1      -0.335   6.018  -1.185  0.00  0.00    +0.088 C 
ATOM     13  C   UNL     1      -0.740   7.420  -0.650  0.00  0.00    +0.075 C 
ATOM     14  C   UNL     1      -0.311   7.415   0.833  0.00  0.00    -0.028 C 
ATOM     15  C   UNL     1       0.159   8.360  -1.423  0.00  0.00    +0.224 C 
ATOM     16  O   UNL     1       0.170   9.567  -1.312  0.00  0.00    -0.275 OA
ATOM     17  N   UNL     1       0.940   7.652  -2.246  0.00  0.00    -0.237 N 
ATOM     18  C   UNL     1       0.748   6.329  -2.193  0.00  0.00    +0.225 C 
ATOM     19  O   UNL     1       1.349   5.507  -2.851  0.00  0.00    -0.275 OA
ATOM     20  H   UNL     1       3.153   3.843  -0.009  0.00  0.00    +0.155 HD
ATOM     21  N   UNL     1      -0.268   5.994   1.183  0.00  0.00    +0.396 N 
ATOM     22  H   UNL     1       0.338   5.848   1.999  0.00  0.00    -0.083 HD
ATOM     23  H   UNL     1      -1.213   5.651   1.393  0.00  0.00    -0.083 HD
ENDROOT
BRANCH  14  24
ATOM     24  C   UNL     1      -1.334   8.170   1.685  0.00  0.00    +0.098 C 
ATOM     25  C   UNL     1      -0.891   8.152   3.149  0.00  0.00    +0.036 C 
BRANCH  24  26
ATOM     26  O   UNL     1      -2.611   7.538   1.567  0.00  0.00    -0.394 OA
ATOM     27  H   UNL     1      -3.310   7.964   2.082  0.00  0.00    +0.210 HD
ENDBRANCH  24  26
ENDBRANCH  14  24
BRANCH  17  28
ATOM     28  C   UNL     1       1.925   8.275  -3.134  0.00  0.00    +0.151 C 
BRANCH  28  29
ATOM     29  C   UNL     1       1.280   8.590  -4.459  0.00  0.00    -0.026 A 
ATOM     30  C   UNL     1       0.670   9.815  -4.655  0.00  0.00    +0.009 A 
ATOM     31  C   UNL     1       0.077  10.109  -5.869  0.00  0.00    +0.050 A 
ATOM     32  C   UNL     1       0.092   9.175  -6.892  0.00  0.00    +0.166 A 
ATOM     33  C   UNL     1       0.706   7.940  -6.694  0.00  0.00    +0.167 A 
ATOM     34  C   UNL     1       1.303   7.655  -5.477  0.00  0.00    +0.054 A 
ATOM     35  O   UNL     1       0.587   7.205  -7.838  0.00  0.00    -0.453 OA
ATOM     36  C   UNL     1      -0.458   7.842  -8.597  0.00  0.00    +0.466 C 
ATOM     37  O   UNL     1      -0.411   9.213  -8.160  0.00  0.00    -0.453 OA
ENDBRANCH  28  29
ENDBRANCH  17  28
TORSDOF 4
