REMARK  Name = ZINC09910297
REMARK  8 active torsions:
REMARK  status: ('A' for Active; 'I' for Inactive)
REMARK    1  A    between atoms: C_4  and  C_7
REMARK    2  A    between atoms: C_7  and  N_8
REMARK    3  A    between atoms: C_9  and  N_35
REMARK    4  A    between atoms: C_10  and  N_17
REMARK    5  A    between atoms: N_17  and  C_18
REMARK    6  A    between atoms: C_18  and  C_19
REMARK    7  A    between atoms: C_24  and  C_26
REMARK    8  A    between atoms: C_27  and  C_28
REMARK                            x       y       z     vdW  Elec       q    Type
REMARK                         _______ _______ _______ _____ _____    ______ ____
ROOT
ATOM      1  N   UNL     1      -0.610   1.824   0.581  0.00  0.00    -0.276 N 
ATOM      2  C   UNL     1       0.650   2.340   0.776  0.00  0.00    +0.128 A 
ATOM      3  C   UNL     1       1.208   3.140  -0.200  0.00  0.00    +0.140 A 
ATOM      4  C   UNL     1       0.468   3.404  -1.368  0.00  0.00    +0.277 A 
ATOM      5  O   UNL     1       0.938   4.108  -2.246  0.00  0.00    -0.266 OA
ATOM      6  N   UNL     1      -0.762   2.874  -1.509  0.00  0.00    -0.273 N 
ATOM      7  H   UNL     1      -1.287   3.057  -2.340  0.00  0.00    +0.173 HD
ATOM      8  C   UNL     1      -1.293   2.100  -0.545  0.00  0.00    +0.331 A 
ATOM      9  O   UNL     1      -2.408   1.639  -0.696  0.00  0.00    -0.246 OA
ENDROOT
BRANCH   3  10
ATOM     10  N   UNL     1       2.498   3.684  -0.030  0.00  0.00    -0.253 N 
ATOM     11  C   UNL     1       2.657   5.018   0.087  0.00  0.00    +0.244 C 
ATOM     12  O   UNL     1       1.681   5.744   0.141  0.00  0.00    -0.270 OA
BRANCH  11  13
ATOM     13  C   UNL     1       4.001   5.592   0.148  0.00  0.00    +0.068 C 
ATOM     14  C   UNL     1       4.160   6.926   0.264  0.00  0.00    +0.013 C 
BRANCH  14  15
ATOM     15  C   UNL     1       5.512   7.503   0.326  0.00  0.00    -0.025 A 
ATOM     16  C   UNL     1       6.635   6.671   0.269  0.00  0.00    +0.011 A 
ATOM     17  C   UNL     1       7.898   7.218   0.321  0.00  0.00    +0.039 A 
ATOM     18  C   UNL     1       8.058   8.591   0.441  0.00  0.00    +0.123 A 
ATOM     19  C   UNL     1       6.949   9.421   0.503  0.00  0.00    +0.039 A 
ATOM     20  C   UNL     1       5.680   8.887   0.446  0.00  0.00    +0.011 A 
ATOM     21  F   UNL     1       9.299   9.121   0.498  0.00  0.00    -0.205 F 
ENDBRANCH  14  15
ENDBRANCH  11  13
BRANCH  10  22
ATOM     22  C   UNL     1       3.665   2.800   0.021  0.00  0.00    +0.188 C 
BRANCH  22  23
ATOM     23  C   UNL     1       4.155   2.535  -1.379  0.00  0.00    +0.122 A 
ATOM     24  C   UNL     1       5.067   3.266  -2.046  0.00  0.00    +0.046 A 
ATOM     25  C   UNL     1       5.226   2.665  -3.316  0.00  0.00    +0.041 A 
ATOM     26  C   UNL     1       4.402   1.602  -3.349  0.00  0.00    +0.195 A 
ATOM     27  O   UNL     1       3.760   1.525  -2.172  0.00  0.00    -0.466 OA
ENDBRANCH  22  23
ENDBRANCH  10  22
ENDBRANCH   3  10
BRANCH   2  28
ATOM     28  N   UNL     1       1.345   2.061   1.928  0.00  0.00    -0.343 N 
ATOM     29  H   UNL     1       2.241   2.410   2.051  0.00  0.00    +0.144 HD
ATOM     30  H   UNL     1       0.938   1.515   2.620  0.00  0.00    +0.144 HD
ENDBRANCH   2  28
BRANCH   1  31
ATOM     31  C   UNL     1      -1.216   0.973   1.608  0.00  0.00    +0.163 C 
BRANCH  31  35
ATOM     32  C   UNL     1      -3.407   3.398   4.358  0.00  0.00    +0.000 A 
ATOM     33  C   UNL     1      -4.033   2.887   3.237  0.00  0.00    +0.000 A 
ATOM     34  C   UNL     1      -3.324   2.102   2.347  0.00  0.00    +0.005 A 
ATOM     35  C   UNL     1      -1.989   1.828   2.578  0.00  0.00    -0.028 A 
ATOM     36  C   UNL     1      -1.364   2.335   3.702  0.00  0.00    +0.005 A 
ATOM     37  C   UNL     1      -2.072   3.124   4.590  0.00  0.00    +0.000 A 
ENDBRANCH  31  35
ENDBRANCH   1  31
TORSDOF 8
