REMARK  Name = ZINC12972037
REMARK  9 active torsions:
REMARK  status: ('A' for Active; 'I' for Inactive)
REMARK    1  A    between atoms: C_1  and  C_2
REMARK    2  A    between atoms: C_2  and  C_3
REMARK    3  A    between atoms: C_6  and  C_28
REMARK    4  A    between atoms: C_12  and  C_15
REMARK    5  A    between atoms: C_13  and  O_14
REMARK    6  A    between atoms: C_15  and  N_54
REMARK    7  A    between atoms: C_16  and  N_54
REMARK    8  A    between atoms: C_17  and  C_18
REMARK    9  A    between atoms: C_17  and  N_54
REMARK                            x       y       z     vdW  Elec       q    Type
REMARK                         _______ _______ _______ _____ _____    ______ ____
ROOT
ATOM      1  C   UNL     1       5.076  -3.780  -4.778  0.00  0.00    -0.005 A 
ATOM      2  C   UNL     1       5.909  -3.058  -5.583  0.00  0.00    +0.019 A 
ATOM      3  C   UNL     1       6.556  -1.925  -5.077  0.00  0.00    +0.021 A 
ATOM      4  C   UNL     1       7.455  -1.131  -5.918  0.00  0.00    -0.033 A 
ATOM      5  C   UNL     1       8.053  -0.042  -5.368  0.00  0.00    +0.096 A 
ATOM      6  C   UNL     1       7.798   0.294  -4.023  0.00  0.00    +0.337 A 
ATOM      7  O   UNL     1       8.341   1.273  -3.542  0.00  0.00    -0.245 OA
ATOM      8  O   UNL     1       6.973  -0.438  -3.257  0.00  0.00    -0.422 OA
ATOM      9  C   UNL     1       6.346  -1.532  -3.742  0.00  0.00    +0.144 A 
ATOM     10  C   UNL     1       5.497  -2.276  -2.938  0.00  0.00    +0.021 A 
ATOM     11  C   UNL     1       4.869  -3.398  -3.454  0.00  0.00    +0.125 A 
ATOM     12  C   UNL     1       7.710  -1.513  -7.353  0.00  0.00    +0.045 C 
ENDROOT
BRANCH   1  14
ATOM     13  C   UNL     1       2.982  -4.615  -5.809  0.00  0.00    +0.009 C 
ATOM     14  C   UNL     1       4.380  -5.000  -5.323  0.00  0.00    +0.035 C 
ENDBRANCH   1  14
BRANCH  11  15
ATOM     15  O   UNL     1       4.042  -4.129  -2.664  0.00  0.00    -0.506 OA
ATOM     16  H   UNL     1       3.119  -3.842  -2.689  0.00  0.00    +0.292 HD
ENDBRANCH  11  15
BRANCH  10  17
ATOM     17  C   UNL     1       5.262  -1.869  -1.506  0.00  0.00    -0.035 C 
BRANCH  17  19
ATOM     18  C   UNL     1       4.421   0.318  -2.118  0.00  0.00    -0.095 C 
ATOM     19  N   UNL     1       4.096  -0.962  -1.454  0.00  0.00    +0.383 N 
ATOM     20  H   UNL     1       3.309  -1.402  -1.944  0.00  0.00    -0.081 HD
BRANCH  19  21
ATOM     21  C   UNL     1       3.709  -0.717  -0.048  0.00  0.00    -0.043 C 
BRANCH  21  22
ATOM     22  C   UNL     1       2.397   0.024  -0.027  0.00  0.00    -0.060 A 
ATOM     23  C   UNL     1       1.207  -0.680  -0.016  0.00  0.00    +0.005 A 
ATOM     24  C   UNL     1       0.002  -0.004   0.002  0.00  0.00    +0.049 A 
ATOM     25  C   UNL     1      -0.017   1.383   0.010  0.00  0.00    +0.162 A 
ATOM     26  C   UNL     1       1.179   2.090   0.002  0.00  0.00    +0.162 A 
ATOM     27  C   UNL     1       2.385   1.406  -0.018  0.00  0.00    +0.051 A 
ATOM     28  O   UNL     1       1.184   3.451   0.018  0.00  0.00    -0.485 OA
ATOM     29  C   UNL     1      -0.040   4.103  -0.340  0.00  0.00    +0.270 C 
ATOM     30  C   UNL     1      -1.189   3.413   0.408  0.00  0.00    +0.270 C 
ATOM     31  O   UNL     1      -1.212   2.035   0.019  0.00  0.00    -0.485 OA
ENDBRANCH  21  22
ENDBRANCH  19  21
ENDBRANCH  17  19
ENDBRANCH  10  17
TORSDOF 6
