REMARK  Name = ZINC39664779
REMARK  13 active torsions:
REMARK  status: ('A' for Active; 'I' for Inactive)
REMARK    1  A    between atoms: C_1  and  C_2
REMARK    2  A    between atoms: C_2  and  C_3
REMARK    3  A    between atoms: C_3  and  C_4
REMARK    4  A    between atoms: C_4  and  C_5
REMARK    5  A    between atoms: C_5  and  C_6
REMARK    6  A    between atoms: C_6  and  C_7
REMARK    7  A    between atoms: C_11  and  C_20
REMARK    8  A    between atoms: N_22  and  C_23
REMARK    9  A    between atoms: C_23  and  C_25
REMARK   10  A    between atoms: C_23  and  C_29
REMARK   11  A    between atoms: C_25  and  N_26
REMARK   12  A    between atoms: N_26  and  C_27
REMARK   13  A    between atoms: N_26  and  C_28
REMARK                            x       y       z     vdW  Elec       q    Type
REMARK                         _______ _______ _______ _____ _____    ______ ____
ROOT
ATOM      1  C   UNL     1       2.968  -4.896  -5.155  0.00  0.00    +0.216 C 
ATOM      2  O   UNL     1       2.985  -4.207  -6.153  0.00  0.00    -0.276 OA
ATOM      3  N   UNL     1       2.682  -6.210  -5.248  0.00  0.00    -0.300 N 
ATOM      4  C   UNL     1       2.608  -7.203  -4.150  0.00  0.00    +0.121 C 
ATOM      5  C   UNL     1       1.402  -8.098  -4.515  0.00  0.00    +0.100 C 
ATOM      6  C   UNL     1       1.254  -7.954  -6.039  0.00  0.00    -0.004 C 
ATOM      7  C   UNL     1       2.365  -6.987  -6.470  0.00  0.00    +0.115 C 
ATOM      8  C   UNL     1      -0.112  -7.367  -6.383  0.00  0.00    -0.010 C 
ATOM      9  C   UNL     1      -0.258  -7.287  -7.905  0.00  0.00    -0.082 C 
ATOM     10  N   UNL     1      -0.121  -8.629  -8.483  0.00  0.00    +0.379 N 
ATOM     11  C   UNL     1       1.228  -9.149  -8.227  0.00  0.00    -0.082 C 
ATOM     12  C   UNL     1       1.437  -9.308  -6.718  0.00  0.00    -0.010 C 
ATOM     13  H   UNL     1      -0.803  -9.245  -8.066  0.00  0.00    -0.086 HD
ATOM     14  H   UNL     1      -0.278  -8.583  -9.479  0.00  0.00    -0.086 HD
ENDROOT
BRANCH   5  15
ATOM     15  C   UNL     1       1.683  -9.532  -4.146  0.00  0.00    +0.219 C 
ATOM     16  O   UNL     1       2.821  -9.950  -4.157  0.00  0.00    -0.275 OA
ATOM     17  N   UNL     1       0.668 -10.351  -3.803  0.00  0.00    -0.310 N 
ATOM     18  H   UNL     1      -0.248 -10.038  -3.861  0.00  0.00    +0.149 HD
BRANCH  17  19
ATOM     19  C   UNL     1       0.949 -11.713  -3.343  0.00  0.00    +0.087 C 
BRANCH  19  20
ATOM     20  C   UNL     1       0.268 -12.701  -4.254  0.00  0.00    -0.029 A 
ATOM     21  C   UNL     1      -1.002 -12.439  -4.732  0.00  0.00    +0.005 A 
ATOM     22  C   UNL     1      -1.626 -13.346  -5.568  0.00  0.00    +0.000 A 
ATOM     23  C   UNL     1      -0.981 -14.514  -5.926  0.00  0.00    +0.000 A 
ATOM     24  C   UNL     1       0.290 -14.776  -5.449  0.00  0.00    +0.000 A 
ATOM     25  C   UNL     1       0.916 -13.867  -4.617  0.00  0.00    +0.005 A 
ENDBRANCH  19  20
BRANCH  19  26
ATOM     26  C   UNL     1       0.424 -11.888  -1.917  0.00  0.00    -0.052 C 
BRANCH  26  27
ATOM     27  N   UNL     1       0.980 -10.835  -1.057  0.00  0.00    +0.377 N 
ATOM     28  C   UNL     1       0.353 -10.904   0.270  0.00  0.00    -0.097 C 
ATOM     29  C   UNL     1       2.430 -11.026  -0.924  0.00  0.00    -0.097 C 
ATOM     30  H   UNL     1       0.796  -9.932  -1.469  0.00  0.00    -0.083 HD
ENDBRANCH  26  27
ENDBRANCH  19  26
ENDBRANCH  17  19
ENDBRANCH   5  15
BRANCH   1  31
ATOM     31  C   UNL     1       3.267  -4.283  -3.811  0.00  0.00    +0.096 C 
BRANCH  31  32
ATOM     32  C   UNL     1       3.556  -2.791  -3.984  0.00  0.00    +0.009 C 
BRANCH  32  33
ATOM     33  C   UNL     1       3.859  -2.168  -2.620  0.00  0.00    +0.000 C 
BRANCH  33  34
ATOM     34  C   UNL     1       4.148  -0.676  -2.793  0.00  0.00    -0.000 C 
BRANCH  34  36
ATOM     35  C   UNL     1       4.740   1.439  -1.601  0.00  0.00    +0.004 C 
ATOM     36  C   UNL     1       4.451  -0.054  -1.428  0.00  0.00    -0.003 C 
ENDBRANCH  34  36
ENDBRANCH  33  34
ENDBRANCH  32  33
ENDBRANCH  31  32
ENDBRANCH   1  31
TORSDOF 10
