REMARK  Name = ZINC39966976
REMARK  8 active torsions:
REMARK  status: ('A' for Active; 'I' for Inactive)
REMARK    1  A    between atoms: C_6  and  C_7
REMARK    2  A    between atoms: C_7  and  N_8
REMARK    3  A    between atoms: C_9  and  C_11
REMARK    4  A    between atoms: C_11  and  S_12
REMARK    5  A    between atoms: S_12  and  C_13
REMARK    6  A    between atoms: C_16  and  C_25
REMARK    7  A    between atoms: N_17  and  C_18
REMARK    8  A    between atoms: C_18  and  C_19
REMARK                            x       y       z     vdW  Elec       q    Type
REMARK                         _______ _______ _______ _____ _____    ______ ____
ROOT
ATOM      1  C   UNL     1      -5.255  -3.106  -4.720  0.00  0.00    +0.192 A 
ATOM      2  N   UNL     1      -4.552  -2.634  -5.723  0.00  0.00    -0.122 NA
ATOM      3  N   UNL     1      -5.118  -2.931  -6.837  0.00  0.00    -0.128 NA
ATOM      4  C   UNL     1      -6.219  -3.611  -6.614  0.00  0.00    +0.166 A 
ATOM      5  N   UNL     1      -6.338  -3.750  -5.251  0.00  0.00    -0.300 N 
ENDROOT
BRANCH   4   6
ATOM      6  C   UNL     1      -7.151  -4.135  -7.636  0.00  0.00    +0.030 A 
ATOM      7  C   UNL     1      -7.585  -5.426  -7.571  0.00  0.00    +0.057 A 
ATOM      8  S   UNL     1      -8.653  -5.527  -8.997  0.00  0.00    -0.101 S 
ATOM      9  C   UNL     1      -8.456  -3.859  -9.570  0.00  0.00    -0.006 A 
ATOM     10  C   UNL     1      -7.600  -3.300  -8.679  0.00  0.00    -0.026 A 
ATOM     11  C   UNL     1      -7.131  -1.853  -8.805  0.00  0.00    +0.036 C 
ATOM     12  C   UNL     1      -8.176  -1.030  -9.549  0.00  0.00    +0.005 C 
ATOM     13  C   UNL     1      -7.918  -1.061 -11.054  0.00  0.00    +0.001 C 
ATOM     14  C   UNL     1      -8.041  -2.488 -11.578  0.00  0.00    +0.005 C 
ATOM     15  C   UNL     1      -9.101  -3.219 -10.756  0.00  0.00    +0.043 C 
ENDBRANCH   4   6
BRANCH   1  16
ATOM     16  S   UNL     1      -4.871  -2.946  -3.007  0.00  0.00    -0.077 S 
BRANCH  16  17
ATOM     17  C   UNL     1      -3.327  -1.995  -2.991  0.00  0.00    +0.173 C 
BRANCH  17  19
ATOM     18  N   UNL     1      -1.750  -1.099  -1.309  0.00  0.00    -0.311 N 
ATOM     19  C   UNL     1      -2.881  -1.784  -1.567  0.00  0.00    +0.224 C 
ATOM     20  O   UNL     1      -3.541  -2.232  -0.653  0.00  0.00    -0.275 OA
ATOM     21  H   UNL     1      -1.222  -0.741  -2.040  0.00  0.00    +0.149 HD
BRANCH  18  22
ATOM     22  C   UNL     1      -1.317  -0.894   0.076  0.00  0.00    +0.139 C 
BRANCH  22  28
ATOM     23  C   UNL     1      -0.075   1.277   0.141  0.00  0.00    +0.009 A 
ATOM     24  C   UNL     1       1.099   2.007   0.154  0.00  0.00    +0.050 A 
ATOM     25  C   UNL     1       2.321   1.355   0.114  0.00  0.00    +0.166 A 
ATOM     26  C   UNL     1       2.362  -0.037   0.061  0.00  0.00    +0.167 A 
ATOM     27  C   UNL     1       1.182  -0.761   0.049  0.00  0.00    +0.054 A 
ATOM     28  C   UNL     1      -0.034  -0.103   0.089  0.00  0.00    -0.027 A 
ATOM     29  O   UNL     1       3.668  -0.433   0.030  0.00  0.00    -0.453 OA
ATOM     30  C   UNL     1       4.416   0.737  -0.349  0.00  0.00    +0.466 C 
ATOM     31  O   UNL     1       3.601   1.829   0.115  0.00  0.00    -0.453 OA
ENDBRANCH  22  28
ENDBRANCH  18  22
ENDBRANCH  17  19
ENDBRANCH  16  17
ENDBRANCH   1  16
BRANCH   5  32
ATOM     32  C   UNL     1      -7.405  -4.440  -4.521  0.00  0.00    +0.157 C 
BRANCH  32  33
ATOM     33  C   UNL     1      -8.588  -3.489  -4.327  0.00  0.00    +0.138 C 
ATOM     34  C   UNL     1      -9.763  -4.227  -3.637  0.00  0.00    +0.035 C 
ATOM     35  C   UNL     1     -10.511  -3.037  -2.978  0.00  0.00    +0.031 C 
ATOM     36  C   UNL     1      -9.353  -2.087  -2.604  0.00  0.00    +0.160 C 
ATOM     37  O   UNL     1      -8.231  -2.426  -3.430  0.00  0.00    -0.375 OA
ENDBRANCH  32  33
ENDBRANCH   5  32
TORSDOF 8
