REMARK  Name = ZINC38039615
REMARK  5 active torsions:
REMARK  status: ('A' for Active; 'I' for Inactive)
REMARK    1  A    between atoms: C_1  and  C_2
REMARK    2  A    between atoms: C_8  and  N_10
REMARK    3  A    between atoms: N_10  and  S_11
REMARK    4  A    between atoms: S_11  and  C_14
REMARK    5  A    between atoms: C_19  and  N_20
REMARK                            x       y       z     vdW  Elec       q    Type
REMARK                         _______ _______ _______ _____ _____    ______ ____
ROOT
ATOM      1  S   UNL     1       0.926   0.256   3.929  0.00  0.00    +0.061 S 
ATOM      2  O   UNL     1       0.094   0.594   5.030  0.00  0.00    -0.153 OA
ATOM      3  O   UNL     1       1.809  -0.857   3.954  0.00  0.00    -0.153 OA
ENDROOT
BRANCH   1   4
ATOM      4  C   UNL     1       1.915   1.675   3.592  0.00  0.00    +0.136 A 
ATOM      5  C   UNL     1       3.287   1.550   3.477  0.00  0.00    +0.046 A 
ATOM      6  C   UNL     1       4.063   2.664   3.212  0.00  0.00    +0.020 A 
ATOM      7  C   UNL     1       3.466   3.903   3.063  0.00  0.00    +0.017 A 
ATOM      8  C   UNL     1       2.095   4.027   3.179  0.00  0.00    +0.036 A 
ATOM      9  C   UNL     1       1.319   2.912   3.438  0.00  0.00    +0.152 A 
ATOM     10 BR   UNL     1       5.940   2.493   3.055  0.00  0.00    -0.050 Br
BRANCH   9  11
ATOM     11  N   UNL     1      -0.151   3.045   3.555  0.00  0.00    +0.058 N 
ATOM     12  O   UNL     1      -0.661   4.141   3.547  0.00  0.00    -0.126 OA
ATOM     13  O   UNL     1      -0.840   2.057   3.658  0.00  0.00    -0.126 OA
ENDBRANCH   9  11
ENDBRANCH   1   4
BRANCH   1  14
ATOM     14  N   UNL     1      -0.075   0.037   2.628  0.00  0.00    -0.187 NA
ATOM     15  H   UNL     1      -1.034   0.140   2.732  0.00  0.00    +0.148 HD
BRANCH  14  22
ATOM     16  C   UNL     1      -0.332   1.856   0.389  0.00  0.00    +0.009 C 
ATOM     17  C   UNL     1      -0.349   0.336   0.216  0.00  0.00    +0.005 C 
ATOM     18  C   UNL     1       0.239  -0.029  -1.148  0.00  0.00    +0.005 C 
ATOM     19  C   UNL     1       0.222  -1.550  -1.321  0.00  0.00    +0.000 C 
ATOM     20  C   UNL     1       1.058  -2.198  -0.216  0.00  0.00    +0.002 C 
ATOM     21  C   UNL     1       0.471  -1.833   1.149  0.00  0.00    +0.020 C 
ATOM     22  C   UNL     1       0.488  -0.312   1.321  0.00  0.00    +0.079 C 
ENDBRANCH  14  22
ENDBRANCH   1  14
TORSDOF 4
