REMARK  Name = ZINC39665583
REMARK  9 active torsions:
REMARK  status: ('A' for Active; 'I' for Inactive)
REMARK    1  A    between atoms: C_1  and  C_2
REMARK    2  A    between atoms: C_2  and  C_4
REMARK    3  A    between atoms: C_2  and  O_28
REMARK    4  A    between atoms: C_4  and  N_5
REMARK    5  A    between atoms: C_6  and  C_8
REMARK    6  A    between atoms: C_19  and  C_21
REMARK    7  A    between atoms: O_28  and  C_29
REMARK    8  A    between atoms: C_32  and  O_35
REMARK    9  A    between atoms: O_35  and  C_36
REMARK                            x       y       z     vdW  Elec       q    Type
REMARK                         _______ _______ _______ _____ _____    ______ ____
ROOT
ATOM      1  C   UNL     1       1.733  -4.861   0.145  0.00  0.00    +0.100 C 
ATOM      2  C   UNL     1       2.578  -5.008  -1.140  0.00  0.00    +0.121 C 
ATOM      3  N   UNL     1       3.862  -5.587  -0.679  0.00  0.00    -0.296 N 
ATOM      4  C   UNL     1       3.472  -6.572   0.357  0.00  0.00    +0.115 C 
ATOM      5  C   UNL     1       2.320  -5.892   1.124  0.00  0.00    -0.004 C 
ATOM      6  C   UNL     1       1.260  -6.920   1.507  0.00  0.00    -0.010 C 
ATOM      7  C   UNL     1       1.851  -7.900   2.526  0.00  0.00    -0.082 C 
ATOM      8  N   UNL     1       2.298  -7.163   3.714  0.00  0.00    +0.379 N 
ATOM      9  C   UNL     1       3.383  -6.242   3.353  0.00  0.00    -0.082 C 
ATOM     10  C   UNL     1       2.857  -5.192   2.369  0.00  0.00    -0.010 C 
ATOM     11  C   UNL     1       5.104  -5.287  -1.107  0.00  0.00    +0.247 C 
ATOM     12  O   UNL     1       5.273  -4.374  -1.892  0.00  0.00    -0.270 OA
ATOM     13  H   UNL     1       1.525  -6.637   4.093  0.00  0.00    -0.086 HD
ATOM     14  H   UNL     1       2.630  -7.816   4.408  0.00  0.00    -0.086 HD
ENDROOT
BRANCH  11  15
ATOM     15  C   UNL     1       6.263  -6.067  -0.622  0.00  0.00    +0.038 A 
ATOM     16  C   UNL     1       6.076  -7.351  -0.105  0.00  0.00    +0.013 A 
ATOM     17  C   UNL     1       7.160  -8.074   0.346  0.00  0.00    +0.002 A 
ATOM     18  C   UNL     1       8.431  -7.530   0.289  0.00  0.00    +0.015 A 
ATOM     19  C   UNL     1       8.624  -6.258  -0.222  0.00  0.00    +0.019 A 
ATOM     20  C   UNL     1       7.547  -5.526  -0.683  0.00  0.00    +0.028 A 
ATOM     21 BR   UNL     1      10.365  -5.523  -0.294  0.00  0.00    -0.050 Br
ENDBRANCH  11  15
BRANCH   1  23
ATOM     22  N   UNL     1       0.864  -2.931   1.425  0.00  0.00    -0.312 N 
ATOM     23  C   UNL     1       1.869  -3.469   0.706  0.00  0.00    +0.218 C 
ATOM     24  O   UNL     1       2.882  -2.832   0.510  0.00  0.00    -0.275 OA
ATOM     25  H   UNL     1       0.053  -3.440   1.581  0.00  0.00    +0.149 HD
BRANCH  22  26
ATOM     26  C   UNL     1       0.995  -1.578   1.970  0.00  0.00    +0.148 C 
BRANCH  26  28
ATOM     27  C   UNL     1      -0.139   0.202   3.307  0.00  0.00    +0.053 C 
ATOM     28  C   UNL     1      -0.276  -1.211   2.738  0.00  0.00    +0.187 C 
BRANCH  28  29
ATOM     29  O   UNL     1      -1.398  -1.262   1.854  0.00  0.00    -0.488 OA
BRANCH  29  30
ATOM     30  C   UNL     1      -2.616  -1.487   2.415  0.00  0.00    +0.121 A 
ATOM     31  C   UNL     1      -2.746  -1.535   3.795  0.00  0.00    +0.049 A 
ATOM     32  C   UNL     1      -3.983  -1.764   4.365  0.00  0.00    +0.049 A 
ATOM     33  C   UNL     1      -5.096  -1.946   3.557  0.00  0.00    +0.120 A 
ATOM     34  C   UNL     1      -4.966  -1.897   2.177  0.00  0.00    +0.049 A 
ATOM     35  C   UNL     1      -3.730  -1.663   1.607  0.00  0.00    +0.049 A 
BRANCH  33  36
ATOM     36  O   UNL     1      -6.314  -2.172   4.118  0.00  0.00    -0.495 OA
ATOM     37  C   UNL     1      -7.416  -2.350   3.226  0.00  0.00    +0.277 C 
ENDBRANCH  33  36
ENDBRANCH  29  30
ENDBRANCH  28  29
ENDBRANCH  26  28
ENDBRANCH  22  26
ENDBRANCH   1  23
TORSDOF 7
