REMARK  Name = ZINC00997853
REMARK  8 active torsions:
REMARK  status: ('A' for Active; 'I' for Inactive)
REMARK    1  A    between atoms: C_1  and  C_2
REMARK    2  A    between atoms: C_2  and  O_3
REMARK    3  A    between atoms: O_3  and  C_4
REMARK    4  A    between atoms: C_4  and  C_6
REMARK    5  A    between atoms: C_7  and  C_23
REMARK    6  A    between atoms: C_12  and  C_14
REMARK    7  A    between atoms: C_16  and  O_21
REMARK    8  A    between atoms: O_21  and  C_22
REMARK                            x       y       z     vdW  Elec       q    Type
REMARK                         _______ _______ _______ _____ _____    ______ ____
ROOT
ATOM      1  C   UNL     1       0.154   0.228  -0.156  0.00  0.00    +0.078 C 
ATOM      2  C   UNL     1       0.389   1.549  -0.308  0.00  0.00    +0.019 C 
ATOM      3  N   UNL     1       1.644   2.064  -0.156  0.00  0.00    -0.300 N 
ATOM      4  C   UNL     1       2.718   1.324   0.147  0.00  0.00    +0.135 C 
ATOM      5  S   UNL     1       4.237   2.098   0.308  0.00  0.00    -0.019 S 
ATOM      6  N   UNL     1       2.643  -0.009   0.329  0.00  0.00    -0.315 N 
ATOM      7  C   UNL     1       1.331  -0.663   0.187  0.00  0.00    +0.142 C 
ATOM      8  C   UNL     1      -0.752   2.470  -0.656  0.00  0.00    +0.061 C 
ATOM      9  H   UNL     1       1.764   3.019  -0.275  0.00  0.00    +0.154 HD
ATOM     10  H   UNL     1       3.434  -0.526   0.547  0.00  0.00    +0.149 HD
ENDROOT
BRANCH   7  11
ATOM     11  C   UNL     1       1.449  -1.712  -0.888  0.00  0.00    -0.005 A 
ATOM     12  C   UNL     1       2.259  -1.488  -1.985  0.00  0.00    +0.052 A 
ATOM     13  C   UNL     1       2.372  -2.457  -2.971  0.00  0.00    +0.120 A 
ATOM     14  C   UNL     1       1.662  -3.644  -2.860  0.00  0.00    +0.047 A 
ATOM     15  C   UNL     1       0.850  -3.861  -1.764  0.00  0.00    +0.019 A 
ATOM     16  C   UNL     1       0.743  -2.897  -0.778  0.00  0.00    +0.023 A 
ATOM     17 BR   UNL     1      -0.370  -3.197   0.720  0.00  0.00    -0.050 Br
BRANCH  13  18
ATOM     18  O   UNL     1       3.173  -2.241  -4.048  0.00  0.00    -0.495 OA
ATOM     19  C   UNL     1       3.236  -3.280  -5.028  0.00  0.00    +0.277 C 
ENDBRANCH  13  18
ENDBRANCH   7  11
BRANCH   1  20
ATOM     20  C   UNL     1      -1.146  -0.307  -0.314  0.00  0.00    +0.339 C 
ATOM     21  O   UNL     1      -1.450  -0.874  -1.347  0.00  0.00    -0.245 OA
BRANCH  20  22
ATOM     22  O   UNL     1      -2.049  -0.189   0.682  0.00  0.00    -0.462 OA
BRANCH  22  24
ATOM     23  C   UNL     1      -4.147  -0.699   1.768  0.00  0.00    +0.048 C 
ATOM     24  C   UNL     1      -3.307  -0.841   0.497  0.00  0.00    +0.229 C 
ENDBRANCH  22  24
ENDBRANCH  20  22
ENDBRANCH   1  20
TORSDOF 5
