REMARK  Name = ZINC40760734
REMARK  7 active torsions:
REMARK  status: ('A' for Active; 'I' for Inactive)
REMARK    1  A    between atoms: C_1  and  C_2
REMARK    2  A    between atoms: C_2  and  C_24
REMARK    3  A    between atoms: C_4  and  N_10
REMARK    4  A    between atoms: C_6  and  C_8
REMARK    5  A    between atoms: C_6  and  C_9
REMARK    6  A    between atoms: C_12  and  N_23
REMARK    7  A    between atoms: C_13  and  N_17
REMARK                            x       y       z     vdW  Elec       q    Type
REMARK                         _______ _______ _______ _____ _____    ______ ____
ROOT
ATOM      1  N   UNL     1       2.615  -0.819  -2.626  0.00  0.00    -0.325 N 
ATOM      2  C   UNL     1       3.806  -0.319  -3.139  0.00  0.00    +0.145 A 
ATOM      3  C   UNL     1       4.315  -0.800  -4.348  0.00  0.00    +0.106 A 
ATOM      4  C   UNL     1       5.514  -0.263  -4.818  0.00  0.00    +0.150 A 
ATOM      5  N   UNL     1       6.123   0.680  -4.102  0.00  0.00    -0.219 NA
ATOM      6  C   UNL     1       5.609   1.105  -2.966  0.00  0.00    +0.225 A 
ATOM      7  N   UNL     1       4.477   0.629  -2.489  0.00  0.00    -0.219 NA
ATOM      8  H   UNL     1       2.133  -1.510  -3.106  0.00  0.00    +0.148 HD
ENDROOT
BRANCH   1  12
ATOM      9  C   UNL     1      -0.019   1.528   0.010  0.00  0.00    -0.010 C 
ATOM     10  C   UNL     1       0.002  -0.004   0.002  0.00  0.00    -0.072 C 
ATOM     11  C   UNL     1       0.573  -0.505  -1.321  0.00  0.00    +0.009 C 
ATOM     12  C   UNL     1       2.088  -0.301  -1.357  0.00  0.00    +0.069 C 
ATOM     13  C   UNL     1       2.703  -1.086  -0.198  0.00  0.00    +0.009 C 
ATOM     14  C   UNL     1       2.147  -0.590   1.133  0.00  0.00    -0.072 C 
ATOM     15  N   UNL     1       0.697  -0.529   1.164  0.00  0.00    +0.386 N 
ATOM     16  C   UNL     1       2.769   0.766   1.481  0.00  0.00    -0.010 C 
ATOM     17  C   UNL     1       2.600  -1.589   2.223  0.00  0.00    -0.010 C 
ATOM     18  C   UNL     1      -1.468  -0.478   0.079  0.00  0.00    -0.010 C 
ATOM     19  H   UNL     1       0.416   0.021   1.982  0.00  0.00    -0.084 HD
ATOM     20  H   UNL     1       0.341  -1.472   1.351  0.00  0.00    -0.084 HD
ENDBRANCH   1  12
BRANCH   4  21
ATOM     21  N   UNL     1       6.065  -0.706  -6.016  0.00  0.00    -0.277 N 
ATOM     22  C   UNL     1       7.258  -0.165  -6.473  0.00  0.00    +0.163 A 
ATOM     23  N   UNL     1       8.004   0.761  -5.911  0.00  0.00    -0.233 NA
ATOM     24  C   UNL     1       9.124   1.172  -6.479  0.00  0.00    +0.120 A 
ATOM     25  C   UNL     1       9.463   0.599  -7.659  0.00  0.00    +0.068 A 
ATOM     26  S   UNL     1       8.105  -0.540  -7.879  0.00  0.00    -0.061 S 
ATOM     27  H   UNL     1       5.615  -1.394  -6.532  0.00  0.00    +0.156 HD
ENDBRANCH   4  21
BRANCH   3  28
ATOM     28  N   UNL     1       3.638  -1.796  -5.070  0.00  0.00    -0.353 N 
ATOM     29  H   UNL     1       2.806  -2.160  -4.730  0.00  0.00    +0.143 HD
ATOM     30  H   UNL     1       4.003  -2.120  -5.908  0.00  0.00    +0.143 HD
ENDBRANCH   3  28
TORSDOF 3
