REMARK  Name = ZINC20531277
REMARK  8 active torsions:
REMARK  status: ('A' for Active; 'I' for Inactive)
REMARK    1  A    between atoms: C_4  and  C_7
REMARK    2  A    between atoms: C_7  and  C_8
REMARK    3  A    between atoms: C_8  and  C_10
REMARK    4  A    between atoms: C_8  and  N_28
REMARK    5  A    between atoms: N_12  and  C_13
REMARK    6  A    between atoms: C_13  and  C_14
REMARK    7  A    between atoms: N_17  and  C_20
REMARK    8  A    between atoms: C_20  and  C_21
REMARK                            x       y       z     vdW  Elec       q    Type
REMARK                         _______ _______ _______ _____ _____    ______ ____
ROOT
ATOM      1  C   UNL     1       3.169   5.383   7.377  0.00  0.00    +0.234 C 
ATOM      2  O   UNL     1       2.335   6.101   7.887  0.00  0.00    -0.274 OA
ATOM      3  N   UNL     1       3.127   5.135   6.053  0.00  0.00    -0.314 N 
ATOM      4  H   UNL     1       3.884   4.484   5.591  0.00  0.00    +0.149 HD
ENDROOT
BRANCH   1   5
ATOM      5  C   UNL     1       4.254   4.769   8.225  0.00  0.00    +0.167 C 
BRANCH   5   6
ATOM      6  N   UNL     1       4.082   5.189   9.618  0.00  0.00    -0.281 N 
ATOM      7  C   UNL     1       3.861   4.294  10.759  0.00  0.00    +0.144 C 
ATOM      8  C   UNL     1       3.745   5.179  11.974  0.00  0.00    -0.018 A 
ATOM      9  C   UNL     1       3.537   4.924  13.310  0.00  0.00    +0.006 A 
ATOM     10  C   UNL     1       3.476   5.973  14.213  0.00  0.00    +0.000 A 
ATOM     11  C   UNL     1       3.624   7.277  13.775  0.00  0.00    +0.001 A 
ATOM     12  C   UNL     1       3.832   7.544  12.438  0.00  0.00    +0.013 A 
ATOM     13  C   UNL     1       3.894   6.492  11.522  0.00  0.00    +0.042 A 
ATOM     14  C   UNL     1       4.106   6.457  10.062  0.00  0.00    +0.248 C 
ATOM     15  O   UNL     1       4.276   7.436   9.361  0.00  0.00    -0.270 OA
ENDBRANCH   5   6
BRANCH   5  16
ATOM     16  C   UNL     1       5.621   5.233   7.718  0.00  0.00    +0.067 C 
BRANCH  16  20
ATOM     17  C   UNL     1       8.703   3.226   9.891  0.00  0.00    +0.000 A 
ATOM     18  C   UNL     1       8.202   2.670   8.729  0.00  0.00    +0.000 A 
ATOM     19  C   UNL     1       7.205   3.319   8.025  0.00  0.00    +0.004 A 
ATOM     20  C   UNL     1       6.708   4.525   8.485  0.00  0.00    -0.045 A 
ATOM     21  C   UNL     1       7.212   5.084   9.644  0.00  0.00    +0.004 A 
ATOM     22  C   UNL     1       8.206   4.432  10.350  0.00  0.00    +0.000 A 
ENDBRANCH  16  20
ENDBRANCH   5  16
ENDBRANCH   1   5
BRANCH   3  23
ATOM     23  C   UNL     1       2.072   5.732   5.230  0.00  0.00    +0.107 C 
BRANCH  23  24
ATOM     24  C   UNL     1       2.252   5.293   3.775  0.00  0.00    +0.003 C 
ATOM     25  C   UNL     1       1.228   6.014   2.893  0.00  0.00    -0.014 C 
ATOM     26  C   UNL     1       1.373   5.526   1.450  0.00  0.00    -0.078 C 
ATOM     27  N   UNL     1       1.155   4.075   1.398  0.00  0.00    +0.382 N 
ATOM     28  C   UNL     1       2.156   3.359   2.199  0.00  0.00    -0.078 C 
ATOM     29  C   UNL     1       2.035   3.782   3.665  0.00  0.00    -0.014 C 
ATOM     30  H   UNL     1       0.167   3.868   1.834  0.00  0.00    -0.081 HD
BRANCH  27  31
ATOM     31  C   UNL     1       1.149   3.593   0.010  0.00  0.00    -0.043 C 
BRANCH  31  32
ATOM     32  C   UNL     1       1.171   2.086   0.002  0.00  0.00    -0.064 A 
ATOM     33  C   UNL     1      -0.017   1.378   0.010  0.00  0.00    +0.004 A 
ATOM     34  C   UNL     1       0.002  -0.004   0.002  0.00  0.00    +0.038 A 
ATOM     35  C   UNL     1       1.211  -0.679  -0.013  0.00  0.00    +0.123 A 
ATOM     36  C   UNL     1       2.399   0.031  -0.021  0.00  0.00    +0.038 A 
ATOM     37  C   UNL     1       2.378   1.413  -0.013  0.00  0.00    +0.004 A 
ATOM     38  F   UNL     1       1.230  -2.030  -0.020  0.00  0.00    -0.205 F 
ENDBRANCH  31  32
ENDBRANCH  27  31
ENDBRANCH  23  24
ENDBRANCH   3  23
TORSDOF 8
