REMARK  Name = ZINC66255637
REMARK  4 active torsions:
REMARK  status: ('A' for Active; 'I' for Inactive)
REMARK    1  A    between atoms: C_6  and  C_7
REMARK    2  A    between atoms: C_7  and  N_8
REMARK    3  A    between atoms: C_9  and  C_10
REMARK    4  A    between atoms: C_12  and  N_17
REMARK                            x       y       z     vdW  Elec       q    Type
REMARK                         _______ _______ _______ _____ _____    ______ ____
ROOT
ATOM      1  N   UNL     1      -1.532  -1.011  -1.447  0.00  0.00    -0.386 N 
ATOM      2  C   UNL     1      -1.785  -2.267  -1.843  0.00  0.00    +0.090 C 
ATOM      3  H   UNL     1      -1.650  -0.274  -2.067  0.00  0.00    +0.159 HD
ENDROOT
BRANCH   2   4
ATOM      4  C   UNL     1      -2.297  -2.507  -3.121  0.00  0.00    +0.039 A 
ATOM      5  C   UNL     1      -2.463  -3.827  -3.596  0.00  0.00    +0.045 A 
ATOM      6  C   UNL     1      -2.962  -4.040  -4.842  0.00  0.00    +0.127 A 
ATOM      7  C   UNL     1      -3.318  -2.982  -5.674  0.00  0.00    +0.036 A 
ATOM      8  C   UNL     1      -3.183  -1.687  -5.277  0.00  0.00    +0.054 A 
ATOM      9  C   UNL     1      -2.679  -1.393  -3.998  0.00  0.00    +0.188 A 
ATOM     10  O   UNL     1      -2.558  -0.234  -3.625  0.00  0.00    -0.287 OA
BRANCH   6  11
ATOM     11  N   UNL     1      -3.130  -5.428  -5.327  0.00  0.00    +0.056 N 
ATOM     12  O   UNL     1      -2.825  -6.357  -4.616  0.00  0.00    -0.126 OA
ATOM     13  O   UNL     1      -3.573  -5.633  -6.433  0.00  0.00    -0.126 OA
ENDBRANCH   6  11
ENDBRANCH   2   4
BRANCH   1  14
ATOM     14  C   UNL     1      -1.078  -0.752  -0.078  0.00  0.00    +0.147 C 
BRANCH  14  20
ATOM     15  C   UNL     1       0.526   1.164  -0.190  0.00  0.00    +0.009 A 
ATOM     16  C   UNL     1       1.811   1.677  -0.220  0.00  0.00    +0.050 A 
ATOM     17  C   UNL     1       2.895   0.817  -0.169  0.00  0.00    +0.162 A 
ATOM     18  C   UNL     1       2.692  -0.553  -0.089  0.00  0.00    +0.162 A 
ATOM     19  C   UNL     1       1.405  -1.063  -0.060  0.00  0.00    +0.054 A 
ATOM     20  C   UNL     1       0.324  -0.201  -0.110  0.00  0.00    -0.025 A 
ATOM     21  O   UNL     1       3.767  -1.392  -0.039  0.00  0.00    -0.488 OA
ATOM     22  C   UNL     1       4.554  -1.472  -1.229  0.00  0.00    +0.232 C 
ATOM     23  C   UNL     1       5.575  -0.346  -1.277  0.00  0.00    +0.082 C 
ATOM     24  C   UNL     1       4.923   1.024  -1.375  0.00  0.00    +0.232 C 
ATOM     25  O   UNL     1       4.167   1.310  -0.196  0.00  0.00    -0.488 OA
ENDBRANCH  14  20
ENDBRANCH   1  14
TORSDOF 4
