REMARK  Name = ZINC40784292
REMARK  8 active torsions:
REMARK  status: ('A' for Active; 'I' for Inactive)
REMARK    1  A    between atoms: C_1  and  C_2
REMARK    2  A    between atoms: C_4  and  O_10
REMARK    3  A    between atoms: C_6  and  C_9
REMARK    4  A    between atoms: O_10  and  C_11
REMARK    5  A    between atoms: C_12  and  N_29
REMARK    6  A    between atoms: C_13  and  N_17
REMARK    7  A    between atoms: C_23  and  O_27
REMARK    8  A    between atoms: O_27  and  C_28
REMARK                            x       y       z     vdW  Elec       q    Type
REMARK                         _______ _______ _______ _____ _____    ______ ____
ROOT
ATOM      1  C   UNL     1       0.151  -4.100  -2.347  0.00  0.00    +0.246 A 
ATOM      2  C   UNL     1       0.270  -4.834  -3.526  0.00  0.00    +0.128 A 
ATOM      3  C   UNL     1       0.395  -6.222  -3.430  0.00  0.00    +0.152 A 
ATOM      4  N   UNL     1       0.394  -6.786  -2.225  0.00  0.00    -0.218 NA
ATOM      5  C   UNL     1       0.279  -6.055  -1.136  0.00  0.00    +0.227 A 
ATOM      6  N   UNL     1       0.165  -4.743  -1.183  0.00  0.00    -0.199 NA
ENDROOT
BRANCH   3   7
ATOM      7  N   UNL     1       0.517  -7.002  -4.576  0.00  0.00    -0.277 N 
ATOM      8  C   UNL     1       0.639  -8.374  -4.468  0.00  0.00    +0.165 A 
ATOM      9  N   UNL     1       0.655  -9.117  -3.385  0.00  0.00    -0.225 NA
ATOM     10  C   UNL     1       0.782 -10.463  -3.430  0.00  0.00    +0.081 A 
ATOM     11  C   UNL     1       0.814 -11.371  -2.347  0.00  0.00    +0.032 A 
ATOM     12  C   UNL     1       0.951 -12.717  -2.564  0.00  0.00    +0.048 A 
ATOM     13  C   UNL     1       1.062 -13.237  -3.850  0.00  0.00    +0.121 A 
ATOM     14  C   UNL     1       1.034 -12.373  -4.934  0.00  0.00    +0.063 A 
ATOM     15  C   UNL     1       0.898 -11.024  -4.721  0.00  0.00    +0.044 A 
ATOM     16  S   UNL     1       0.808  -9.590  -5.767  0.00  0.00    -0.052 S 
ATOM     17  H   UNL     1       0.516  -6.582  -5.450  0.00  0.00    +0.156 HD
BRANCH  13  18
ATOM     18  O   UNL     1       1.197 -14.577  -4.041  0.00  0.00    -0.495 OA
ATOM     19  C   UNL     1       1.217 -15.400  -2.873  0.00  0.00    +0.277 C 
ENDBRANCH  13  18
ENDBRANCH   3   7
BRANCH   2  20
ATOM     20  N   UNL     1       0.265  -4.196  -4.776  0.00  0.00    -0.351 N 
ATOM     21  H   UNL     1       0.178  -3.231  -4.827  0.00  0.00    +0.143 HD
ATOM     22  H   UNL     1       0.349  -4.719  -5.588  0.00  0.00    +0.143 HD
ENDBRANCH   2  20
BRANCH   1  23
ATOM     23  O   UNL     1       0.028  -2.749  -2.385  0.00  0.00    -0.436 OA
BRANCH  23  27
ATOM     24  C   UNL     1       2.492  -0.952   1.425  0.00  0.00    +0.045 C 
ATOM     25  C   UNL     1       1.203  -1.180   0.679  0.00  0.00    -0.028 A 
ATOM     26  C   UNL     1       1.210  -1.866  -0.519  0.00  0.00    +0.051 A 
ATOM     27  C   UNL     1       0.022  -2.075  -1.205  0.00  0.00    +0.131 A 
ATOM     28  C   UNL     1      -1.171  -1.595  -0.685  0.00  0.00    +0.051 A 
ATOM     29  C   UNL     1      -1.174  -0.909   0.514  0.00  0.00    -0.028 A 
ATOM     30  C   UNL     1       0.011  -0.707   1.199  0.00  0.00    +0.047 A 
ATOM     31 CL   UNL     1       0.003   0.149   2.710  0.00  0.00    -0.083 Cl
ATOM     32  C   UNL     1      -2.470  -0.387   1.079  0.00  0.00    +0.045 C 
ENDBRANCH  23  27
ENDBRANCH   1  23
TORSDOF 5
