REMARK  Name = ZINC01141674
REMARK  6 active torsions:
REMARK  status: ('A' for Active; 'I' for Inactive)
REMARK    1  A    between atoms: C_1  and  C_2
REMARK    2  A    between atoms: C_2  and  O_3
REMARK    3  A    between atoms: O_3  and  C_4
REMARK    4  A    between atoms: C_4  and  C_6
REMARK    5  A    between atoms: C_7  and  C_21
REMARK    6  A    between atoms: C_12  and  C_14
REMARK                            x       y       z     vdW  Elec       q    Type
REMARK                         _______ _______ _______ _____ _____    ______ ____
ROOT
ATOM      1  C   UNL     1       1.229   1.921  -0.214  0.00  0.00    +0.078 C 
ATOM      2  C   UNL     1       2.391   1.304   0.093  0.00  0.00    +0.019 C 
ATOM      3  N   UNL     1       3.535   2.019   0.298  0.00  0.00    -0.300 N 
ATOM      4  C   UNL     1       3.600   3.354   0.225  0.00  0.00    +0.135 C 
ATOM      5  S   UNL     1       5.100   4.127   0.512  0.00  0.00    -0.019 S 
ATOM      6  N   UNL     1       2.522   4.110  -0.066  0.00  0.00    -0.315 N 
ATOM      7  C   UNL     1       1.238   3.433  -0.311  0.00  0.00    +0.141 C 
ATOM      8  C   UNL     1       2.425  -0.199   0.205  0.00  0.00    +0.061 C 
ATOM      9  H   UNL     1       4.346   1.532   0.512  0.00  0.00    +0.154 HD
ATOM     10  H   UNL     1       2.592   5.076  -0.114  0.00  0.00    +0.149 HD
ENDROOT
BRANCH   7  11
ATOM     11  C   UNL     1       0.769   3.813  -1.692  0.00  0.00    -0.023 A 
ATOM     12  C   UNL     1       1.647   3.760  -2.759  0.00  0.00    +0.007 A 
ATOM     13  C   UNL     1       1.215   4.103  -4.026  0.00  0.00    +0.015 A 
ATOM     14  C   UNL     1      -0.091   4.511  -4.225  0.00  0.00    +0.013 A 
ATOM     15  C   UNL     1      -0.968   4.569  -3.157  0.00  0.00    +0.015 A 
ATOM     16  C   UNL     1      -0.537   4.220  -1.891  0.00  0.00    +0.007 A 
ATOM     17  I   UNL     1      -0.743   5.040  -6.145  0.00  0.00    -0.044 I 
ENDBRANCH   7  11
BRANCH   1  18
ATOM     18  C   UNL     1       0.043   1.181  -0.432  0.00  0.00    +0.339 C 
ATOM     19  O   UNL     1       0.083  -0.035  -0.468  0.00  0.00    -0.245 OA
BRANCH  18  20
ATOM     20  O   UNL     1      -1.131   1.824  -0.604  0.00  0.00    -0.462 OA
BRANCH  20  22
ATOM     21  C   UNL     1      -3.514   1.912  -0.998  0.00  0.00    +0.048 C 
ATOM     22  C   UNL     1      -2.287   1.014  -0.825  0.00  0.00    +0.229 C 
ENDBRANCH  20  22
ENDBRANCH  18  20
ENDBRANCH   1  18
TORSDOF 4
