REMARK  Name = ZINC49514609
REMARK  4 active torsions:
REMARK  status: ('A' for Active; 'I' for Inactive)
REMARK    1  A    between atoms: C_1  and  C_2
REMARK    2  A    between atoms: C_2  and  C_4
REMARK    3  A    between atoms: C_2  and  N_11
REMARK    4  A    between atoms: N_11  and  C_12
REMARK                            x       y       z     vdW  Elec       q    Type
REMARK                         _______ _______ _______ _____ _____    ______ ____
ROOT
ATOM      1  N   UNL     1       0.690  -0.478  -1.207  0.00  0.00    +0.394 N 
ATOM      2  H   UNL     1       1.608  -0.063  -1.256  0.00  0.00    -0.083 HD
ATOM      3  H   UNL     1       0.776  -1.482  -1.172  0.00  0.00    -0.083 HD
ENDROOT
BRANCH   1   4
ATOM      4  C   UNL     1      -0.086  -0.093  -2.394  0.00  0.00    +0.050 C 
ATOM      5  C   UNL     1       0.639  -0.503  -3.655  0.00  0.00    -0.031 A 
ATOM      6  C   UNL     1       1.861  -0.158  -4.187  0.00  0.00    +0.005 A 
ATOM      7  C   UNL     1       2.271  -0.706  -5.389  0.00  0.00    +0.015 A 
ATOM      8  C   UNL     1       1.449  -1.601  -6.053  0.00  0.00    +0.020 A 
ATOM      9  C   UNL     1       0.224  -1.948  -5.522  0.00  0.00    +0.038 A 
ATOM     10  C   UNL     1      -0.195  -1.399  -4.311  0.00  0.00    +0.036 A 
ATOM     11  N   UNL     1      -1.369  -1.589  -3.582  0.00  0.00    -0.286 N 
ATOM     12  C   UNL     1      -1.389  -0.862  -2.448  0.00  0.00    +0.208 C 
ATOM     13  O   UNL     1      -2.280  -0.829  -1.625  0.00  0.00    -0.277 OA
ATOM     14 BR   UNL     1       2.009  -2.350  -7.696  0.00  0.00    -0.050 Br
ATOM     15  H   UNL     1      -2.090  -2.176  -3.859  0.00  0.00    +0.155 HD
ENDBRANCH   1   4
BRANCH   1  17
ATOM     16  C   UNL     1      -0.019   1.526   0.010  0.00  0.00    -0.009 C 
ATOM     17  C   UNL     1       0.002  -0.004   0.002  0.00  0.00    -0.043 C 
BRANCH  17  18
ATOM     18  C   UNL     1       0.731  -0.503   1.223  0.00  0.00    -0.062 A 
ATOM     19  C   UNL     1       2.113  -0.514   1.246  0.00  0.00    +0.003 A 
ATOM     20  C   UNL     1       2.782  -0.971   2.366  0.00  0.00    +0.015 A 
ATOM     21  C   UNL     1       2.068  -1.418   3.463  0.00  0.00    +0.018 A 
ATOM     22  C   UNL     1       0.685  -1.408   3.439  0.00  0.00    +0.015 A 
ATOM     23  C   UNL     1       0.017  -0.945   2.321  0.00  0.00    +0.003 A 
ATOM     24 BR   UNL     1       2.983  -2.045   4.995  0.00  0.00    -0.050 Br
ENDBRANCH  17  18
ENDBRANCH   1  17
TORSDOF 3
