REMARK  Name = ZINC38604737
REMARK  8 active torsions:
REMARK  status: ('A' for Active; 'I' for Inactive)
REMARK    1  A    between atoms: C_1  and  C_2
REMARK    2  A    between atoms: N_5  and  C_11
REMARK    3  A    between atoms: C_7  and  C_10
REMARK    4  A    between atoms: C_11  and  C_12
REMARK    5  A    between atoms: N_14  and  C_15
REMARK    6  A    between atoms: C_23  and  C_25
REMARK    7  A    between atoms: C_25  and  O_27
REMARK    8  A    between atoms: O_27  and  C_28
REMARK                            x       y       z     vdW  Elec       q    Type
REMARK                         _______ _______ _______ _____ _____    ______ ____
ROOT
ATOM      1  C   UNL     1       6.247   0.674  -3.640  0.00  0.00    +0.053 C 
ATOM      2  C   UNL     1       7.184   0.681  -4.659  0.00  0.00    +0.019 A 
ATOM      3  C   UNL     1       7.269  -0.023  -5.884  0.00  0.00    +0.031 A 
ATOM      4  C   UNL     1       8.326   0.187  -6.709  0.00  0.00    +0.042 A 
ATOM      5  C   UNL     1       9.344   1.088  -6.380  0.00  0.00    +0.022 A 
ATOM      6  C   UNL     1       9.328   1.795  -5.225  0.00  0.00    +0.027 A 
ATOM      7  C   UNL     1       8.255   1.631  -4.311  0.00  0.00    +0.045 A 
ATOM      8  N   UNL     1       8.011   2.191  -3.143  0.00  0.00    -0.367 N 
ATOM      9  C   UNL     1       6.749   1.664  -2.614  0.00  0.00    +0.234 C 
ATOM     10 CL   UNL     1       8.417  -0.684  -8.207  0.00  0.00    -0.084 Cl
ATOM     11  H   UNL     1       8.574   2.849  -2.705  0.00  0.00    +0.161 HD
ENDROOT
BRANCH   1  14
ATOM     12  C   UNL     1       4.159   0.226  -2.666  0.00  0.00    +0.231 C 
ATOM     13  O   UNL     1       4.349   1.111  -1.859  0.00  0.00    -0.274 OA
ATOM     14  N   UNL     1       5.106  -0.069  -3.579  0.00  0.00    -0.285 N 
ATOM     15  H   UNL     1       4.975  -0.809  -4.191  0.00  0.00    +0.155 HD
BRANCH  12  16
ATOM     16  C   UNL     1       2.864  -0.544  -2.648  0.00  0.00    +0.181 C 
BRANCH  16  20
ATOM     17  C   UNL     1      -0.344   1.518  -0.770  0.00  0.00    +0.039 C 
ATOM     18  C   UNL     1      -0.224   0.007  -0.561  0.00  0.00    +0.130 C 
ATOM     19  C   UNL     1       0.650  -0.593  -1.666  0.00  0.00    +0.116 C 
ATOM     20  N   UNL     1       2.007  -0.035  -1.569  0.00  0.00    -0.289 NA
ATOM     21  C   UNL     1       2.594  -0.321  -0.251  0.00  0.00    +0.116 C 
ATOM     22  C   UNL     1       1.701   0.277   0.839  0.00  0.00    +0.130 C 
ATOM     23  O   UNL     1       0.378  -0.253   0.710  0.00  0.00    -0.371 OA
ATOM     24  C   UNL     1       2.264  -0.084   2.215  0.00  0.00    +0.039 C 
ENDBRANCH  16  20
ENDBRANCH  12  16
ENDBRANCH   1  14
BRANCH   9  25
ATOM     25  C   UNL     1       6.990   0.971  -1.298  0.00  0.00    +0.335 C 
ATOM     26  O   UNL     1       8.116   0.685  -0.963  0.00  0.00    -0.248 OA
BRANCH  25  27
ATOM     27  O   UNL     1       5.955   0.669  -0.498  0.00  0.00    -0.466 OA
ATOM     28  C   UNL     1       6.257   0.012   0.734  0.00  0.00    +0.280 C 
ENDBRANCH  25  27
ENDBRANCH   9  25
TORSDOF 5
