REMARK  Name = ZINC05433931
REMARK  6 active torsions:
REMARK  status: ('A' for Active; 'I' for Inactive)
REMARK    1  A    between atoms: C_4  and  C_7
REMARK    2  A    between atoms: C_7  and  S_8
REMARK    3  A    between atoms: S_8  and  N_11
REMARK    4  A    between atoms: N_11  and  C_12
REMARK    5  A    between atoms: C_22  and  N_24
REMARK    6  A    between atoms: C_29  and  C_31
REMARK                            x       y       z     vdW  Elec       q    Type
REMARK                         _______ _______ _______ _____ _____    ______ ____
ROOT
ATOM      1  C   UNL     1      -2.859   2.549   1.588  0.00  0.00    +0.133 C 
ATOM      2  C   UNL     1      -3.894   2.234   0.486  0.00  0.00    +0.183 C 
ATOM      3  O   UNL     1      -3.123   1.659  -0.592  0.00  0.00    -0.370 OA
ATOM      4  C   UNL     1      -1.922   2.451  -0.658  0.00  0.00    +0.171 C 
ATOM      5  C   UNL     1      -1.519   2.676   0.826  0.00  0.00    +0.170 C 
ATOM      6  O   UNL     1      -0.695   1.554   1.173  0.00  0.00    -0.370 OA
ATOM      7  C   UNL     1      -0.013   1.086   0.008  0.00  0.00    +0.185 C 
ATOM      8  C   UNL     1      -0.771   1.602  -1.226  0.00  0.00    +0.130 C 
ENDROOT
BRANCH   8   9
ATOM      9  N   UNL     1       0.110   2.428  -2.056  0.00  0.00    -0.306 N 
ATOM     10  C   UNL     1       0.915   1.835  -3.012  0.00  0.00    +0.216 A 
ATOM     11  N   UNL     1       0.876   0.518  -3.163  0.00  0.00    -0.223 NA
ATOM     12  C   UNL     1       1.631  -0.088  -4.067  0.00  0.00    +0.116 A 
ATOM     13  C   UNL     1       2.471   0.666  -4.863  0.00  0.00    +0.051 A 
ATOM     14  C   UNL     1       2.492   2.055  -4.683  0.00  0.00    +0.111 A 
ATOM     15  N   UNL     1       1.700   2.597  -3.756  0.00  0.00    -0.211 NA
ATOM     16  H   UNL     1       0.128   3.390  -1.935  0.00  0.00    +0.149 HD
BRANCH  14  17
ATOM     17  C   UNL     1       3.371   2.905  -5.508  0.00  0.00    +0.153 A 
ATOM     18  C   UNL     1       3.475   4.260  -5.431  0.00  0.00    +0.051 A 
ATOM     19  C   UNL     1       4.426   4.650  -6.392  0.00  0.00    +0.042 A 
ATOM     20  C   UNL     1       4.845   3.527  -7.011  0.00  0.00    +0.196 A 
ATOM     21  O   UNL     1       4.207   2.476  -6.475  0.00  0.00    -0.461 OA
ENDBRANCH  14  17
ENDBRANCH   8   9
BRANCH   1  22
ATOM     22  N   UNL     1      -3.189   3.808   2.260  0.00  0.00    -0.186 NA
ATOM     23  H   UNL     1      -2.957   4.654   1.845  0.00  0.00    +0.148 HD
BRANCH  22  24
ATOM     24  S   UNL     1      -3.958   3.788   3.726  0.00  0.00    +0.034 S 
ATOM     25  O   UNL     1      -4.137   5.157   4.061  0.00  0.00    -0.158 OA
ATOM     26  O   UNL     1      -5.079   2.936   3.536  0.00  0.00    -0.158 OA
BRANCH  24  27
ATOM     27  C   UNL     1      -2.773   3.016   4.863  0.00  0.00    +0.220 C 
BRANCH  27  31
ATOM     28  C   UNL     1      -4.477   2.814   8.775  0.00  0.00    +0.000 A 
ATOM     29  C   UNL     1      -4.659   1.770   7.887  0.00  0.00    +0.000 A 
ATOM     30  C   UNL     1      -4.107   1.836   6.621  0.00  0.00    +0.005 A 
ATOM     31  C   UNL     1      -3.375   2.945   6.243  0.00  0.00    -0.025 A 
ATOM     32  C   UNL     1      -3.188   3.987   7.132  0.00  0.00    +0.005 A 
ATOM     33  C   UNL     1      -3.744   3.924   8.397  0.00  0.00    +0.000 A 
ENDBRANCH  27  31
ENDBRANCH  24  27
ENDBRANCH  22  24
ENDBRANCH   1  22
TORSDOF 6
