REMARK  Name = ZINC08298998
REMARK  12 active torsions:
REMARK  status: ('A' for Active; 'I' for Inactive)
REMARK    1  A    between atoms: C_1  and  N_71
REMARK    2  A    between atoms: C_2  and  C_3
REMARK    3  A    between atoms: C_2  and  N_71
REMARK    4  A    between atoms: C_9  and  C_10
REMARK    5  A    between atoms: C_9  and  N_71
REMARK    6  A    between atoms: N_12  and  C_15
REMARK    7  A    between atoms: C_15  and  C_16
REMARK    8  A    between atoms: C_24  and  C_26
REMARK    9  A    between atoms: N_28  and  C_29
REMARK   10  A    between atoms: C_29  and  C_30
REMARK   11  A    between atoms: C_35  and  O_36
REMARK   12  A    between atoms: O_36  and  C_37
REMARK                            x       y       z     vdW  Elec       q    Type
REMARK                         _______ _______ _______ _____ _____    ______ ____
ROOT
ATOM      1  C   UNL     1       5.304   0.503   4.102  0.00  0.00    -0.046 C 
ATOM      2  C   UNL     1       6.168  -0.457   4.925  0.00  0.00    -0.010 C 
ATOM      3  C   UNL     1       7.587  -0.469   4.343  0.00  0.00    -0.004 C 
ATOM      4  C   UNL     1       8.148   0.957   4.391  0.00  0.00    -0.015 C 
ATOM      5  C   UNL     1       7.230   1.878   3.583  0.00  0.00    -0.078 C 
ATOM      6  C   UNL     1       6.609   0.058   2.111  0.00  0.00    -0.065 C 
ATOM      7  C   UNL     1       7.510  -0.915   2.877  0.00  0.00    +0.061 C 
ATOM      8  N   UNL     1       6.101   1.112   3.015  0.00  0.00    +0.383 N 
ATOM      9  H   UNL     1       5.501   1.750   2.479  0.00  0.00    -0.081 HD
ENDROOT
BRANCH   7  10
ATOM     10  C   UNL     1       6.933  -2.305   2.799  0.00  0.00    +0.215 C 
ATOM     11  O   UNL     1       6.622  -2.891   3.814  0.00  0.00    -0.276 OA
ATOM     12  N   UNL     1       6.761  -2.897   1.600  0.00  0.00    -0.311 N 
ATOM     13  H   UNL     1       7.010  -2.429   0.788  0.00  0.00    +0.149 HD
BRANCH  12  14
ATOM     14  C   UNL     1       6.200  -4.248   1.524  0.00  0.00    +0.143 C 
BRANCH  14  15
ATOM     15  C   UNL     1       6.114  -4.676   0.082  0.00  0.00    +0.011 A 
ATOM     16  C   UNL     1       4.909  -4.600  -0.591  0.00  0.00    +0.009 A 
ATOM     17  C   UNL     1       4.829  -4.992  -1.914  0.00  0.00    +0.001 A 
ATOM     18  C   UNL     1       5.954  -5.461  -2.568  0.00  0.00    +0.004 A 
ATOM     19  C   UNL     1       7.161  -5.537  -1.901  0.00  0.00    +0.046 A 
ATOM     20  C   UNL     1       7.245  -5.140  -0.574  0.00  0.00    +0.125 A 
BRANCH  20  21
ATOM     21  O   UNL     1       8.432  -5.210   0.084  0.00  0.00    -0.495 OA
ATOM     22  C   UNL     1       9.554  -5.699  -0.654  0.00  0.00    +0.277 C 
ENDBRANCH  20  21
ENDBRANCH  14  15
ENDBRANCH  12  14
ENDBRANCH   7  10
BRANCH   1  23
ATOM     23  C   UNL     1       4.130  -0.263   3.490  0.00  0.00    +0.130 C 
BRANCH  23  26
ATOM     24  C   UNL     1       2.039   1.654   1.290  0.00  0.00    +0.066 A 
ATOM     25  C   UNL     1       2.847   0.590   1.508  0.00  0.00    +0.131 A 
ATOM     26  N   UNL     1       3.241   0.675   2.800  0.00  0.00    -0.253 N 
ATOM     27  N   UNL     1       2.695   1.718   3.321  0.00  0.00    -0.066 NA
ATOM     28  N   UNL     1       1.972   2.323   2.446  0.00  0.00    -0.136 NA
BRANCH  24  29
ATOM     29  C   UNL     1       1.346   2.010   0.000  0.00  0.00    -0.019 C 
BRANCH  29  31
ATOM     30  C   UNL     1       0.002  -0.004   0.002  0.00  0.00    -0.095 C 
ATOM     31  N   UNL     1      -0.030   1.473   0.034  0.00  0.00    +0.384 N 
ATOM     32  H   UNL     1      -0.486   1.778   0.903  0.00  0.00    -0.081 HD
BRANCH  31  33
ATOM     33  C   UNL     1      -0.802   1.987  -1.117  0.00  0.00    -0.043 C 
BRANCH  33  34
ATOM     34  C   UNL     1      -2.249   1.608  -0.941  0.00  0.00    -0.064 A 
ATOM     35  C   UNL     1      -2.723   0.421  -1.469  0.00  0.00    +0.002 A 
ATOM     36  C   UNL     1      -4.050   0.071  -1.303  0.00  0.00    +0.000 A 
ATOM     37  C   UNL     1      -4.906   0.912  -0.618  0.00  0.00    +0.000 A 
ATOM     38  C   UNL     1      -4.434   2.102  -0.094  0.00  0.00    +0.000 A 
ATOM     39  C   UNL     1      -3.106   2.449  -0.256  0.00  0.00    +0.002 A 
ENDBRANCH  33  34
ENDBRANCH  31  33
ENDBRANCH  29  31
ENDBRANCH  24  29
ENDBRANCH  23  26
ENDBRANCH   1  23
TORSDOF 10
