REMARK  Name = ZINC09541837
REMARK  5 active torsions:
REMARK  status: ('A' for Active; 'I' for Inactive)
REMARK    1  A    between atoms: C_1  and  C_2
REMARK    2  A    between atoms: C_5  and  C_8
REMARK    3  A    between atoms: C_10  and  C_22
REMARK    4  A    between atoms: C_13  and  C_15
REMARK    5  A    between atoms: C_27  and  O_28
REMARK                            x       y       z     vdW  Elec       q    Type
REMARK                         _______ _______ _______ _____ _____    ______ ____
ROOT
ATOM      1  C   UNL     1       0.058  -4.275  -0.021  0.00  0.00    +0.081 C 
ATOM      2  C   UNL     1       2.183  -4.427  -1.154  0.00  0.00    -0.028 C 
ATOM      3  C   UNL     1       2.800  -5.277  -0.039  0.00  0.00    +0.044 C 
ATOM      4  C   UNL     1       1.941  -5.192   1.191  0.00  0.00    +0.040 C 
ATOM      5  N   UNL     1       0.739  -4.753   1.175  0.00  0.00    -0.299 NA
ATOM      6  N   UNL     1       0.744  -4.746  -1.235  0.00  0.00    +0.401 N 
ATOM      7  H   UNL     1       0.338  -4.283  -2.056  0.00  0.00    -0.081 HD
ATOM      8  H   UNL     1       0.624  -5.762  -1.321  0.00  0.00    -0.081 HD
ENDROOT
BRANCH   1  13
ATOM      9  C   UNL     1      -0.018   1.503   0.010  0.00  0.00    +0.044 C 
ATOM     10  C   UNL     1       0.002  -0.004   0.002  0.00  0.00    -0.050 A 
ATOM     11  C   UNL     1      -0.006  -0.689  -1.199  0.00  0.00    +0.003 A 
ATOM     12  C   UNL     1       0.018  -2.071  -1.206  0.00  0.00    +0.004 A 
ATOM     13  C   UNL     1       0.039  -2.768  -0.013  0.00  0.00    -0.040 A 
ATOM     14  C   UNL     1       0.041  -2.084   1.188  0.00  0.00    +0.004 A 
ATOM     15  C   UNL     1       0.023  -0.702   1.195  0.00  0.00    +0.003 A 
ENDBRANCH   1  13
BRANCH   4  16
ATOM     16  C   UNL     1       2.511  -5.635   2.479  0.00  0.00    -0.003 A 
ATOM     17  C   UNL     1       3.817  -6.126   2.536  0.00  0.00    +0.010 A 
ATOM     18  C   UNL     1       4.346  -6.533   3.743  0.00  0.00    +0.002 A 
ATOM     19  C   UNL     1       3.581  -6.467   4.895  0.00  0.00    +0.015 A 
ATOM     20  C   UNL     1       2.283  -5.988   4.845  0.00  0.00    +0.018 A 
ATOM     21  C   UNL     1       1.744  -5.572   3.644  0.00  0.00    +0.025 A 
ATOM     22 BR   UNL     1       1.247  -5.903   6.424  0.00  0.00    -0.050 Br
ENDBRANCH   4  16
BRANCH   2  23
ATOM     23  C   UNL     1       2.846  -4.750  -2.468  0.00  0.00    -0.019 A 
ATOM     24  C   UNL     1       2.242  -5.625  -3.350  0.00  0.00    +0.005 A 
ATOM     25  C   UNL     1       2.847  -5.918  -4.558  0.00  0.00    +0.000 A 
ATOM     26  C   UNL     1       4.063  -5.345  -4.882  0.00  0.00    +0.004 A 
ATOM     27  C   UNL     1       4.673  -4.473  -4.001  0.00  0.00    +0.045 A 
ATOM     28  C   UNL     1       4.065  -4.173  -2.790  0.00  0.00    +0.118 A 
BRANCH  28  29
ATOM     29  O   UNL     1       4.664  -3.317  -1.921  0.00  0.00    -0.507 OA
ATOM     30  H   UNL     1       5.258  -3.747  -1.291  0.00  0.00    +0.292 HD
ENDBRANCH  28  29
ENDBRANCH   2  23
TORSDOF 4
