REMARK  Name = ZINC10828005
REMARK  8 active torsions:
REMARK  status: ('A' for Active; 'I' for Inactive)
REMARK    1  A    between atoms: C_1  and  C_2
REMARK    2  A    between atoms: C_3  and  C_12
REMARK    3  A    between atoms: C_12  and  C_34
REMARK    4  A    between atoms: N_13  and  N_14
REMARK    5  A    between atoms: C_15  and  C_17
REMARK    6  A    between atoms: C_20  and  C_23
REMARK    7  A    between atoms: C_23  and  S_24
REMARK    8  A    between atoms: S_24  and  C_25
REMARK                            x       y       z     vdW  Elec       q    Type
REMARK                         _______ _______ _______ _____ _____    ______ ____
ROOT
ATOM      1  N   UNL     1      -4.889  -0.399   0.071  0.00  0.00    -0.203 N 
ATOM      2  C   UNL     1      -5.974  -1.187   0.205  0.00  0.00    +0.263 C 
ATOM      3  O   UNL     1      -5.841  -2.387   0.345  0.00  0.00    -0.268 OA
ATOM      4  H   UNL     1      -4.995   0.558  -0.041  0.00  0.00    +0.178 HD
ENDROOT
BRANCH   2   5
ATOM      5  C   UNL     1      -7.327  -0.591   0.183  0.00  0.00    +0.038 A 
ATOM      6  C   UNL     1      -7.483   0.786   0.017  0.00  0.00    +0.013 A 
ATOM      7  C   UNL     1      -8.748   1.336  -0.004  0.00  0.00    +0.005 A 
ATOM      8  C   UNL     1      -9.861   0.526   0.141  0.00  0.00    -0.037 A 
ATOM      9  C   UNL     1      -9.713  -0.840   0.306  0.00  0.00    +0.005 A 
ATOM     10  C   UNL     1      -8.453  -1.403   0.322  0.00  0.00    +0.013 A 
BRANCH   8  11
ATOM     11  C   UNL     1     -11.239   1.133   0.118  0.00  0.00    +0.111 C 
BRANCH  11  12
ATOM     12  S   UNL     1     -11.858   1.165  -1.586  0.00  0.00    -0.094 S 
BRANCH  12  13
ATOM     13  C   UNL     1     -13.457   1.893  -1.446  0.00  0.00    +0.136 A 
ATOM     14  N   UNL     1     -14.074   2.326  -0.369  0.00  0.00    -0.233 NA
ATOM     15  C   UNL     1     -15.311   2.868  -0.411  0.00  0.00    +0.079 A 
ATOM     16  C   UNL     1     -16.081   3.368   0.665  0.00  0.00    +0.029 A 
ATOM     17  C   UNL     1     -17.330   3.888   0.449  0.00  0.00    +0.002 A 
ATOM     18  C   UNL     1     -17.883   3.944  -0.823  0.00  0.00    +0.001 A 
ATOM     19  C   UNL     1     -17.157   3.464  -1.898  0.00  0.00    +0.017 A 
ATOM     20  C   UNL     1     -15.905   2.941  -1.691  0.00  0.00    +0.040 A 
ATOM     21  S   UNL     1     -14.649   2.239  -2.732  0.00  0.00    -0.061 S 
ENDBRANCH  12  13
ENDBRANCH  11  12
ENDBRANCH   8  11
ENDBRANCH   2   5
BRANCH   1  23
ATOM     22  C   UNL     1      -2.561  -0.205  -0.038  0.00  0.00    +0.070 C 
ATOM     23  N   UNL     1      -3.607  -0.964   0.092  0.00  0.00    -0.184 NA
ATOM     24  C   UNL     1      -2.726   1.282  -0.211  0.00  0.00    +0.068 C 
BRANCH  22  27
ATOM     25  C   UNL     1      -1.063  -0.304   2.425  0.00  0.00    +0.064 C 
ATOM     26  C   UNL     1      -0.489  -0.854   1.144  0.00  0.00    +0.031 A 
ATOM     27  C   UNL     1      -1.213  -0.799  -0.015  0.00  0.00    +0.081 A 
ATOM     28  C   UNL     1      -0.610  -1.349  -1.240  0.00  0.00    +0.263 A 
ATOM     29  O   UNL     1      -1.214  -1.324  -2.296  0.00  0.00    -0.267 OA
ATOM     30  N   UNL     1       0.627  -1.883  -1.167  0.00  0.00    -0.275 N 
ATOM     31  H   UNL     1       1.042  -2.251  -1.963  0.00  0.00    +0.173 HD
ATOM     32  C   UNL     1       1.289  -1.907   0.004  0.00  0.00    +0.327 A 
ATOM     33  O   UNL     1       2.403  -2.393   0.042  0.00  0.00    -0.247 OA
ATOM     34  N   UNL     1       0.758  -1.406   1.130  0.00  0.00    -0.311 N 
ATOM     35  H   UNL     1       1.271  -1.440   1.953  0.00  0.00    +0.170 HD
ENDBRANCH  22  27
ENDBRANCH   1  23
TORSDOF 6
