REMARK  Name = ZINC35341311
REMARK  4 active torsions:
REMARK  status: ('A' for Active; 'I' for Inactive)
REMARK    1  A    between atoms: C_1  and  C_2
REMARK    2  A    between atoms: C_5  and  N_9
REMARK    3  A    between atoms: N_9  and  C_10
REMARK    4  A    between atoms: C_15  and  N_16
REMARK                            x       y       z     vdW  Elec       q    Type
REMARK                         _______ _______ _______ _____ _____    ______ ____
ROOT
ATOM      1  C   UNL     1      -0.030  -4.817  -1.262  0.00  0.00    +0.053 A 
ATOM      2  C   UNL     1      -0.033  -4.076  -2.435  0.00  0.00    +0.030 A 
ATOM      3  C   UNL     1      -0.122  -4.714  -3.657  0.00  0.00    -0.024 A 
ATOM      4  C   UNL     1      -0.209  -6.099  -3.716  0.00  0.00    +0.038 A 
ATOM      5  C   UNL     1      -0.207  -6.846  -2.545  0.00  0.00    +0.048 A 
ATOM      6  C   UNL     1      -0.112  -6.208  -1.318  0.00  0.00    +0.048 A 
ATOM      7  N   UNL     1      -0.299  -6.741  -4.957  0.00  0.00    -0.285 N 
ATOM      8  C   UNL     1       0.065  -6.101  -6.083  0.00  0.00    +0.218 C 
ATOM      9  O   UNL     1      -0.033  -6.666  -7.152  0.00  0.00    -0.275 OA
ATOM     10  C   UNL     1       0.591  -4.692  -6.032  0.00  0.00    +0.101 C 
ATOM     11  C   UNL     1      -0.124  -3.909  -4.931  0.00  0.00    +0.046 C 
ATOM     12  H   UNL     1      -0.626  -7.653  -5.005  0.00  0.00    +0.155 HD
ENDROOT
BRANCH   6  13
ATOM     13  N   UNL     1      -0.103  -6.959  -0.137  0.00  0.00    -0.356 N 
ATOM     14  H   UNL     1      -0.041  -6.512   0.722  0.00  0.00    +0.142 HD
ATOM     15  H   UNL     1      -0.160  -7.926  -0.177  0.00  0.00    +0.142 HD
ENDBRANCH   6  13
BRANCH   1  16
ATOM     16  N   UNL     1       0.059  -4.168  -0.023  0.00  0.00    -0.312 N 
ATOM     17  H   UNL     1      -0.022  -4.678   0.798  0.00  0.00    +0.152 HD
BRANCH  16  22
ATOM     18  C   UNL     1       0.901   1.437   0.191  0.00  0.00    +0.044 C 
ATOM     19  C   UNL     1       0.677  -0.053   0.134  0.00  0.00    -0.049 A 
ATOM     20  C   UNL     1       1.397  -0.825  -0.759  0.00  0.00    +0.005 A 
ATOM     21  C   UNL     1       1.195  -2.190  -0.813  0.00  0.00    +0.024 A 
ATOM     22  C   UNL     1       0.267  -2.788   0.030  0.00  0.00    +0.046 A 
ATOM     23  C   UNL     1      -0.456  -2.009   0.926  0.00  0.00    +0.039 A 
ATOM     24  C   UNL     1      -0.244  -0.644   0.979  0.00  0.00    +0.020 A 
ATOM     25 BR   UNL     1      -1.721  -2.816   2.077  0.00  0.00    -0.048 Br
ENDBRANCH  16  22
ENDBRANCH   1  16
TORSDOF 3
