REMARK  Name = ZINC10117206
REMARK  3 active torsions:
REMARK  status: ('A' for Active; 'I' for Inactive)
REMARK    1  A    between atoms: N_10  and  N_11
REMARK    2  A    between atoms: C_12  and  C_13
REMARK    3  A    between atoms: C_18  and  C_19
REMARK                            x       y       z     vdW  Elec       q    Type
REMARK                         _______ _______ _______ _____ _____    ______ ____
ROOT
ATOM      1  C   UNL     1      -5.294   0.122   0.227  0.00  0.00    +0.040 A 
ATOM      2  C   UNL     1      -6.161  -0.901  -0.038  0.00  0.00    +0.115 A 
ATOM      3  N   UNL     1      -5.914  -1.345  -1.285  0.00  0.00    -0.284 N 
ATOM      4  H   UNL     1      -6.399  -2.093  -1.739  0.00  0.00    +0.188 HD
ATOM      5  N   UNL     1      -4.874  -0.599  -1.849  0.00  0.00    -0.173 NA
ATOM      6  C   UNL     1      -4.467   0.292  -0.970  0.00  0.00    +0.101 A 
ENDROOT
BRANCH   6   7
ATOM      7  C   UNL     1      -3.382   1.284  -1.159  0.00  0.00    +0.006 A 
ATOM      8  C   UNL     1      -3.574   2.611  -0.776  0.00  0.00    +0.014 A 
ATOM      9  C   UNL     1      -2.564   3.533  -0.957  0.00  0.00    +0.050 A 
ATOM     10  C   UNL     1      -1.353   3.144  -1.512  0.00  0.00    +0.162 A 
ATOM     11  C   UNL     1      -1.155   1.821  -1.893  0.00  0.00    +0.163 A 
ATOM     12  C   UNL     1      -2.167   0.893  -1.718  0.00  0.00    +0.059 A 
ATOM     13  O   UNL     1       0.027   1.423  -2.438  0.00  0.00    -0.485 OA
ATOM     14  C   UNL     1       0.882   2.454  -2.944  0.00  0.00    +0.270 C 
ATOM     15  C   UNL     1       0.954   3.574  -1.897  0.00  0.00    +0.270 C 
ATOM     16  O   UNL     1      -0.370   4.071  -1.681  0.00  0.00    -0.485 OA
ENDBRANCH   6   7
BRANCH   1  18
ATOM     17  N   UNL     1      -4.262   1.778   1.629  0.00  0.00    -0.188 NA
ATOM     18  C   UNL     1      -5.208   0.903   1.474  0.00  0.00    +0.142 C 
BRANCH  17  28
ATOM     19  C   UNL     1      -0.606   7.024   4.772  0.00  0.00    +0.002 A 
ATOM     20  C   UNL     1       0.375   6.739   3.833  0.00  0.00    +0.001 A 
ATOM     21  C   UNL     1       0.172   5.707   2.934  0.00  0.00    +0.017 A 
ATOM     22  C   UNL     1      -0.993   4.984   2.984  0.00  0.00    +0.041 A 
ATOM     23  C   UNL     1      -2.014   5.247   3.925  0.00  0.00    +0.080 A 
ATOM     24  C   UNL     1      -1.773   6.308   4.829  0.00  0.00    +0.029 A 
ATOM     25  N   UNL     1      -3.101   4.449   3.848  0.00  0.00    -0.224 NA
ATOM     26  C   UNL     1      -3.209   3.488   2.957  0.00  0.00    +0.179 A 
ATOM     27  S   UNL     1      -1.663   3.616   2.070  0.00  0.00    -0.051 S 
ATOM     28  N   UNL     1      -4.248   2.603   2.762  0.00  0.00    -0.215 N 
ATOM     29  H   UNL     1      -4.969   2.550   3.408  0.00  0.00    +0.176 HD
ENDBRANCH  17  28
ENDBRANCH   1  18
TORSDOF 3
