REMARK  Name = ZINC20722538
REMARK  5 active torsions:
REMARK  status: ('A' for Active; 'I' for Inactive)
REMARK    1  A    between atoms: C_5  and  C_7
REMARK    2  A    between atoms: C_7  and  O_8
REMARK    3  A    between atoms: O_8  and  C_9
REMARK    4  A    between atoms: C_13  and  C_15
REMARK    5  A    between atoms: C_24  and  O_27
REMARK                            x       y       z     vdW  Elec       q    Type
REMARK                         _______ _______ _______ _____ _____    ______ ____
ROOT
ATOM      1  C   UNL     1      -0.272  -4.030  -0.017  0.00  0.00    +0.121 A 
ATOM      2  C   UNL     1       0.839  -4.861  -0.027  0.00  0.00    +0.045 A 
ATOM      3  C   UNL     1       0.674  -6.233  -0.033  0.00  0.00    +0.004 A 
ATOM      4  C   UNL     1      -0.598  -6.777  -0.028  0.00  0.00    +0.005 A 
ATOM      5  C   UNL     1      -1.706  -5.951  -0.019  0.00  0.00    -0.026 A 
ATOM      6  C   UNL     1      -1.546  -4.579  -0.007  0.00  0.00    +0.050 A 
ENDROOT
BRANCH   5   7
ATOM      7  C   UNL     1      -3.090  -6.548  -0.014  0.00  0.00    +0.112 C 
ATOM      8  C   UNL     1      -3.260  -7.366   1.230  0.00  0.00    +0.033 A 
ATOM      9  C   UNL     1      -2.555  -7.117   2.369  0.00  0.00    +0.112 A 
ATOM     10  N   UNL     1      -2.936  -8.007   3.303  0.00  0.00    -0.282 N 
ATOM     11  H   UNL     1      -2.597  -8.061   4.210  0.00  0.00    +0.188 HD
ATOM     12  N   UNL     1      -3.904  -8.837   2.737  0.00  0.00    -0.154 NA
ATOM     13  C   UNL     1      -4.103  -8.457   1.474  0.00  0.00    +0.182 A 
ATOM     14  N   UNL     1      -4.983  -9.106   0.678  0.00  0.00    -0.195 NA
ATOM     15  C   UNL     1      -5.380  -8.999  -0.503  0.00  0.00    +0.199 C 
ATOM     16  C   UNL     1      -5.039  -8.001  -1.536  0.00  0.00    +0.165 C 
ATOM     17  S   UNL     1      -3.309  -7.514  -1.513  0.00  0.00    -0.138 S 
BRANCH  15  18
ATOM     18  O   UNL     1      -6.259  -9.944  -0.895  0.00  0.00    -0.495 OA
ATOM     19  H   UNL     1      -6.472 -10.591  -0.208  0.00  0.00    +0.293 HD
ENDBRANCH  15  18
ENDBRANCH   5   7
BRANCH   1  20
ATOM     20  O   UNL     1      -0.112  -2.680  -0.011  0.00  0.00    -0.487 OA
BRANCH  20  21
ATOM     21  C   UNL     1       1.229  -2.186  -0.022  0.00  0.00    +0.266 C 
BRANCH  21  26
ATOM     22  C   UNL     1      -0.017   1.378   0.010  0.00  0.00    +0.000 A 
ATOM     23  C   UNL     1       1.171   2.086   0.002  0.00  0.00    +0.001 A 
ATOM     24  C   UNL     1       2.377   1.412  -0.013  0.00  0.00    +0.020 A 
ATOM     25  C   UNL     1       2.397   0.029  -0.021  0.00  0.00    +0.047 A 
ATOM     26  C   UNL     1       1.208  -0.679  -0.013  0.00  0.00    +0.008 A 
ATOM     27  C   UNL     1       0.002  -0.004   0.002  0.00  0.00    +0.008 A 
ATOM     28 CL   UNL     1       3.912  -0.818  -0.041  0.00  0.00    -0.083 Cl
ENDBRANCH  21  26
ENDBRANCH  20  21
ENDBRANCH   1  20
TORSDOF 5
