REMARK  Name = ZINC13018262
REMARK  12 active torsions:
REMARK  status: ('A' for Active; 'I' for Inactive)
REMARK    1  A    between atoms: C_1  and  O_2
REMARK    2  A    between atoms: O_2  and  C_3
REMARK    3  A    between atoms: C_3  and  C_5
REMARK    4  A    between atoms: C_5  and  N_6
REMARK    5  A    between atoms: C_9  and  C_22
REMARK    6  A    between atoms: C_10  and  N_21
REMARK    7  A    between atoms: N_11  and  C_14
REMARK    8  A    between atoms: C_14  and  C_15
REMARK    9  A    between atoms: C_22  and  C_24
REMARK   10  A    between atoms: C_24  and  O_25
REMARK   11  A    between atoms: O_25  and  C_26
REMARK   12  A    between atoms: C_26  and  C_28
REMARK                            x       y       z     vdW  Elec       q    Type
REMARK                         _______ _______ _______ _____ _____    ______ ____
ROOT
ATOM      1  N   UNL     1       8.354  -5.336  -0.238  0.00  0.00    -0.249 N 
ATOM      2  C   UNL     1       7.311  -4.481  -0.218  0.00  0.00    +0.270 A 
ATOM      3  O   UNL     1       7.490  -3.280  -0.300  0.00  0.00    -0.267 OA
ATOM      4  C   UNL     1       5.954  -5.029  -0.088  0.00  0.00    +0.123 A 
ATOM      5  C   UNL     1       5.815  -6.425  -0.003  0.00  0.00    +0.116 A 
ATOM      6  N   UNL     1       6.936  -7.204  -0.040  0.00  0.00    -0.277 N 
ATOM      7  C   UNL     1       8.159  -6.662  -0.154  0.00  0.00    +0.334 A 
ATOM      8  O   UNL     1       9.125  -7.399  -0.181  0.00  0.00    -0.246 OA
ENDROOT
BRANCH   5   9
ATOM      9  N   UNL     1       4.583  -6.991   0.112  0.00  0.00    -0.344 N 
ATOM     10  H   UNL     1       3.788  -6.439   0.055  0.00  0.00    +0.144 HD
ATOM     11  H   UNL     1       4.500  -7.947   0.252  0.00  0.00    +0.144 HD
ENDBRANCH   5   9
BRANCH   4  12
ATOM     12  C   UNL     1       4.827  -4.181  -0.054  0.00  0.00    +0.209 C 
ATOM     13  O   UNL     1       3.709  -4.657  -0.060  0.00  0.00    -0.288 OA
BRANCH  12  14
ATOM     14  C   UNL     1       5.009  -2.686  -0.012  0.00  0.00    +0.312 C 
BRANCH  14  15
ATOM     15  O   UNL     1       3.709  -2.040   0.017  0.00  0.00    -0.453 OA
BRANCH  15  16
ATOM     16  C   UNL     1       3.695  -0.693   0.056  0.00  0.00    +0.340 C 
ATOM     17  O   UNL     1       4.741  -0.075   0.067  0.00  0.00    -0.245 OA
BRANCH  16  18
ATOM     18  C   UNL     1       2.411   0.031   0.087  0.00  0.00    +0.063 A 
ATOM     19  C   UNL     1       1.206  -0.678   0.075  0.00  0.00    +0.019 A 
ATOM     20  C   UNL     1       0.009   0.001   0.103  0.00  0.00    +0.050 A 
ATOM     21  C   UNL     1      -0.009   1.391   0.143  0.00  0.00    +0.162 A 
ATOM     22  C   UNL     1       1.188   2.103   0.158  0.00  0.00    +0.163 A 
ATOM     23  C   UNL     1       2.394   1.427   0.129  0.00  0.00    +0.064 A 
ATOM     24  O   UNL     1       1.188   3.463   0.205  0.00  0.00    -0.485 OA
ATOM     25  C   UNL     1      -0.036   4.119  -0.142  0.00  0.00    +0.270 C 
ATOM     26  C   UNL     1      -1.185   3.408   0.585  0.00  0.00    +0.270 C 
ATOM     27  O   UNL     1      -1.203   2.039   0.161  0.00  0.00    -0.485 OA
ENDBRANCH  16  18
ENDBRANCH  15  16
ENDBRANCH  14  15
ENDBRANCH  12  14
ENDBRANCH   4  12
BRANCH   1  28
ATOM     28  C   UNL     1       9.716  -4.812  -0.361  0.00  0.00    +0.250 C 
BRANCH  28  29
ATOM     29  C   UNL     1      10.085  -4.708  -1.819  0.00  0.00    +0.327 C 
ATOM     30  O   UNL     1       9.291  -5.038  -2.668  0.00  0.00    -0.249 OA
BRANCH  29  32
ATOM     31  C   UNL     1      11.582  -4.176  -3.595  0.00  0.00    +0.280 C 
ATOM     32  O   UNL     1      11.295  -4.249  -2.174  0.00  0.00    -0.467 OA
ENDBRANCH  29  32
ENDBRANCH  28  29
ENDBRANCH   1  28
BRANCH   6  33
ATOM     33  C   UNL     1       6.801  -8.660   0.048  0.00  0.00    +0.163 C 
BRANCH  33  34
ATOM     34  C   UNL     1       6.657  -9.236  -1.337  0.00  0.00    -0.028 A 
ATOM     35  C   UNL     1       5.400  -9.390  -1.893  0.00  0.00    +0.005 A 
ATOM     36  C   UNL     1       5.268  -9.914  -3.166  0.00  0.00    +0.000 A 
ATOM     37  C   UNL     1       6.390 -10.292  -3.878  0.00  0.00    +0.000 A 
ATOM     38  C   UNL     1       7.646 -10.142  -3.320  0.00  0.00    +0.000 A 
ATOM     39  C   UNL     1       7.779  -9.614  -2.050  0.00  0.00    +0.005 A 
ENDBRANCH  33  34
ENDBRANCH   6  33
TORSDOF 11
