REMARK  Name = ZINC34762412
REMARK  13 active torsions:
REMARK  status: ('A' for Active; 'I' for Inactive)
REMARK    1  A    between atoms: C_1  and  C_2
REMARK    2  A    between atoms: C_2  and  C_3
REMARK    3  A    between atoms: C_4  and  C_36
REMARK    4  A    between atoms: C_8  and  N_21
REMARK    5  A    between atoms: C_10  and  S_12
REMARK    6  A    between atoms: S_12  and  C_13
REMARK    7  A    between atoms: C_13  and  C_14
REMARK    8  A    between atoms: N_16  and  C_17
REMARK    9  A    between atoms: N_16  and  C_19
REMARK   10  A    between atoms: C_17  and  C_18
REMARK   11  A    between atoms: C_19  and  C_20
REMARK   12  A    between atoms: N_24  and  C_27
REMARK   13  A    between atoms: C_27  and  C_28
REMARK                            x       y       z     vdW  Elec       q    Type
REMARK                         _______ _______ _______ _____ _____    ______ ____
ROOT
ATOM      1  C   UNL     1       0.821  -0.607   1.121  0.00  0.00    -0.025 A 
ATOM      2  C   UNL     1       2.146  -0.755   0.986  0.00  0.00    -0.007 A 
ATOM      3  S   UNL     1       2.666  -1.337   2.589  0.00  0.00    -0.073 S 
ATOM      4  C   UNL     1       1.088  -1.365   3.397  0.00  0.00    +0.115 A 
ATOM      5  C   UNL     1       0.199  -0.915   2.397  0.00  0.00    +0.051 A 
ATOM      6  C   UNL     1      -1.168  -0.835   2.784  0.00  0.00    +0.134 A 
ATOM      7  N   UNL     1      -1.513  -1.170   4.016  0.00  0.00    -0.206 NA
ATOM      8  C   UNL     1      -0.623  -1.582   4.910  0.00  0.00    +0.191 A 
ATOM      9  N   UNL     1       0.663  -1.686   4.604  0.00  0.00    -0.214 NA
ATOM     10  C   UNL     1       2.995  -0.492  -0.232  0.00  0.00    +0.052 C 
ENDROOT
BRANCH   6  11
ATOM     11  N   UNL     1      -2.126  -0.410   1.881  0.00  0.00    -0.318 N 
ATOM     12  C   UNL     1      -2.869  -1.375   1.057  0.00  0.00    +0.088 C 
ATOM     13  C   UNL     1      -4.366  -1.074   1.187  0.00  0.00    -0.059 C 
ATOM     14  N   UNL     1      -4.613   0.332   0.845  0.00  0.00    +0.387 N 
ATOM     15  C   UNL     1      -3.948   1.208   1.818  0.00  0.00    -0.059 C 
ATOM     16  C   UNL     1      -2.434   1.020   1.722  0.00  0.00    +0.088 C 
ATOM     17  H   UNL     1      -4.252   0.521  -0.078  0.00  0.00    -0.081 HD
BRANCH  14  18
ATOM     18  C   UNL     1      -6.059   0.592   0.864  0.00  0.00    +0.019 C 
BRANCH  18  19
ATOM     19  C   UNL     1      -6.322   2.000   0.394  0.00  0.00    +0.199 C 
ATOM     20  O   UNL     1      -5.397   2.716   0.075  0.00  0.00    -0.278 OA
ATOM     21  N   UNL     1      -7.586   2.463   0.328  0.00  0.00    -0.303 N 
ATOM     22  C   UNL     1      -8.717   1.609   0.717  0.00  0.00    +0.107 C 
ATOM     23  C   UNL     1      -9.558   2.349   1.762  0.00  0.00    +0.019 C 
ATOM     24  C   UNL     1      -9.964   3.717   1.208  0.00  0.00    +0.003 C 
ATOM     25  C   UNL     1      -8.710   4.546   0.921  0.00  0.00    +0.019 C 
ATOM     26  C   UNL     1      -7.859   3.833  -0.128  0.00  0.00    +0.107 C 
ENDBRANCH  18  19
ENDBRANCH  14  18
ENDBRANCH   6  11
BRANCH   1  28
ATOM     27  C   UNL     1       0.024   1.408  -0.085  0.00  0.00    +0.009 C 
ATOM     28  C   UNL     1      -0.013  -0.120  -0.036  0.00  0.00    +0.033 C 
ENDBRANCH   1  28
BRANCH   8  29
ATOM     29  S   UNL     1      -1.162  -2.011   6.532  0.00  0.00    -0.077 S 
BRANCH  29  30
ATOM     30  C   UNL     1       0.361  -2.503   7.385  0.00  0.00    +0.173 C 
BRANCH  30  31
ATOM     31  C   UNL     1       0.037  -2.900   8.803  0.00  0.00    +0.226 C 
ATOM     32  O   UNL     1      -1.109  -2.855   9.198  0.00  0.00    -0.275 OA
ATOM     33  N   UNL     1       1.021  -3.304   9.630  0.00  0.00    -0.301 N 
BRANCH  33  34
ATOM     34  C   UNL     1       2.404  -3.359   9.153  0.00  0.00    +0.104 C 
ATOM     35  C   UNL     1       3.087  -2.015   9.414  0.00  0.00    +0.024 C 
ENDBRANCH  33  34
BRANCH  33  36
ATOM     36  C   UNL     1       0.706  -3.690  11.008  0.00  0.00    +0.104 C 
ATOM     37  C   UNL     1       0.395  -5.187  11.061  0.00  0.00    +0.024 C 
ENDBRANCH  33  36
ENDBRANCH  30  31
ENDBRANCH  29  30
ENDBRANCH   8  29
TORSDOF 9
