REMARK  Name = ZINC13477823
REMARK  4 active torsions:
REMARK  status: ('A' for Active; 'I' for Inactive)
REMARK    1  A    between atoms: C_3  and  C_10
REMARK    2  A    between atoms: C_5  and  N_7
REMARK    3  A    between atoms: C_10  and  C_11
REMARK    4  A    between atoms: N_17  and  C_18
REMARK                            x       y       z     vdW  Elec       q    Type
REMARK                         _______ _______ _______ _____ _____    ______ ____
ROOT
ATOM      1  C   UNL     1       4.124   2.436   1.417  0.00  0.00    +0.144 C 
ATOM      2  C   UNL     1       5.415   3.238   1.455  0.00  0.00    +0.232 C 
ATOM      3  O   UNL     1       5.488   4.363   1.008  0.00  0.00    -0.274 OA
ATOM      4  N   UNL     1       6.453   2.633   2.007  0.00  0.00    -0.264 N 
ATOM      5  C   UNL     1       6.378   1.354   2.518  0.00  0.00    +0.161 C 
ATOM      6  N   UNL     1       7.330   0.651   3.085  0.00  0.00    -0.226 NA
ATOM      7  S   UNL     1       4.679   0.879   2.227  0.00  0.00    -0.077 S 
ATOM      8  H   UNL     1       7.299   3.106   2.054  0.00  0.00    +0.157 HD
ENDROOT
BRANCH   6   9
ATOM      9  C   UNL     1       8.585   1.184   3.225  0.00  0.00    +0.067 A 
ATOM     10  C   UNL     1       9.180   1.865   2.161  0.00  0.00    +0.029 A 
ATOM     11  C   UNL     1      10.443   2.399   2.308  0.00  0.00    +0.022 A 
ATOM     12  C   UNL     1      11.120   2.262   3.508  0.00  0.00    +0.041 A 
ATOM     13  C   UNL     1      10.535   1.589   4.567  0.00  0.00    +0.022 A 
ATOM     14  C   UNL     1       9.270   1.055   4.434  0.00  0.00    +0.029 A 
ATOM     15 CL   UNL     1      12.710   2.938   3.686  0.00  0.00    -0.084 Cl
ENDBRANCH   6   9
BRANCH   1  16
ATOM     16  C   UNL     1       3.672   2.182  -0.022  0.00  0.00    +0.059 C 
BRANCH  16  19
ATOM     17  C   UNL     1      -0.017   1.378   0.010  0.00  0.00    +0.002 A 
ATOM     18  C   UNL     1       1.171   2.085   0.002  0.00  0.00    +0.004 A 
ATOM     19  C   UNL     1       2.377   1.411  -0.013  0.00  0.00    -0.044 A 
ATOM     20  C   UNL     1       2.396   0.028  -0.020  0.00  0.00    +0.036 A 
ATOM     21  C   UNL     1       1.209  -0.679  -0.012  0.00  0.00    +0.126 A 
ATOM     22  C   UNL     1       0.002  -0.004   0.002  0.00  0.00    +0.033 A 
BRANCH  21  23
ATOM     23  N   UNL     1       1.229  -2.159  -0.020  0.00  0.00    +0.056 N 
ATOM     24  O   UNL     1       2.284  -2.749  -0.035  0.00  0.00    -0.126 OA
ATOM     25  O   UNL     1       0.190  -2.778  -0.013  0.00  0.00    -0.126 OA
ENDBRANCH  21  23
ENDBRANCH  16  19
ENDBRANCH   1  16
TORSDOF 4
