REMARK  Name = ZINC15672586
REMARK  6 active torsions:
REMARK  status: ('A' for Active; 'I' for Inactive)
REMARK    1  A    between atoms: C_1  and  C_2
REMARK    2  A    between atoms: C_4  and  C_29
REMARK    3  A    between atoms: C_6  and  C_8
REMARK    4  A    between atoms: C_17  and  C_19
REMARK    5  A    between atoms: C_19  and  N_20
REMARK    6  A    between atoms: C_21  and  C_23
REMARK                            x       y       z     vdW  Elec       q    Type
REMARK                         _______ _______ _______ _____ _____    ______ ____
ROOT
ATOM      1  C   UNL     1       2.271  -0.219   1.221  0.00  0.00    +0.024 C 
ATOM      2  C   UNL     1       2.254   1.312   1.197  0.00  0.00    -0.068 C 
ATOM      3  N   UNL     1       1.474   1.772   0.039  0.00  0.00    +0.383 N 
ATOM      4  C   UNL     1       0.078   1.325   0.132  0.00  0.00    -0.078 C 
ATOM      5  C   UNL     1       0.033  -0.206   0.126  0.00  0.00    -0.015 C 
ATOM      6  C   UNL     1       1.467  -0.742   0.025  0.00  0.00    -0.007 C 
ATOM      7  C   UNL     1       2.101  -0.204  -1.264  0.00  0.00    -0.010 C 
ATOM      8  C   UNL     1       2.089   1.327  -1.219  0.00  0.00    -0.051 C 
ATOM      9  H   UNL     1       1.476   2.872   0.046  0.00  0.00    -0.081 HD
ENDROOT
BRANCH   1  15
ATOM     10  C   UNL     1       7.046   0.550   1.941  0.00  0.00    +0.088 C 
ATOM     11  C   UNL     1       5.943  -0.359   1.462  0.00  0.00    +0.127 A 
ATOM     12  N   UNL     1       6.255  -1.544   0.982  0.00  0.00    -0.229 NA
ATOM     13  C   UNL     1       5.304  -2.374   0.549  0.00  0.00    +0.110 A 
ATOM     14  C   UNL     1       3.966  -1.965   0.621  0.00  0.00    +0.055 A 
ATOM     15  C   UNL     1       3.692  -0.710   1.128  0.00  0.00    +0.047 A 
ATOM     16  N   UNL     1       4.694   0.056   1.537  0.00  0.00    -0.237 NA
BRANCH  13  17
ATOM     17  C   UNL     1       5.655  -3.703   0.011  0.00  0.00    +0.153 A 
ATOM     18  C   UNL     1       6.913  -4.210  -0.108  0.00  0.00    +0.051 A 
ATOM     19  C   UNL     1       6.780  -5.497  -0.662  0.00  0.00    +0.042 A 
ATOM     20  C   UNL     1       5.463  -5.708  -0.861  0.00  0.00    +0.196 A 
ATOM     21  O   UNL     1       4.787  -4.622  -0.453  0.00  0.00    -0.461 OA
ENDBRANCH  13  17
ENDBRANCH   1  15
BRANCH   8  22
ATOM     22  C   UNL     1       3.524   1.851  -1.300  0.00  0.00    +0.089 C 
BRANCH  22  23
ATOM     23  N   UNL     1       3.522   3.307  -1.138  0.00  0.00    -0.317 N 
ATOM     24  C   UNL     1       4.683   3.991  -1.175  0.00  0.00    +0.216 C 
ATOM     25  O   UNL     1       5.729   3.401  -1.342  0.00  0.00    -0.276 OA
ATOM     26  H   UNL     1       2.573   3.842  -0.987  0.00  0.00    +0.149 HD
BRANCH  24  27
ATOM     27  C   UNL     1       4.680   5.489  -1.008  0.00  0.00    +0.075 C 
ATOM     28  C   UNL     1       3.842   6.124  -2.119  0.00  0.00    +0.013 C 
ATOM     29  C   UNL     1       3.839   7.645  -1.949  0.00  0.00    +0.001 C 
ATOM     30  C   UNL     1       5.274   8.169  -2.030  0.00  0.00    +0.000 C 
ATOM     31  C   UNL     1       6.113   7.534  -0.919  0.00  0.00    +0.001 C 
ATOM     32  C   UNL     1       6.115   6.013  -1.089  0.00  0.00    +0.013 C 
ENDBRANCH  24  27
ENDBRANCH  22  23
ENDBRANCH   8  22
TORSDOF 5
