REMARK  Name = ZINC30859594
REMARK  8 active torsions:
REMARK  status: ('A' for Active; 'I' for Inactive)
REMARK    1  A    between atoms: C_6  and  C_7
REMARK    2  A    between atoms: C_7  and  C_9
REMARK    3  A    between atoms: C_7  and  O_29
REMARK    4  A    between atoms: C_9  and  N_10
REMARK    5  A    between atoms: N_10  and  C_11
REMARK    6  A    between atoms: C_14  and  N_26
REMARK    7  A    between atoms: C_16  and  S_17
REMARK    8  A    between atoms: S_17  and  N_20
REMARK                            x       y       z     vdW  Elec       q    Type
REMARK                         _______ _______ _______ _____ _____    ______ ____
ROOT
ATOM      1  C   UNL     1      -3.479  -2.105   2.546  0.00  0.00    +0.054 A 
ATOM      2  C   UNL     1      -2.819  -1.682   3.693  0.00  0.00    +0.027 A 
ATOM      3  C   UNL     1      -3.426  -1.816   4.926  0.00  0.00    +0.034 A 
ATOM      4  C   UNL     1      -4.690  -2.370   5.020  0.00  0.00    +0.128 A 
ATOM      5  C   UNL     1      -5.349  -2.793   3.881  0.00  0.00    +0.063 A 
ATOM      6  C   UNL     1      -4.750  -2.656   2.644  0.00  0.00    +0.128 A 
ENDROOT
BRANCH   6   7
ATOM      7  S   UNL     1      -5.594  -3.189   1.192  0.00  0.00    +0.063 S 
ATOM      8  O   UNL     1      -5.579  -2.092   0.288  0.00  0.00    -0.153 OA
ATOM      9  O   UNL     1      -5.059  -4.461   0.854  0.00  0.00    -0.153 OA
BRANCH   7  10
ATOM     10  N   UNL     1      -7.177  -3.437   1.609  0.00  0.00    -0.172 NA
ATOM     11  C   UNL     1      -7.666  -4.778   1.963  0.00  0.00    +0.137 C 
ATOM     12  C   UNL     1      -8.419  -4.682   3.295  0.00  0.00    +0.177 C 
ATOM     13  O   UNL     1      -9.405  -3.651   3.205  0.00  0.00    -0.377 OA
ATOM     14  C   UNL     1      -8.867  -2.345   2.984  0.00  0.00    +0.177 C 
ATOM     15  C   UNL     1      -8.136  -2.320   1.641  0.00  0.00    +0.137 C 
ENDBRANCH   7  10
ENDBRANCH   6   7
BRANCH   4  16
ATOM     16  N   UNL     1      -5.337  -2.512   6.344  0.00  0.00    +0.056 N 
ATOM     17  O   UNL     1      -4.762  -2.144   7.341  0.00  0.00    -0.126 OA
ATOM     18  O   UNL     1      -6.442  -2.997   6.427  0.00  0.00    -0.126 OA
ENDBRANCH   4  16
BRANCH   1  19
ATOM     19  N   UNL     1      -2.868  -1.970   1.298  0.00  0.00    -0.340 N 
ATOM     20  H   UNL     1      -3.293  -2.339   0.507  0.00  0.00    +0.146 HD
BRANCH  19  21
ATOM     21  C   UNL     1      -1.585  -1.272   1.181  0.00  0.00    +0.137 C 
BRANCH  21  22
ATOM     22  C   UNL     1      -1.139  -1.266  -0.282  0.00  0.00    +0.161 C 
BRANCH  22  28
ATOM     23  C   UNL     1       0.209   0.795  -0.731  0.00  0.00    +0.007 A 
ATOM     24  C   UNL     1       1.419   1.454  -0.841  0.00  0.00    +0.020 A 
ATOM     25  C   UNL     1       2.601   0.769  -0.622  0.00  0.00    +0.041 A 
ATOM     26  C   UNL     1       2.572  -0.574  -0.293  0.00  0.00    +0.020 A 
ATOM     27  C   UNL     1       1.361  -1.232  -0.183  0.00  0.00    +0.007 A 
ATOM     28  C   UNL     1       0.180  -0.548  -0.402  0.00  0.00    -0.018 A 
ATOM     29 CL   UNL     1       4.121   1.596  -0.760  0.00  0.00    -0.084 Cl
ENDBRANCH  22  28
BRANCH  22  30
ATOM     30  O   UNL     1      -0.994  -2.611  -0.742  0.00  0.00    -0.386 OA
ATOM     31  H   UNL     1      -0.342  -3.127  -0.248  0.00  0.00    +0.210 HD
ENDBRANCH  22  30
ENDBRANCH  21  22
ENDBRANCH  19  21
ENDBRANCH   1  19
TORSDOF 8
