REMARK  Name = ZINC21852847
REMARK  8 active torsions:
REMARK  status: ('A' for Active; 'I' for Inactive)
REMARK    1  A    between atoms: C_1  and  C_2
REMARK    2  A    between atoms: C_2  and  C_21
REMARK    3  A    between atoms: C_7  and  C_9
REMARK    4  A    between atoms: C_9  and  C_10
REMARK    5  A    between atoms: C_9  and  C_11
REMARK    6  A    between atoms: C_9  and  C_12
REMARK    7  A    between atoms: N_15  and  C_16
REMARK    8  A    between atoms: N_23  and  C_24
REMARK                            x       y       z     vdW  Elec       q    Type
REMARK                         _______ _______ _______ _____ _____    ______ ____
ROOT
ATOM      1  C   UNL     1      -0.206  -5.648  -1.576  0.00  0.00    +0.044 C 
ATOM      2  C   UNL     1       0.355  -4.348  -0.998  0.00  0.00    +0.130 C 
ATOM      3  C   UNL     1      -0.336  -3.167  -1.677  0.00  0.00    +0.179 C 
ATOM      4  N   UNL     1      -0.024  -1.934  -0.944  0.00  0.00    -0.256 N 
ATOM      5  C   UNL     1       0.214  -1.953   0.412  0.00  0.00    +0.124 A 
ATOM      6  C   UNL     1       0.443  -0.662   0.796  0.00  0.00    +0.058 A 
ATOM      7  C   UNL     1       0.333   0.091  -0.381  0.00  0.00    +0.069 A 
ATOM      8  N   UNL     1       0.064  -0.734  -1.366  0.00  0.00    -0.175 NA
ATOM      9  C   UNL     1       0.211  -3.211   1.175  0.00  0.00    +0.266 C 
ATOM     10  O   UNL     1       0.248  -3.225   2.390  0.00  0.00    -0.268 OA
ATOM     11  N   UNL     1       0.164  -4.354   0.448  0.00  0.00    -0.277 N 
ENDROOT
BRANCH  11  12
ATOM     12  C   UNL     1      -0.085  -5.626   1.131  0.00  0.00    +0.078 C 
ATOM     13  C   UNL     1      -1.415  -5.557   1.909  0.00  0.00    +0.022 C 
ATOM     14  C   UNL     1      -1.141  -6.361   3.204  0.00  0.00    +0.002 C 
ATOM     15  C   UNL     1       0.320  -5.973   3.544  0.00  0.00    +0.002 C 
ATOM     16  C   UNL     1       1.019  -5.891   2.171  0.00  0.00    +0.022 C 
ENDBRANCH  11  12
BRANCH   7  17
ATOM     17  C   UNL     1       0.501   1.585  -0.496  0.00  0.00    +0.006 C 
ATOM     18  C   UNL     1       1.986   1.940  -0.398  0.00  0.00    +0.017 C 
ATOM     19  C   UNL     1      -0.049   2.057  -1.843  0.00  0.00    +0.017 C 
ATOM     20  C   UNL     1      -0.264   2.273   0.636  0.00  0.00    +0.017 C 
ENDBRANCH   7  17
BRANCH   2  21
ATOM     21  C   UNL     1       1.831  -4.281  -1.294  0.00  0.00    +0.239 C 
ATOM     22  O   UNL     1       2.284  -4.864  -2.255  0.00  0.00    -0.273 OA
ATOM     23  N   UNL     1       2.648  -3.572  -0.489  0.00  0.00    -0.311 N 
ATOM     24  H   UNL     1       2.238  -3.042   0.383  0.00  0.00    +0.149 HD
BRANCH  23  25
ATOM     25  C   UNL     1       4.083  -3.507  -0.777  0.00  0.00    +0.073 C 
ATOM     26  C   UNL     1       4.768  -4.757  -0.188  0.00  0.00    +0.022 C 
ATOM     27  C   UNL     1       6.083  -4.959  -0.894  0.00  0.00    +0.002 C 
ATOM     28  C   UNL     1       7.260  -4.312  -0.139  0.00  0.00    +0.000 C 
ATOM     29  C   UNL     1       6.915  -2.921   0.427  0.00  0.00    +0.000 C 
ATOM     30  C   UNL     1       6.118  -2.088  -0.540  0.00  0.00    +0.002 C 
ATOM     31  C   UNL     1       4.619  -2.271  -0.225  0.00  0.00    +0.022 C 
ENDBRANCH  23  25
ENDBRANCH   2  21
TORSDOF 4
