REMARK  Name = ZINC00470693
REMARK  4 active torsions:
REMARK  status: ('A' for Active; 'I' for Inactive)
REMARK    1  A    between atoms: C_5  and  S_9
REMARK    2  A    between atoms: C_6  and  C_7
REMARK    3  A    between atoms: S_9  and  C_10
REMARK    4  A    between atoms: C_16  and  O_18
REMARK                            x       y       z     vdW  Elec       q    Type
REMARK                         _______ _______ _______ _____ _____    ______ ____
ROOT
ATOM      1  C   UNL     1      -0.017   1.393   0.010  0.00  0.00    +0.027 A 
ATOM      2  C   UNL     1       1.190   2.081   0.002  0.00  0.00    -0.025 A 
ATOM      3  C   UNL     1       2.374   1.375  -0.010  0.00  0.00    +0.046 A 
ATOM      4  N   UNL     1       2.365   0.047  -0.022  0.00  0.00    -0.244 NA
ATOM      5  C   UNL     1       1.248  -0.657  -0.017  0.00  0.00    +0.115 A 
ATOM      6  C   UNL     1       0.002  -0.004   0.002  0.00  0.00    +0.084 A 
ATOM      7  C   UNL     1       3.719   2.057  -0.001  0.00  0.00    +0.056 C 
ATOM      8  C   UNL     1       3.583   3.518  -0.423  0.00  0.00    +0.006 C 
ATOM      9  C   UNL     1       2.485   4.169   0.427  0.00  0.00    +0.005 C 
ATOM     10  C   UNL     1       1.139   3.586   0.003  0.00  0.00    +0.037 C 
ENDROOT
BRANCH   6  11
ATOM     11  C   UNL     1      -1.218  -0.754   0.013  0.00  0.00    +0.102 C 
ATOM     12  N   UNL     1      -2.186  -1.349   0.022  0.00  0.00    -0.191 NA
ENDBRANCH   6  11
BRANCH   5  13
ATOM     13  S   UNL     1       1.318  -2.417  -0.034  0.00  0.00    -0.099 S 
BRANCH  13  14
ATOM     14  C   UNL     1       3.094  -2.786  -0.056  0.00  0.00    +0.081 C 
ATOM     15  C   UNL     1       3.731  -2.304   1.250  0.00  0.00    +0.017 C 
ATOM     16  C   UNL     1       5.229  -2.615   1.231  0.00  0.00    +0.001 C 
ATOM     17  C   UNL     1       5.435  -4.124   1.089  0.00  0.00    +0.003 C 
ATOM     18  C   UNL     1       4.798  -4.606  -0.216  0.00  0.00    +0.032 C 
ATOM     19  C   UNL     1       3.300  -4.295  -0.197  0.00  0.00    +0.128 C 
BRANCH  19  20
ATOM     20  O   UNL     1       2.688  -4.965   0.907  0.00  0.00    -0.391 OA
ATOM     21  H   UNL     1       2.780  -5.927   0.882  0.00  0.00    +0.210 HD
ENDBRANCH  19  20
ENDBRANCH  13  14
ENDBRANCH   5  13
TORSDOF 4
