REMARK  Name = ZINC20421318
REMARK  7 active torsions:
REMARK  status: ('A' for Active; 'I' for Inactive)
REMARK    1  A    between atoms: C_4  and  C_7
REMARK    2  A    between atoms: C_7  and  N_8
REMARK    3  A    between atoms: C_12  and  C_16
REMARK    4  A    between atoms: C_16  and  C_17
REMARK    5  A    between atoms: N_19  and  N_20
REMARK    6  A    between atoms: C_21  and  C_22
REMARK    7  A    between atoms: C_27  and  O_28
REMARK                            x       y       z     vdW  Elec       q    Type
REMARK                         _______ _______ _______ _____ _____    ______ ____
ROOT
ATOM      1  C   UNL     1       4.561  -3.887   3.441  0.00  0.00    +0.125 C 
ENDROOT
BRANCH   1   6
ATOM      2  N   UNL     1       4.152  -0.952   1.338  0.00  0.00    -0.295 N 
ATOM      3  C   UNL     1       4.983   0.053   1.994  0.00  0.00    +0.123 C 
ATOM      4  C   UNL     1       4.958  -0.154   3.509  0.00  0.00    +0.100 C 
ATOM      5  N   UNL     1       5.254  -1.567   3.798  0.00  0.00    -0.304 NA
ATOM      6  C   UNL     1       4.141  -2.418   3.356  0.00  0.00    +0.149 C 
ATOM      7  C   UNL     1       3.771  -2.085   1.938  0.00  0.00    +0.233 C 
ATOM      8  O   UNL     1       3.101  -2.878   1.311  0.00  0.00    -0.274 OA
ATOM      9  H   UNL     1       6.120  -1.850   3.366  0.00  0.00    +0.123 HD
BRANCH   2  10
ATOM     10  C   UNL     1       3.711  -0.707  -0.038  0.00  0.00    +0.143 C 
BRANCH  10  14
ATOM     11  C   UNL     1      -0.017   1.378   0.010  0.00  0.00    +0.000 A 
ATOM     12  C   UNL     1       1.171   2.086   0.002  0.00  0.00    +0.000 A 
ATOM     13  C   UNL     1       2.377   1.411  -0.013  0.00  0.00    +0.005 A 
ATOM     14  C   UNL     1       2.396   0.029  -0.020  0.00  0.00    -0.030 A 
ATOM     15  C   UNL     1       1.208  -0.679  -0.012  0.00  0.00    +0.005 A 
ATOM     16  C   UNL     1       0.002  -0.004   0.002  0.00  0.00    +0.000 A 
ENDBRANCH  10  14
ENDBRANCH   2  10
ENDBRANCH   1   6
BRANCH   1  17
ATOM     17  C   UNL     1       4.800  -4.258   4.881  0.00  0.00    +0.234 C 
ATOM     18  O   UNL     1       4.649  -3.430   5.755  0.00  0.00    -0.274 OA
ATOM     19  N   UNL     1       5.181  -5.511   5.200  0.00  0.00    -0.207 N 
ATOM     20  H   UNL     1       5.301  -6.174   4.502  0.00  0.00    +0.177 HD
BRANCH  19  21
ATOM     21  N   UNL     1       5.403  -5.857   6.539  0.00  0.00    -0.188 NA
ATOM     22  C   UNL     1       5.770  -7.064   6.846  0.00  0.00    +0.142 C 
BRANCH  22  23
ATOM     23  C   UNL     1       6.004  -7.427   8.255  0.00  0.00    +0.039 A 
ATOM     24  C   UNL     1       6.404  -8.723   8.588  0.00  0.00    +0.033 A 
ATOM     25  C   UNL     1       6.621  -9.058   9.909  0.00  0.00    +0.043 A 
ATOM     26  C   UNL     1       6.444  -8.113  10.907  0.00  0.00    +0.043 A 
ATOM     27  C   UNL     1       6.047  -6.827  10.589  0.00  0.00    +0.084 A 
ATOM     28  C   UNL     1       5.831  -6.473   9.266  0.00  0.00    +0.144 A 
ATOM     29 CL   UNL     1       5.827  -5.652  11.848  0.00  0.00    -0.080 Cl
ATOM     30 CL   UNL     1       7.119 -10.669  10.323  0.00  0.00    -0.083 Cl
BRANCH  28  31
ATOM     31  O   UNL     1       5.448  -5.208   8.952  0.00  0.00    -0.505 OA
ATOM     32  H   UNL     1       4.489  -5.079   8.940  0.00  0.00    +0.292 HD
ENDBRANCH  28  31
ENDBRANCH  22  23
ENDBRANCH  19  21
ENDBRANCH   1  17
TORSDOF 7
