REMARK  Name = ZINC38576837
REMARK  8 active torsions:
REMARK  status: ('A' for Active; 'I' for Inactive)
REMARK    1  A    between atoms: C_1  and  C_2
REMARK    2  A    between atoms: C_5  and  C_9
REMARK    3  A    between atoms: C_6  and  O_8
REMARK    4  A    between atoms: C_11  and  C_15
REMARK    5  A    between atoms: N_17  and  C_18
REMARK    6  A    between atoms: C_20  and  C_30
REMARK    7  A    between atoms: N_32  and  C_33
REMARK    8  A    between atoms: C_33  and  C_34
REMARK                            x       y       z     vdW  Elec       q    Type
REMARK                         _______ _______ _______ _____ _____    ______ ____
ROOT
ATOM      1  C   UNL     1      -1.770  -7.196   0.819  0.00  0.00    +0.244 C 
ATOM      2  O   UNL     1      -2.777  -7.448   0.192  0.00  0.00    -0.273 OA
ATOM      3  N   UNL     1      -1.604  -7.701   2.058  0.00  0.00    -0.301 N 
ATOM      4  H   UNL     1      -0.798  -7.500   2.559  0.00  0.00    +0.150 HD
ENDROOT
BRANCH   3   5
ATOM      5  C   UNL     1      -2.639  -8.555   2.646  0.00  0.00    +0.143 C 
ATOM      6  C   UNL     1      -2.010  -9.758   3.380  0.00  0.00    +0.109 C 
ATOM      7  C   UNL     1      -2.898 -10.221   4.532  0.00  0.00    +0.016 C 
ATOM      8  C   UNL     1      -4.086 -11.029   3.954  0.00  0.00    +0.005 C 
ATOM      9  C   UNL     1      -5.185 -10.871   5.031  0.00  0.00    +0.001 C 
ATOM     10  C   UNL     1      -5.023  -9.418   5.523  0.00  0.00    +0.014 C 
ATOM     11  C   UNL     1      -3.547  -9.027   5.273  0.00  0.00    +0.052 C 
ATOM     12  S   UNL     1      -3.509  -7.685   4.011  0.00  0.00    -0.134 S 
BRANCH   6  13
ATOM     13  C   UNL     1      -1.833 -10.895   2.406  0.00  0.00    +0.219 C 
ATOM     14  O   UNL     1      -2.537 -10.965   1.421  0.00  0.00    -0.275 OA
ATOM     15  N   UNL     1      -0.892 -11.834   2.630  0.00  0.00    -0.313 N 
ATOM     16  H   UNL     1      -0.329 -11.778   3.418  0.00  0.00    +0.149 HD
BRANCH  15  17
ATOM     17  C   UNL     1      -0.720 -12.939   1.684  0.00  0.00    +0.135 C 
BRANCH  17  18
ATOM     18  C   UNL     1       0.405 -13.855   2.169  0.00  0.00    +0.135 C 
ATOM     19  C   UNL     1       0.675 -14.954   1.118  0.00  0.00    +0.035 C 
ATOM     20  C   UNL     1       0.933 -16.202   2.006  0.00  0.00    +0.031 C 
ATOM     21  C   UNL     1      -0.031 -15.928   3.188  0.00  0.00    +0.160 C 
ATOM     22  O   UNL     1       0.013 -14.504   3.385  0.00  0.00    -0.375 OA
ENDBRANCH  17  18
ENDBRANCH  15  17
ENDBRANCH   6  13
ENDBRANCH   3   5
BRANCH   1  25
ATOM     23  C   UNL     1      -1.057  -4.160  -0.351  0.00  0.00    +0.095 C 
ATOM     24  C   UNL     1      -0.812  -4.900   0.748  0.00  0.00    +0.041 C 
ATOM     25  C   UNL     1      -0.705  -6.318   0.214  0.00  0.00    +0.238 C 
ATOM     26  N   UNL     1      -0.924  -6.150  -1.232  0.00  0.00    -0.170 NA
ATOM     27  N   UNL     1      -1.113  -4.952  -1.454  0.00  0.00    -0.153 NA
BRANCH  23  32
ATOM     28  C   UNL     1      -1.790   1.555  -0.373  0.00  0.00    +0.044 C 
ATOM     29  C   UNL     1      -1.598   0.061  -0.364  0.00  0.00    -0.047 A 
ATOM     30  C   UNL     1      -1.674  -0.650  -1.549  0.00  0.00    +0.004 A 
ATOM     31  C   UNL     1      -1.499  -2.019  -1.550  0.00  0.00    +0.014 A 
ATOM     32  C   UNL     1      -1.245  -2.689  -0.355  0.00  0.00    +0.043 A 
ATOM     33  C   UNL     1      -1.168  -1.968   0.840  0.00  0.00    +0.126 A 
ATOM     34  C   UNL     1      -1.340  -0.593   0.826  0.00  0.00    +0.049 A 
BRANCH  33  35
ATOM     35  O   UNL     1      -0.920  -2.611   2.010  0.00  0.00    -0.506 OA
ATOM     36  H   UNL     1       0.020  -2.687   2.226  0.00  0.00    +0.292 HD
ENDBRANCH  33  35
ENDBRANCH  23  32
ENDBRANCH   1  25
TORSDOF 7
