REMARK  Name = ZINC09330106
REMARK  5 active torsions:
REMARK  status: ('A' for Active; 'I' for Inactive)
REMARK    1  A    between atoms: C_1  and  C_2
REMARK    2  A    between atoms: C_3  and  C_19
REMARK    3  A    between atoms: N_11  and  C_12
REMARK    4  A    between atoms: C_12  and  C_13
REMARK    5  A    between atoms: C_19  and  C_20
REMARK                            x       y       z     vdW  Elec       q    Type
REMARK                         _______ _______ _______ _____ _____    ______ ____
ROOT
ATOM      1  C   UNL     1      -0.010   1.426  -0.245  0.00  0.00    +0.066 C 
ATOM      2  C   UNL     1      -0.013  -0.075  -0.112  0.00  0.00    +0.051 A 
ATOM      3  C   UNL     1      -1.211  -0.748   0.118  0.00  0.00    +0.044 A 
ATOM      4  C   UNL     1      -1.199  -2.111   0.236  0.00  0.00    +0.280 A 
ATOM      5  N   UNL     1      -0.012  -2.771   0.125  0.00  0.00    -0.158 N 
ATOM      6  C   UNL     1       1.143  -2.076  -0.100  0.00  0.00    +0.258 A 
ATOM      7  N   UNL     1       1.116  -0.744  -0.218  0.00  0.00    -0.215 NA
ATOM      8  N   UNL     1       2.132  -2.961  -0.162  0.00  0.00    -0.176 NA
ATOM      9  C   UNL     1       1.647  -4.189   0.015  0.00  0.00    +0.237 A 
ATOM     10  N   UNL     1       0.344  -4.124   0.194  0.00  0.00    -0.125 NA
ATOM     11  N   UNL     1       2.401  -5.360   0.010  0.00  0.00    -0.308 N 
ATOM     12  O   UNL     1      -2.345  -2.793   0.459  0.00  0.00    -0.265 OA
ATOM     13  H   UNL     1       1.967  -6.217   0.147  0.00  0.00    +0.149 HD
ENDROOT
BRANCH  11  14
ATOM     14  C   UNL     1       3.849  -5.298  -0.201  0.00  0.00    +0.147 C 
BRANCH  14  15
ATOM     15  C   UNL     1       4.423  -6.691  -0.160  0.00  0.00    +0.007 A 
ATOM     16  C   UNL     1       4.606  -7.568  -1.176  0.00  0.00    +0.013 A 
ATOM     17  C   UNL     1       5.157  -8.806  -0.902  0.00  0.00    +0.008 A 
ATOM     18  C   UNL     1       5.499  -9.105   0.375  0.00  0.00    +0.045 A 
ATOM     19  S   UNL     1       5.046  -7.609   1.238  0.00  0.00    -0.100 S 
ENDBRANCH  14  15
ENDBRANCH  11  14
BRANCH   3  20
ATOM     20  C   UNL     1      -2.505   0.016   0.234  0.00  0.00    +0.077 C 
BRANCH  20  21
ATOM     21  C   UNL     1      -2.694   0.469   1.659  0.00  0.00    -0.043 A 
ATOM     22  C   UNL     1      -3.231  -0.396   2.594  0.00  0.00    +0.004 A 
ATOM     23  C   UNL     1      -3.405   0.019   3.901  0.00  0.00    +0.000 A 
ATOM     24  C   UNL     1      -3.040   1.300   4.273  0.00  0.00    +0.000 A 
ATOM     25  C   UNL     1      -2.502   2.164   3.339  0.00  0.00    +0.000 A 
ATOM     26  C   UNL     1      -2.325   1.748   2.033  0.00  0.00    +0.004 A 
ENDBRANCH  20  21
ENDBRANCH   3  20
TORSDOF 4
