REMARK  Name = ZINC06550541
REMARK  2 active torsions:
REMARK  status: ('A' for Active; 'I' for Inactive)
REMARK    1  A    between atoms: C_6  and  C_7
REMARK    2  A    between atoms: N_13  and  C_14
REMARK                            x       y       z     vdW  Elec       q    Type
REMARK                         _______ _______ _______ _____ _____    ______ ____
ROOT
ATOM      1  C   UNL     1      -1.258  -0.760   0.011  0.00  0.00    +0.028 C 
ATOM      2  C   UNL     1      -1.239  -2.112  -0.099  0.00  0.00    +0.078 C 
ATOM      3  C   UNL     1      -0.086  -3.033  -0.131  0.00  0.00    +0.256 C 
ATOM      4  O   UNL     1       1.058  -2.625  -0.054  0.00  0.00    -0.269 OA
ATOM      5  N   UNL     1      -0.353  -4.323  -0.247  0.00  0.00    -0.260 N 
ATOM      6  C   UNL     1      -1.654  -4.766  -0.332  0.00  0.00    +0.168 C 
ATOM      7  N   UNL     1      -2.091  -6.003  -0.450  0.00  0.00    -0.200 NA
ATOM      8  S   UNL     1      -2.604  -3.258  -0.237  0.00  0.00    -0.049 S 
ATOM      9  H   UNL     1       0.375  -4.964  -0.272  0.00  0.00    +0.157 HD
ENDROOT
BRANCH   1  15
ATOM     10  C   UNL     1       0.989  -0.376  -0.983  0.00  0.00    +0.009 A 
ATOM     11  C   UNL     1       2.162   0.344  -1.055  0.00  0.00    +0.020 A 
ATOM     12  C   UNL     1       2.360   1.438  -0.229  0.00  0.00    +0.041 A 
ATOM     13  C   UNL     1       1.382   1.817   0.676  0.00  0.00    +0.020 A 
ATOM     14  C   UNL     1       0.203   1.108   0.760  0.00  0.00    +0.009 A 
ATOM     15  C   UNL     1      -0.004   0.002  -0.072  0.00  0.00    -0.024 A 
ATOM     16 CL   UNL     1       3.841   2.338  -0.326  0.00  0.00    -0.084 Cl
ENDBRANCH   1  15
BRANCH   7  17
ATOM     17  C   UNL     1      -1.208  -7.034  -0.501  0.00  0.00    +0.195 A 
ATOM     18  N   UNL     1       0.120  -7.011  -0.442  0.00  0.00    -0.230 NA
ATOM     19  C   UNL     1       0.822  -8.122  -0.507  0.00  0.00    +0.121 A 
ATOM     20  C   UNL     1       0.190  -9.316  -0.636  0.00  0.00    +0.068 A 
ATOM     21  S   UNL     1      -1.518  -8.788  -0.656  0.00  0.00    -0.056 S 
ENDBRANCH   7  17
TORSDOF 2
