REMARK  Name = ZINC39710707
REMARK  12 active torsions:
REMARK  status: ('A' for Active; 'I' for Inactive)
REMARK    1  A    between atoms: C_1  and  C_2
REMARK    2  A    between atoms: C_7  and  C_14
REMARK    3  A    between atoms: C_14  and  C_16
REMARK    4  A    between atoms: C_14  and  N_26
REMARK    5  A    between atoms: N_21  and  C_22
REMARK    6  A    between atoms: C_22  and  C_23
REMARK    7  A    between atoms: C_22  and  C_24
REMARK    8  A    between atoms: C_22  and  C_25
REMARK    9  A    between atoms: N_26  and  C_27
REMARK   10  A    between atoms: N_26  and  C_35
REMARK   11  A    between atoms: C_27  and  C_28
REMARK   12  A    between atoms: C_35  and  C_36
REMARK                            x       y       z     vdW  Elec       q    Type
REMARK                         _______ _______ _______ _____ _____    ______ ____
ROOT
ATOM      1  C   UNL     1       1.194  -4.985   1.993  0.00  0.00    -0.009 C 
ENDROOT
BRANCH   1   8
ATOM      2  C   UNL     1       0.329   2.203   3.940  0.00  0.00    +0.044 C 
ATOM      3  C   UNL     1       0.177   0.811   3.383  0.00  0.00    -0.049 A 
ATOM      4  C   UNL     1      -0.287   0.659   2.076  0.00  0.00    +0.004 A 
ATOM      5  C   UNL     1      -0.444  -0.570   1.520  0.00  0.00    +0.010 A 
ATOM      6  C   UNL     1      -0.117  -1.752   2.317  0.00  0.00    -0.007 A 
ATOM      7  C   UNL     1      -0.259  -3.006   1.800  0.00  0.00    -0.006 C 
ATOM      8  C   UNL     1       0.104  -4.173   2.697  0.00  0.00    +0.088 C 
ATOM      9  C   UNL     1       0.594  -3.852   4.091  0.00  0.00    +0.223 C 
ATOM     10  O   UNL     1       0.899  -4.750   4.853  0.00  0.00    -0.275 OA
ATOM     11  N   UNL     1       0.689  -2.591   4.479  0.00  0.00    -0.285 N 
ATOM     12  C   UNL     1       0.371  -1.562   3.694  0.00  0.00    +0.041 A 
ATOM     13  C   UNL     1       0.503  -0.246   4.173  0.00  0.00    +0.027 A 
ATOM     14  H   UNL     1       1.005  -2.407   5.378  0.00  0.00    +0.155 HD
ENDBRANCH   1   8
BRANCH   1  15
ATOM     15  C   UNL     1       2.475  -4.154   1.909  0.00  0.00    +0.205 C 
ATOM     16  N   UNL     1       2.901  -3.731   3.250  0.00  0.00    -0.152 NA
ATOM     17  N   UNL     1       2.900  -2.499   3.300  0.00  0.00    -0.070 NA
ATOM     18  N   UNL     1       2.505  -1.909   2.100  0.00  0.00    -0.179 N 
ATOM     19  N   UNL     1       2.225  -2.891   1.182  0.00  0.00    -0.183 NA
ATOM     20  H   UNL     1       2.439  -0.955   1.938  0.00  0.00    +0.191 HD
BRANCH  19  21
ATOM     21  C   UNL     1       3.096  -2.779   0.005  0.00  0.00    +0.035 C 
ATOM     22  C   UNL     1       2.829  -3.951  -0.941  0.00  0.00    +0.029 C 
ATOM     23  C   UNL     1       2.809  -1.463  -0.719  0.00  0.00    +0.029 C 
ATOM     24  C   UNL     1       4.560  -2.807   0.450  0.00  0.00    +0.029 C 
ENDBRANCH  19  21
ENDBRANCH   1  15
BRANCH   1  25
ATOM     25  N   UNL     1       1.456  -6.214   2.753  0.00  0.00    +0.389 N 
ATOM     26  H   UNL     1       1.697  -5.977   3.704  0.00  0.00    -0.081 HD
BRANCH  25  27
ATOM     27  C   UNL     1       2.570  -6.945   2.133  0.00  0.00    -0.042 C 
BRANCH  27  28
ATOM     28  C   UNL     1       2.946  -8.118   3.001  0.00  0.00    -0.064 A 
ATOM     29  C   UNL     1       3.644  -7.912   4.177  0.00  0.00    +0.003 A 
ATOM     30  C   UNL     1       3.989  -8.987   4.973  0.00  0.00    +0.020 A 
ATOM     31  C   UNL     1       3.636 -10.270   4.594  0.00  0.00    +0.041 A 
ATOM     32  C   UNL     1       2.938 -10.476   3.418  0.00  0.00    +0.020 A 
ATOM     33  C   UNL     1       2.588  -9.399   2.625  0.00  0.00    +0.003 A 
ATOM     34 CL   UNL     1       4.070 -11.621   5.593  0.00  0.00    -0.084 Cl
ENDBRANCH  27  28
ENDBRANCH  25  27
BRANCH  25  35
ATOM     35  C   UNL     1       0.254  -7.058   2.749  0.00  0.00    -0.046 C 
BRANCH  35  36
ATOM     36  C   UNL     1       0.229  -7.916   4.016  0.00  0.00    +0.102 C 
ATOM     37  C   UNL     1      -0.971  -8.886   3.968  0.00  0.00    +0.032 C 
ATOM     38  C   UNL     1      -1.466  -8.872   5.440  0.00  0.00    +0.030 C 
ATOM     39  C   UNL     1      -1.165  -7.405   5.837  0.00  0.00    +0.160 C 
ATOM     40  O   UNL     1       0.064  -7.078   5.167  0.00  0.00    -0.378 OA
ENDBRANCH  35  36
ENDBRANCH  25  35
ENDBRANCH   1  25
TORSDOF 8
