REMARK  Name = ZINC31808550
REMARK  2 active torsions:
REMARK  status: ('A' for Active; 'I' for Inactive)
REMARK    1  A    between atoms: C_1  and  C_2
REMARK    2  A    between atoms: C_22  and  C_24
REMARK                            x       y       z     vdW  Elec       q    Type
REMARK                         _______ _______ _______ _____ _____    ______ ____
ROOT
ATOM      1  C   UNL     1       0.009   1.379  -0.067  0.00  0.00    +0.068 C 
ATOM      2  C   UNL     1       0.121  -0.120  -0.163  0.00  0.00    +0.067 A 
ATOM      3  C   UNL     1       0.038  -0.875  -1.353  0.00  0.00    +0.033 A 
ATOM      4  C   UNL     1       0.188  -2.178  -1.027  0.00  0.00    +0.135 A 
ATOM      5  N   UNL     1       0.358  -2.233   0.341  0.00  0.00    -0.197 N 
ATOM      6  N   UNL     1       0.317  -0.930   0.837  0.00  0.00    -0.168 NA
ATOM      7  C   UNL     1       0.545  -3.390   1.095  0.00  0.00    +0.187 A 
ATOM      8  C   UNL     1       1.503  -3.432   2.119  0.00  0.00    +0.152 A 
ATOM      9  C   UNL     1       1.645  -4.628   2.846  0.00  0.00    +0.163 A 
ATOM     10  N   UNL     1       2.634  -4.394   3.768  0.00  0.00    -0.329 N 
ATOM     11  H   UNL     1       2.969  -5.025   4.424  0.00  0.00    +0.168 HD
ATOM     12  C   UNL     1       3.060  -3.111   3.594  0.00  0.00    +0.198 A 
ATOM     13  N   UNL     1       2.396  -2.549   2.626  0.00  0.00    -0.231 NA
ATOM     14  N   UNL     1       0.874  -5.665   2.540  0.00  0.00    -0.216 NA
ATOM     15  C   UNL     1      -0.011  -5.578   1.570  0.00  0.00    +0.226 A 
ATOM     16  N   UNL     1      -0.184  -4.475   0.865  0.00  0.00    -0.214 NA
ATOM     17  N   UNL     1       0.196  -3.319  -1.790  0.00  0.00    -0.269 N 
ATOM     18  C   UNL     1       0.020  -3.582  -3.050  0.00  0.00    +0.228 C 
ATOM     19  O   UNL     1       0.002  -4.763  -3.328  0.00  0.00    -0.275 OA
ATOM     20  C   UNL     1      -0.163  -2.671  -4.200  0.00  0.00    +0.166 C 
ATOM     21  S   UNL     1      -1.168  -1.233  -3.803  0.00  0.00    -0.138 S 
ATOM     22  C   UNL     1      -0.181  -0.232  -2.687  0.00  0.00    +0.116 C 
ATOM     23  H   UNL     1       0.375  -4.115  -1.266  0.00  0.00    +0.156 HD
ENDROOT
BRANCH  22  24
ATOM     24  C   UNL     1      -0.877   1.088  -2.478  0.00  0.00    +0.023 A 
ATOM     25  C   UNL     1      -2.213   1.117  -2.116  0.00  0.00    +0.129 A 
ATOM     26  C   UNL     1      -2.852   2.331  -1.925  0.00  0.00    +0.039 A 
ATOM     27  C   UNL     1      -2.155   3.512  -2.095  0.00  0.00    +0.004 A 
ATOM     28  C   UNL     1      -0.821   3.483  -2.456  0.00  0.00    +0.020 A 
ATOM     29  C   UNL     1      -0.180   2.271  -2.642  0.00  0.00    +0.048 A 
ATOM     30 CL   UNL     1       1.497   2.236  -3.088  0.00  0.00    -0.083 Cl
ATOM     31  F   UNL     1      -2.894  -0.038  -1.951  0.00  0.00    -0.205 F 
ENDBRANCH  22  24
TORSDOF 1
