REMARK  Name = ZINC19740347
REMARK  9 active torsions:
REMARK  status: ('A' for Active; 'I' for Inactive)
REMARK    1  A    between atoms: C_1  and  C_2
REMARK    2  A    between atoms: C_5  and  C_32
REMARK    3  A    between atoms: C_6  and  C_8
REMARK    4  A    between atoms: C_8  and  N_9
REMARK    5  A    between atoms: C_15  and  C_19
REMARK    6  A    between atoms: C_19  and  C_21
REMARK    7  A    between atoms: C_19  and  N_22
REMARK    8  A    between atoms: C_23  and  C_25
REMARK    9  A    between atoms: N_28  and  C_31
REMARK                            x       y       z     vdW  Elec       q    Type
REMARK                         _______ _______ _______ _____ _____    ______ ____
ROOT
ATOM      1  N   UNL     1       0.262  -0.498   1.361  0.00  0.00    -0.296 NA
ATOM      2  C   UNL     1      -0.846  -0.169   2.260  0.00  0.00    +0.092 C 
ATOM      3  C   UNL     1      -0.828  -1.112   3.467  0.00  0.00    +0.091 C 
ATOM      4  C   UNL     1      -1.625  -2.347   3.132  0.00  0.00    +0.135 A 
ATOM      5  N   UNL     1      -2.522  -2.938   3.865  0.00  0.00    -0.134 NA
ATOM      6  N   UNL     1      -2.965  -3.978   3.248  0.00  0.00    -0.132 NA
ATOM      7  C   UNL     1      -2.370  -4.089   2.088  0.00  0.00    +0.154 A 
ATOM      8  N   UNL     1      -1.516  -3.049   1.978  0.00  0.00    -0.312 N 
ATOM      9  C   UNL     1      -0.655  -2.715   0.844  0.00  0.00    +0.140 C 
ATOM     10  C   UNL     1       0.562  -1.934   1.350  0.00  0.00    +0.106 C 
ENDROOT
BRANCH   7  11
ATOM     11  C   UNL     1      -2.597  -5.173   1.067  0.00  0.00    +0.138 C 
ATOM     12  C   UNL     1      -3.932  -4.936   0.357  0.00  0.00    +0.036 C 
BRANCH  11  13
ATOM     13  N   UNL     1      -2.625  -6.476   1.735  0.00  0.00    -0.305 N 
ATOM     14  C   UNL     1      -2.312  -7.593   1.049  0.00  0.00    +0.217 C 
ATOM     15  O   UNL     1      -2.007  -7.519  -0.123  0.00  0.00    -0.276 OA
ATOM     16  H   UNL     1      -2.901  -6.543   2.798  0.00  0.00    +0.149 HD
BRANCH  14  17
ATOM     17  C   UNL     1      -2.340  -8.934   1.737  0.00  0.00    +0.071 C 
ATOM     18  C   UNL     1      -1.346  -8.932   2.901  0.00  0.00    -0.006 C 
ATOM     19  C   UNL     1      -1.335 -10.315   3.558  0.00  0.00    -0.078 C 
ATOM     20  N   UNL     1      -0.952 -11.327   2.565  0.00  0.00    +0.378 N 
ATOM     21  C   UNL     1      -1.918 -11.379   1.460  0.00  0.00    -0.078 C 
ATOM     22  C   UNL     1      -1.947 -10.028   0.741  0.00  0.00    -0.006 C 
ATOM     23  C   UNL     1      -0.796 -12.646   3.191  0.00  0.00    -0.096 C 
ATOM     24  H   UNL     1       0.021 -11.033   2.145  0.00  0.00    -0.082 HD
ENDBRANCH  14  17
ENDBRANCH  11  13
ENDBRANCH   7  11
BRANCH   1  25
ATOM     25  C   UNL     1       0.002  -0.004   0.002  0.00  0.00    +0.120 C 
BRANCH  25  31
ATOM     26  C   UNL     1      -2.559   4.295   0.048  0.00  0.00    +0.044 C 
ATOM     27  C   UNL     1      -1.244   3.560   0.032  0.00  0.00    -0.050 A 
ATOM     28  C   UNL     1      -0.056   4.267   0.025  0.00  0.00    +0.003 A 
ATOM     29  C   UNL     1       1.150   3.592   0.010  0.00  0.00    +0.004 A 
ATOM     30  C   UNL     1       1.169   2.210   0.003  0.00  0.00    -0.046 A 
ATOM     31  C   UNL     1      -0.018   1.503   0.010  0.00  0.00    -0.030 A 
ATOM     32  C   UNL     1      -1.225   2.178   0.020  0.00  0.00    +0.008 A 
ATOM     33  C   UNL     1       2.484   1.474  -0.014  0.00  0.00    +0.044 C 
ENDBRANCH  25  31
ENDBRANCH   1  25
TORSDOF 5
