REMARK  Name = ZINC57312585
REMARK  6 active torsions:
REMARK  status: ('A' for Active; 'I' for Inactive)
REMARK    1  A    between atoms: C_1  and  C_2
REMARK    2  A    between atoms: C_2  and  N_3
REMARK    3  A    between atoms: C_6  and  C_8
REMARK    4  A    between atoms: C_10  and  C_19
REMARK    5  A    between atoms: C_12  and  N_13
REMARK    6  A    between atoms: N_13  and  C_14
REMARK                            x       y       z     vdW  Elec       q    Type
REMARK                         _______ _______ _______ _____ _____    ______ ____
ROOT
ATOM      1  N   UNL     1       0.853  -0.070   1.294  0.00  0.00    -0.259 N 
ATOM      2  C   UNL     1       2.103  -0.626   1.303  0.00  0.00    +0.127 A 
ATOM      3  C   UNL     1       2.351  -1.046   2.623  0.00  0.00    +0.117 A 
ATOM      4  C   UNL     1       1.206  -0.716   3.379  0.00  0.00    +0.086 A 
ATOM      5  N   UNL     1       0.338  -0.141   2.595  0.00  0.00    -0.174 NA
ATOM      6  C   UNL     1       1.020  -0.980   4.851  0.00  0.00    +0.070 C 
ATOM      7  N   UNL     1       3.522  -1.631   2.904  0.00  0.00    -0.229 NA
ATOM      8  C   UNL     1       4.422  -1.808   1.964  0.00  0.00    +0.129 A 
ATOM      9  N   UNL     1       4.228  -1.428   0.713  0.00  0.00    -0.216 NA
ATOM     10  C   UNL     1       3.098  -0.840   0.339  0.00  0.00    +0.148 A 
ATOM     11  C   UNL     1       5.726  -2.471   2.326  0.00  0.00    +0.088 C 
ENDROOT
BRANCH   1  13
ATOM     12  C   UNL     1      -0.520  -0.609  -0.657  0.00  0.00    +0.029 C 
ATOM     13  C   UNL     1       0.175   0.505   0.129  0.00  0.00    +0.141 C 
ENDBRANCH   1  13
BRANCH  10  14
ATOM     14  N   UNL     1       2.906  -0.446  -0.974  0.00  0.00    -0.324 N 
ATOM     15  H   UNL     1       2.048  -0.089  -1.253  0.00  0.00    +0.148 HD
BRANCH  14  16
ATOM     16  C   UNL     1       3.998  -0.571  -1.944  0.00  0.00    +0.072 C 
ATOM     17  C   UNL     1       4.872   0.700  -1.919  0.00  0.00    +0.022 C 
ATOM     18  C   UNL     1       5.266   0.918  -3.401  0.00  0.00    +0.002 C 
ATOM     19  C   UNL     1       3.976   0.520  -4.160  0.00  0.00    +0.002 C 
ATOM     20  C   UNL     1       3.427  -0.685  -3.368  0.00  0.00    +0.022 C 
ENDBRANCH  14  16
ENDBRANCH  10  14
TORSDOF 3
