REMARK  Name = ZINC22242639
REMARK  5 active torsions:
REMARK  status: ('A' for Active; 'I' for Inactive)
REMARK    1  A    between atoms: C_11  and  C_30
REMARK    2  A    between atoms: C_14  and  C_16
REMARK    3  A    between atoms: C_16  and  N_17
REMARK    4  A    between atoms: C_24  and  S_26
REMARK    5  A    between atoms: S_26  and  N_29
REMARK                            x       y       z     vdW  Elec       q    Type
REMARK                         _______ _______ _______ _____ _____    ______ ____
ROOT
ATOM      1  C   UNL     1      -5.813   4.341  -9.189  0.00  0.00    +0.002 A 
ATOM      2  C   UNL     1      -5.214   5.566  -8.960  0.00  0.00    +0.002 A 
ATOM      3  C   UNL     1      -4.979   5.998  -7.667  0.00  0.00    +0.025 A 
ATOM      4  C   UNL     1      -5.346   5.203  -6.599  0.00  0.00    +0.058 A 
ATOM      5  C   UNL     1      -5.927   3.951  -6.829  0.00  0.00    +0.055 A 
ATOM      6  C   UNL     1      -6.170   3.531  -8.126  0.00  0.00    +0.025 A 
ATOM      7  N   UNL     1      -6.250   3.138  -5.736  0.00  0.00    -0.284 N 
ATOM      8  C   UNL     1      -6.941   3.638  -4.688  0.00  0.00    +0.219 C 
ATOM      9  O   UNL     1      -7.145   2.942  -3.715  0.00  0.00    -0.275 OA
ATOM     10  C   UNL     1      -7.459   5.051  -4.718  0.00  0.00    +0.128 C 
ATOM     11  C   UNL     1      -6.311   6.037  -4.491  0.00  0.00    +0.194 C 
ATOM     12  N   UNL     1      -5.147   5.634  -5.281  0.00  0.00    -0.256 N 
ATOM     13  C   UNL     1      -3.908   5.682  -4.753  0.00  0.00    +0.238 C 
ATOM     14  O   UNL     1      -3.749   6.062  -3.612  0.00  0.00    -0.274 OA
ATOM     15  H   UNL     1      -5.940   2.082  -5.726  0.00  0.00    +0.155 HD
ENDROOT
BRANCH  11  16
ATOM     16  C   UNL     1      -6.755   7.438  -4.918  0.00  0.00    +0.409 C 
ATOM     17  F   UNL     1      -7.093   7.427  -6.275  0.00  0.00    -0.169 F 
ATOM     18  F   UNL     1      -7.868   7.825  -4.163  0.00  0.00    -0.169 F 
ATOM     19  F   UNL     1      -5.710   8.343  -4.705  0.00  0.00    -0.169 F 
ENDBRANCH  11  16
BRANCH  13  20
ATOM     20  C   UNL     1      -2.720   5.263  -5.580  0.00  0.00    +0.201 C 
BRANCH  20  21
ATOM     21  N   UNL     1      -1.514   5.266  -4.742  0.00  0.00    -0.321 N 
ATOM     22  C   UNL     1      -1.686   4.389  -3.563  0.00  0.00    +0.110 C 
ATOM     23  C   UNL     1      -0.247   3.889  -3.300  0.00  0.00    +0.056 C 
ATOM     24  C   UNL     1       0.402   3.997  -4.666  0.00  0.00    -0.023 A 
ATOM     25  C   UNL     1      -0.402   4.807  -5.460  0.00  0.00    +0.033 A 
ATOM     26  C   UNL     1      -0.026   5.051  -6.779  0.00  0.00    +0.025 A 
ATOM     27  C   UNL     1       1.134   4.499  -7.283  0.00  0.00    +0.030 A 
ATOM     28  C   UNL     1       1.930   3.700  -6.483  0.00  0.00    +0.105 A 
ATOM     29  C   UNL     1       1.559   3.446  -5.175  0.00  0.00    +0.034 A 
BRANCH  28  30
ATOM     30  S   UNL     1       3.411   3.000  -7.132  0.00  0.00    +0.056 S 
ATOM     31  O   UNL     1       3.248   2.939  -8.542  0.00  0.00    -0.153 OA
ATOM     32  O   UNL     1       3.694   1.849  -6.348  0.00  0.00    -0.153 OA
BRANCH  30  33
ATOM     33  N   UNL     1       4.631   4.081  -6.842  0.00  0.00    -0.204 NA
ATOM     34  H   UNL     1       5.578   3.680  -7.234  0.00  0.00    +0.144 HD
ATOM     35  H   UNL     1       4.724   4.248  -5.759  0.00  0.00    +0.144 HD
ENDBRANCH  30  33
ENDBRANCH  28  30
ENDBRANCH  20  21
ENDBRANCH  13  20
TORSDOF 5
