REMARK  Name = ZINC39595587
REMARK  8 active torsions:
REMARK  status: ('A' for Active; 'I' for Inactive)
REMARK    1  A    between atoms: C_1  and  C_2
REMARK    2  A    between atoms: C_2  and  C_4
REMARK    3  A    between atoms: C_2  and  O_31
REMARK    4  A    between atoms: C_4  and  N_5
REMARK    5  A    between atoms: C_6  and  C_8
REMARK    6  A    between atoms: C_19  and  C_21
REMARK    7  A    between atoms: C_24  and  C_27
REMARK    8  A    between atoms: O_31  and  C_32
REMARK                            x       y       z     vdW  Elec       q    Type
REMARK                         _______ _______ _______ _____ _____    ______ ____
ROOT
ATOM      1  C   UNL     1      -0.638  -4.891  -1.543  0.00  0.00    +0.100 C 
ATOM      2  C   UNL     1      -2.170  -5.075  -1.633  0.00  0.00    +0.121 C 
ATOM      3  N   UNL     1      -2.398  -5.669  -2.971  0.00  0.00    -0.296 N 
ATOM      4  C   UNL     1      -1.282  -6.629  -3.143  0.00  0.00    +0.115 C 
ATOM      5  C   UNL     1      -0.059  -5.916  -2.533  0.00  0.00    -0.004 C 
ATOM      6  C   UNL     1       0.826  -6.919  -1.799  0.00  0.00    -0.010 C 
ATOM      7  C   UNL     1       1.437  -7.891  -2.812  0.00  0.00    -0.082 C 
ATOM      8  N   UNL     1       2.225  -7.143  -3.797  0.00  0.00    +0.379 N 
ATOM      9  C   UNL     1       1.350  -6.247  -4.563  0.00  0.00    -0.082 C 
ATOM     10  C   UNL     1       0.735  -5.205  -3.625  0.00  0.00    -0.010 C 
ATOM     11  C   UNL     1      -3.395  -5.397  -3.836  0.00  0.00    +0.247 C 
ATOM     12  O   UNL     1      -4.181  -4.501  -3.596  0.00  0.00    -0.270 OA
ATOM     13  H   UNL     1       2.928  -6.597  -3.320  0.00  0.00    -0.086 HD
ATOM     14  H   UNL     1       2.676  -7.790  -4.427  0.00  0.00    -0.086 HD
ENDROOT
BRANCH  11  15
ATOM     15  C   UNL     1      -3.534  -6.190  -5.077  0.00  0.00    +0.037 A 
ATOM     16  C   UNL     1      -2.963  -7.461  -5.164  0.00  0.00    +0.013 A 
ATOM     17  C   UNL     1      -3.097  -8.195  -6.324  0.00  0.00    +0.013 A 
ATOM     18  C   UNL     1      -3.794  -7.675  -7.400  0.00  0.00    +0.055 A 
ATOM     19  C   UNL     1      -4.362  -6.415  -7.320  0.00  0.00    +0.013 A 
ATOM     20  C   UNL     1      -4.241  -5.673  -6.163  0.00  0.00    +0.013 A 
BRANCH  18  21
ATOM     21  C   UNL     1      -3.936  -8.482  -8.664  0.00  0.00    +0.417 C 
ATOM     22  F   UNL     1      -5.093  -9.264  -8.591  0.00  0.00    -0.166 F 
ATOM     23  F   UNL     1      -4.025  -7.619  -9.761  0.00  0.00    -0.166 F 
ATOM     24  F   UNL     1      -2.820  -9.313  -8.813  0.00  0.00    -0.166 F 
ENDBRANCH  18  21
ENDBRANCH  11  15
BRANCH   1  26
ATOM     25  N   UNL     1       0.859  -2.925  -1.442  0.00  0.00    -0.312 N 
ATOM     26  C   UNL     1      -0.253  -3.493  -1.950  0.00  0.00    +0.218 C 
ATOM     27  O   UNL     1      -0.943  -2.877  -2.735  0.00  0.00    -0.275 OA
ATOM     28  H   UNL     1       1.411  -3.417  -0.814  0.00  0.00    +0.149 HD
BRANCH  25  29
ATOM     29  C   UNL     1       1.234  -1.565  -1.837  0.00  0.00    +0.148 C 
BRANCH  29  31
ATOM     30  C   UNL     1       2.917   0.257  -1.535  0.00  0.00    +0.053 C 
ATOM     31  C   UNL     1       2.525  -1.164  -1.122  0.00  0.00    +0.187 C 
BRANCH  31  32
ATOM     32  O   UNL     1       2.321  -1.209   0.292  0.00  0.00    -0.488 OA
BRANCH  32  33
ATOM     33  C   UNL     1       3.420  -1.402   1.069  0.00  0.00    +0.121 A 
ATOM     34  C   UNL     1       3.280  -1.578   2.437  0.00  0.00    +0.048 A 
ATOM     35  C   UNL     1       4.398  -1.774   3.225  0.00  0.00    +0.042 A 
ATOM     36  C   UNL     1       5.657  -1.794   2.650  0.00  0.00    +0.124 A 
ATOM     37  C   UNL     1       5.798  -1.618   1.284  0.00  0.00    +0.042 A 
ATOM     38  C   UNL     1       4.681  -1.429   0.492  0.00  0.00    +0.048 A 
ATOM     39  F   UNL     1       6.749  -1.985   3.422  0.00  0.00    -0.205 F 
ENDBRANCH  32  33
ENDBRANCH  31  32
ENDBRANCH  29  31
ENDBRANCH  25  29
ENDBRANCH   1  26
TORSDOF 7
