REMARK  Name = ZINC05286263
REMARK  4 active torsions:
REMARK  status: ('A' for Active; 'I' for Inactive)
REMARK    1  A    between atoms: C_4  and  C_20
REMARK    2  A    between atoms: C_5  and  C_7
REMARK    3  A    between atoms: C_7  and  N_9
REMARK    4  A    between atoms: C_20  and  N_22
REMARK                            x       y       z     vdW  Elec       q    Type
REMARK                         _______ _______ _______ _____ _____    ______ ____
ROOT
ATOM      1  C   UNL     1      -0.043   1.580  -0.135  0.00  0.00    +0.001 A 
ATOM      2  C   UNL     1       1.240   2.098  -0.108  0.00  0.00    +0.001 A 
ATOM      3  C   UNL     1       2.328   1.261   0.049  0.00  0.00    +0.014 A 
ATOM      4  C   UNL     1       2.137  -0.111   0.183  0.00  0.00    +0.051 A 
ATOM      5  C   UNL     1       0.834  -0.637   0.157  0.00  0.00    +0.051 A 
ATOM      6  C   UNL     1      -0.251   0.221  -0.003  0.00  0.00    +0.014 A 
ENDROOT
BRANCH   5   7
ATOM      7  C   UNL     1       0.616  -2.095   0.297  0.00  0.00    +0.271 C 
ATOM      8  O   UNL     1       0.991  -2.673   1.302  0.00  0.00    -0.268 OA
BRANCH   7   9
ATOM      9  N   UNL     1       0.007  -2.778  -0.678  0.00  0.00    -0.143 NA
ATOM     10  C   UNL     1      -0.283  -4.063  -0.509  0.00  0.00    +0.199 A 
ATOM     11  N   UNL     1       0.085  -4.819   0.560  0.00  0.00    -0.326 N 
ATOM     12  H   UNL     1       0.600  -4.513   1.323  0.00  0.00    +0.169 HD
ATOM     13  C   UNL     1      -0.405  -6.107   0.371  0.00  0.00    +0.065 A 
ATOM     14  C   UNL     1      -0.333  -7.268   1.128  0.00  0.00    +0.028 A 
ATOM     15  C   UNL     1      -0.933  -8.425   0.672  0.00  0.00    +0.002 A 
ATOM     16  C   UNL     1      -1.607  -8.432  -0.537  0.00  0.00    +0.002 A 
ATOM     17  C   UNL     1      -1.685  -7.283  -1.298  0.00  0.00    +0.028 A 
ATOM     18  C   UNL     1      -1.085  -6.115  -0.849  0.00  0.00    +0.065 A 
ATOM     19  N   UNL     1      -0.999  -4.830  -1.374  0.00  0.00    -0.326 N 
ATOM     20  H   UNL     1      -1.382  -4.532  -2.214  0.00  0.00    +0.169 HD
ENDBRANCH   7   9
ENDBRANCH   5   7
BRANCH   4  21
ATOM     21  C   UNL     1       3.300  -1.012   0.352  0.00  0.00    +0.271 C 
ATOM     22  O   UNL     1       3.126  -2.203   0.544  0.00  0.00    -0.268 OA
BRANCH  21  23
ATOM     23  N   UNL     1       4.542  -0.519   0.293  0.00  0.00    -0.143 NA
ATOM     24  C   UNL     1       5.585  -1.341   0.335  0.00  0.00    +0.199 A 
ATOM     25  N   UNL     1       5.522  -2.698   0.283  0.00  0.00    -0.326 N 
ATOM     26  H   UNL     1       4.712  -3.227   0.209  0.00  0.00    +0.169 HD
ATOM     27  C   UNL     1       6.818  -3.198   0.353  0.00  0.00    +0.065 A 
ATOM     28  C   UNL     1       7.339  -4.484   0.342  0.00  0.00    +0.028 A 
ATOM     29  C   UNL     1       8.704  -4.674   0.427  0.00  0.00    +0.002 A 
ATOM     30  C   UNL     1       9.556  -3.587   0.522  0.00  0.00    +0.002 A 
ATOM     31  C   UNL     1       9.048  -2.303   0.534  0.00  0.00    +0.028 A 
ATOM     32  C   UNL     1       7.678  -2.101   0.450  0.00  0.00    +0.065 A 
ATOM     33  N   UNL     1       6.886  -0.957   0.431  0.00  0.00    -0.326 N 
ATOM     34  H   UNL     1       7.207  -0.043   0.481  0.00  0.00    +0.169 HD
ENDBRANCH  21  23
ENDBRANCH   4  21
TORSDOF 4
