REMARK  Name = ZINC11012201
REMARK  16 active torsions:
REMARK  status: ('A' for Active; 'I' for Inactive)
REMARK    1  A    between atoms: C_1  and  C_2
REMARK    2  A    between atoms: C_2  and  C_3
REMARK    3  A    between atoms: C_2  and  C_4
REMARK    4  A    between atoms: C_4  and  N_5
REMARK    5  A    between atoms: C_6  and  N_34
REMARK    6  A    between atoms: C_7  and  N_14
REMARK    7  A    between atoms: N_14  and  C_15
REMARK    8  A    between atoms: C_15  and  C_16
REMARK    9  A    between atoms: C_16  and  C_17
REMARK   10  A    between atoms: C_16  and  C_18
REMARK   11  A    between atoms: C_19  and  C_21
REMARK   12  A    between atoms: C_21  and  N_65
REMARK   13  A    between atoms: C_22  and  N_65
REMARK   14  A    between atoms: C_23  and  C_24
REMARK   15  A    between atoms: C_23  and  N_65
REMARK   16  A    between atoms: C_26  and  N_31
REMARK                            x       y       z     vdW  Elec       q    Type
REMARK                         _______ _______ _______ _____ _____    ______ ____
ROOT
ATOM      1  N   UNL     1      -1.978   4.733   0.028  0.00  0.00    -0.266 N 
ATOM      2  C   UNL     1      -1.662   3.445   0.275  0.00  0.00    +0.203 C 
ATOM      3  O   UNL     1      -2.175   2.559  -0.377  0.00  0.00    -0.277 OA
ENDROOT
BRANCH   1   6
ATOM      4  N   UNL     1      -3.651   6.083  -2.952  0.00  0.00    -0.280 N 
ATOM      5  C   UNL     1      -2.661   5.795  -2.042  0.00  0.00    +0.127 A 
ATOM      6  C   UNL     1      -2.971   5.046  -0.924  0.00  0.00    +0.140 A 
ATOM      7  C   UNL     1      -4.293   4.595  -0.755  0.00  0.00    +0.277 A 
ATOM      8  O   UNL     1      -4.594   3.928   0.221  0.00  0.00    -0.266 OA
ATOM      9  N   UNL     1      -5.227   4.911  -1.674  0.00  0.00    -0.273 N 
ATOM     10  H   UNL     1      -6.168   4.598  -1.550  0.00  0.00    +0.173 HD
ATOM     11  C   UNL     1      -4.906   5.641  -2.756  0.00  0.00    +0.331 A 
ATOM     12  O   UNL     1      -5.767   5.908  -3.573  0.00  0.00    -0.246 OA
BRANCH   5  13
ATOM     13  N   UNL     1      -1.379   6.247  -2.241  0.00  0.00    -0.343 N 
ATOM     14  H   UNL     1      -0.669   5.975  -1.639  0.00  0.00    +0.144 HD
ATOM     15  H   UNL     1      -1.183   6.838  -2.985  0.00  0.00    +0.144 HD
ENDBRANCH   5  13
BRANCH   4  16
ATOM     16  C   UNL     1      -3.336   6.877  -4.143  0.00  0.00    +0.131 C 
BRANCH  16  18
ATOM     17  C   UNL     1      -4.097   5.063  -5.683  0.00  0.00    +0.009 C 
ATOM     18  C   UNL     1      -2.913   5.944  -5.280  0.00  0.00    +0.003 C 
ATOM     19  C   UNL     1      -2.465   6.777  -6.483  0.00  0.00    +0.009 C 
ENDBRANCH  16  18
ENDBRANCH   4  16
ENDBRANCH   1   6
BRANCH   1  20
ATOM     20  C   UNL     1      -1.290   5.807   0.749  0.00  0.00    +0.117 C 
BRANCH  20  21
ATOM     21  C   UNL     1      -2.078   6.159   2.013  0.00  0.00    +0.001 C 
ATOM     22  C   UNL     1      -1.279   7.159   2.850  0.00  0.00    +0.009 C 
ATOM     23  C   UNL     1      -3.421   6.779   1.621  0.00  0.00    +0.009 C 
ENDBRANCH  20  21
ENDBRANCH   1  20
BRANCH   2  24
ATOM     24  C   UNL     1      -0.671   3.107   1.359  0.00  0.00    +0.019 C 
BRANCH  24  26
ATOM     25  C   UNL     1       0.072   1.090   0.244  0.00  0.00    -0.095 C 
ATOM     26  N   UNL     1      -0.562   1.636   1.462  0.00  0.00    +0.386 N 
ATOM     27  H   UNL     1      -1.504   1.237   1.556  0.00  0.00    -0.081 HD
BRANCH  26  28
ATOM     28  C   UNL     1       0.234   1.272   2.653  0.00  0.00    -0.041 C 
BRANCH  28  29
ATOM     29  C   UNL     1       0.145  -0.219   2.860  0.00  0.00    -0.043 A 
ATOM     30  C   UNL     1       1.224  -1.025   2.547  0.00  0.00    +0.036 A 
ATOM     31  C   UNL     1       1.145  -2.391   2.741  0.00  0.00    +0.126 A 
ATOM     32  C   UNL     1      -0.017  -2.953   3.238  0.00  0.00    +0.034 A 
ATOM     33  C   UNL     1      -1.097  -2.149   3.545  0.00  0.00    +0.022 A 
ATOM     34  C   UNL     1      -1.017  -0.780   3.356  0.00  0.00    +0.042 A 
ATOM     35 CL   UNL     1      -2.374   0.231   3.743  0.00  0.00    -0.083 Cl
BRANCH  31  36
ATOM     36  N   UNL     1       2.302  -3.253   2.411  0.00  0.00    +0.056 N 
ATOM     37  O   UNL     1       2.231  -4.458   2.578  0.00  0.00    -0.126 OA
ATOM     38  O   UNL     1       3.325  -2.758   1.974  0.00  0.00    -0.126 OA
ENDBRANCH  31  36
ENDBRANCH  28  29
ENDBRANCH  26  28
ENDBRANCH  24  26
ENDBRANCH   2  24
TORSDOF 11
