REMARK  Name = ZINC15967564
REMARK  6 active torsions:
REMARK  status: ('A' for Active; 'I' for Inactive)
REMARK    1  A    between atoms: C_1  and  C_2
REMARK    2  A    between atoms: C_13  and  C_16
REMARK    3  A    between atoms: C_16  and  C_18
REMARK    4  A    between atoms: C_16  and  O_19
REMARK    5  A    between atoms: N_22  and  C_25
REMARK    6  A    between atoms: C_25  and  C_26
REMARK                            x       y       z     vdW  Elec       q    Type
REMARK                         _______ _______ _______ _____ _____    ______ ____
ROOT
ATOM      1  C   UNL     1      -0.018   1.503   0.010  0.00  0.00    +0.044 C 
ATOM      2  C   UNL     1       0.002  -0.004   0.002  0.00  0.00    -0.050 A 
ATOM      3  C   UNL     1       0.006  -0.691  -1.198  0.00  0.00    +0.005 A 
ATOM      4  C   UNL     1       0.024  -2.070  -1.212  0.00  0.00    +0.024 A 
ATOM      5  C   UNL     1       0.039  -2.782  -0.015  0.00  0.00    +0.039 A 
ATOM      6  C   UNL     1       0.035  -2.081   1.187  0.00  0.00    +0.004 A 
ATOM      7  C   UNL     1       0.023  -0.704   1.195  0.00  0.00    +0.011 A 
ATOM      8  C   UNL     1       0.049  -3.122   2.270  0.00  0.00    +0.136 C 
ATOM      9  C   UNL     1       1.270  -2.970   3.185  0.00  0.00    +0.123 C 
ATOM     10  C   UNL     1       0.736  -2.203   4.427  0.00  0.00    +0.109 C 
ATOM     11  C   UNL     1      -0.760  -1.962   4.130  0.00  0.00    +0.096 C 
ATOM     12  N   UNL     1      -1.131  -3.004   3.146  0.00  0.00    -0.293 NA
ATOM     13  C   UNL     1       1.486  -0.891   4.374  0.00  0.00    +0.228 C 
ATOM     14  O   UNL     1       1.370   0.015   5.172  0.00  0.00    -0.275 OA
ATOM     15  N   UNL     1       2.296  -0.884   3.310  0.00  0.00    -0.237 N 
ATOM     16  C   UNL     1       2.260  -2.012   2.564  0.00  0.00    +0.229 C 
ATOM     17  O   UNL     1       2.909  -2.226   1.562  0.00  0.00    -0.275 OA
ATOM     18  C   UNL     1       0.065  -4.440   1.546  0.00  0.00    +0.243 C 
ATOM     19  O   UNL     1       0.080  -5.543   2.049  0.00  0.00    -0.273 OA
ATOM     20  N   UNL     1       0.060  -4.157   0.228  0.00  0.00    -0.283 N 
ATOM     21  H   UNL     1      -1.948  -2.735   2.619  0.00  0.00    +0.124 HD
ATOM     22  H   UNL     1       0.068  -4.831  -0.470  0.00  0.00    +0.155 HD
ENDROOT
BRANCH  11  23
ATOM     23  C   UNL     1      -1.585  -2.094   5.411  0.00  0.00    +0.129 C 
ATOM     24  C   UNL     1      -3.073  -1.975   5.073  0.00  0.00    +0.039 C 
BRANCH  23  25
ATOM     25  O   UNL     1      -1.333  -3.366   6.011  0.00  0.00    -0.390 OA
ATOM     26  H   UNL     1      -1.559  -4.118   5.448  0.00  0.00    +0.210 HD
ENDBRANCH  23  25
ENDBRANCH  11  23
BRANCH  15  27
ATOM     27  C   UNL     1       3.162   0.251   2.980  0.00  0.00    +0.151 C 
BRANCH  27  28
ATOM     28  C   UNL     1       4.498   0.077   3.655  0.00  0.00    -0.026 A 
ATOM     29  C   UNL     1       4.699   0.583   4.926  0.00  0.00    +0.009 A 
ATOM     30  C   UNL     1       5.923   0.426   5.549  0.00  0.00    +0.050 A 
ATOM     31  C   UNL     1       6.951  -0.239   4.901  0.00  0.00    +0.166 A 
ATOM     32  C   UNL     1       6.748  -0.748   3.620  0.00  0.00    +0.167 A 
ATOM     33  C   UNL     1       5.517  -0.592   3.004  0.00  0.00    +0.054 A 
ATOM     34  O   UNL     1       7.899  -1.352   3.203  0.00  0.00    -0.453 OA
ATOM     35  C   UNL     1       8.932  -0.852   4.073  0.00  0.00    +0.466 C 
ATOM     36  O   UNL     1       8.229  -0.524   5.286  0.00  0.00    -0.453 OA
ENDBRANCH  27  28
ENDBRANCH  15  27
TORSDOF 4
