REMARK  Name = ZINC13639802
REMARK  5 active torsions:
REMARK  status: ('A' for Active; 'I' for Inactive)
REMARK    1  A    between atoms: C_3  and  C_9
REMARK    2  A    between atoms: C_4  and  O_8
REMARK    3  A    between atoms: C_6  and  O_7
REMARK    4  A    between atoms: C_19  and  N_26
REMARK    5  A    between atoms: C_22  and  O_25
REMARK                            x       y       z     vdW  Elec       q    Type
REMARK                         _______ _______ _______ _____ _____    ______ ____
ROOT
ATOM      1  C   UNL     1       3.555   2.169   0.002  0.00  0.00    +0.109 C 
ATOM      2  C   UNL     1       4.044   2.356  -1.423  0.00  0.00    +0.029 C 
ATOM      3  C   UNL     1       4.168   1.097  -2.292  0.00  0.00    +0.033 C 
ATOM      4  C   UNL     1       3.923   1.664  -3.692  0.00  0.00    -0.030 C 
ATOM      5  C   UNL     1       3.190   2.768  -3.613  0.00  0.00    -0.023 C 
ATOM      6  C   UNL     1       2.867   3.042  -2.180  0.00  0.00    +0.051 C 
ATOM      7  C   UNL     1       2.715   4.410  -1.637  0.00  0.00    +0.014 A 
ATOM      8  C   UNL     1       2.342   5.481  -2.422  0.00  0.00    +0.132 A 
ATOM      9  C   UNL     1       2.199   6.738  -1.867  0.00  0.00    +0.037 A 
ATOM     10  C   UNL     1       2.429   6.929  -0.517  0.00  0.00    +0.049 A 
ATOM     11  C   UNL     1       2.809   5.864   0.280  0.00  0.00    +0.138 A 
ATOM     12  C   UNL     1       2.962   4.593  -0.274  0.00  0.00    +0.076 A 
ATOM     13  N   UNL     1       3.382   3.533   0.548  0.00  0.00    -0.333 N 
ATOM     14  H   UNL     1       3.563   3.696   1.487  0.00  0.00    +0.147 HD
ENDROOT
BRANCH   1  17
ATOM     15  C   UNL     1      -0.155   1.473   0.021  0.00  0.00    +0.046 A 
ATOM     16  C   UNL     1       1.053   2.143   0.015  0.00  0.00    +0.012 A 
ATOM     17  C   UNL     1       2.239   1.435   0.009  0.00  0.00    +0.015 A 
ATOM     18  C   UNL     1       2.220   0.047   0.009  0.00  0.00    +0.125 A 
ATOM     19  C   UNL     1       1.009  -0.628   0.015  0.00  0.00    +0.091 A 
ATOM     20  C   UNL     1      -0.180   0.086   0.021  0.00  0.00    +0.120 A 
BRANCH  20  21
ATOM     21  O   UNL     1      -1.368  -0.573   0.027  0.00  0.00    -0.507 OA
ATOM     22  H   UNL     1      -1.717  -0.764  -0.854  0.00  0.00    +0.292 HD
ENDBRANCH  20  21
BRANCH  18  23
ATOM     23  O   UNL     1       3.387  -0.650   0.002  0.00  0.00    -0.506 OA
ATOM     24  H   UNL     1       3.729  -0.851   0.884  0.00  0.00    +0.292 HD
ENDBRANCH  18  23
ENDBRANCH   1  17
BRANCH   8  25
ATOM     25  N   UNL     1       2.093   5.282  -3.868  0.00  0.00    +0.057 N 
ATOM     26  O   UNL     1       2.663   5.973  -4.679  0.00  0.00    -0.126 OA
ATOM     27  O   UNL     1       1.321   4.428  -4.236  0.00  0.00    -0.126 OA
ENDBRANCH   8  25
BRANCH  11  28
ATOM     28  O   UNL     1       3.033   6.056   1.607  0.00  0.00    -0.505 OA
ATOM     29  H   UNL     1       2.249   5.936   2.160  0.00  0.00    +0.292 HD
ENDBRANCH  11  28
TORSDOF 5
