REMARK  Name = ZINC39634792
REMARK  12 active torsions:
REMARK  status: ('A' for Active; 'I' for Inactive)
REMARK    1  A    between atoms: C_1  and  C_2
REMARK    2  A    between atoms: C_2  and  C_3
REMARK    3  A    between atoms: C_2  and  N_4
REMARK    4  A    between atoms: N_4  and  C_5
REMARK    5  A    between atoms: N_4  and  C_32
REMARK    6  A    between atoms: C_5  and  C_6
REMARK    7  A    between atoms: C_6  and  N_7
REMARK    8  A    between atoms: C_8  and  C_10
REMARK    9  A    between atoms: C_21  and  C_23
REMARK   10  A    between atoms: C_29  and  C_31
REMARK   11  A    between atoms: C_32  and  C_33
REMARK   12  A    between atoms: C_32  and  C_34
REMARK                            x       y       z     vdW  Elec       q    Type
REMARK                         _______ _______ _______ _____ _____    ______ ____
ROOT
ATOM      1  C   UNL     1      -8.135  -1.376  -2.801  0.00  0.00    +0.100 C 
ATOM      2  C   UNL     1      -8.271  -2.668  -3.638  0.00  0.00    +0.121 C 
ATOM      3  N   UNL     1      -9.553  -3.267  -3.196  0.00  0.00    -0.300 N 
ATOM      4  C   UNL     1     -10.461  -2.108  -3.023  0.00  0.00    +0.115 C 
ATOM      5  C   UNL     1      -9.575  -1.010  -2.403  0.00  0.00    -0.004 C 
ATOM      6  C   UNL     1      -9.949   0.356  -2.971  0.00  0.00    -0.010 C 
ATOM      7  C   UNL     1     -11.363   0.724  -2.513  0.00  0.00    -0.082 C 
ATOM      8  N   UNL     1     -11.412   0.752  -1.046  0.00  0.00    +0.379 N 
ATOM      9  C   UNL     1     -11.142  -0.588  -0.511  0.00  0.00    -0.082 C 
ATOM     10  C   UNL     1      -9.719  -1.012  -0.884  0.00  0.00    -0.010 C 
ATOM     11  C   UNL     1      -9.830  -4.570  -2.997  0.00  0.00    +0.219 C 
ATOM     12  O   UNL     1     -10.937  -4.906  -2.632  0.00  0.00    -0.275 OA
ATOM     13  H   UNL     1     -10.718   1.398  -0.700  0.00  0.00    -0.086 HD
ATOM     14  H   UNL     1     -12.328   1.054  -0.748  0.00  0.00    -0.086 HD
ENDROOT
BRANCH  11  15
ATOM     15  C   UNL     1      -8.765  -5.611  -3.228  0.00  0.00    +0.078 C 
ATOM     16  C   UNL     1      -8.299  -5.549  -4.684  0.00  0.00    +0.032 C 
ATOM     17  C   UNL     1      -7.192  -6.585  -4.907  0.00  0.00    +0.108 C 
ATOM     18  N   UNL     1      -7.687  -7.903  -4.487  0.00  0.00    -0.302 N 
ATOM     19  C   UNL     1      -8.242  -8.052  -3.135  0.00  0.00    +0.108 C 
ATOM     20  C   UNL     1      -9.336  -7.000  -2.932  0.00  0.00    +0.032 C 
ATOM     21  C   UNL     1      -7.634  -8.956  -5.327  0.00  0.00    +0.212 C 
ATOM     22  O   UNL     1      -8.128 -10.015  -5.003  0.00  0.00    -0.276 OA
ATOM     23  C   UNL     1      -6.960  -8.817  -6.668  0.00  0.00    +0.109 C 
ENDBRANCH  11  15
BRANCH   1  25
ATOM     24  N   UNL     1      -6.703  -0.605  -0.938  0.00  0.00    -0.317 N 
ATOM     25  C   UNL     1      -7.300  -1.632  -1.574  0.00  0.00    +0.218 C 
ATOM     26  O   UNL     1      -7.165  -2.763  -1.157  0.00  0.00    -0.275 OA
ATOM     27  H   UNL     1      -6.810   0.300  -1.272  0.00  0.00    +0.149 HD
BRANCH  24  28
ATOM     28  C   UNL     1      -5.891  -0.854   0.255  0.00  0.00    +0.085 C 
BRANCH  28  29
ATOM     29  C   UNL     1      -5.332   0.471   0.777  0.00  0.00    -0.059 C 
BRANCH  29  30
ATOM     30  N   UNL     1      -4.428   0.211   1.906  0.00  0.00    +0.384 N 
ATOM     31  H   UNL     1      -4.913  -0.326   2.609  0.00  0.00    -0.081 HD
BRANCH  30  33
ATOM     32  C   UNL     1      -5.197   2.255   3.013  0.00  0.00    -0.014 C 
ATOM     33  C   UNL     1      -3.984   1.487   2.483  0.00  0.00    -0.074 C 
ATOM     34  C   UNL     1      -3.010   1.216   3.631  0.00  0.00    -0.014 C 
ENDBRANCH  30  33
BRANCH  30  35
ATOM     35  C   UNL     1      -3.260  -0.545   1.433  0.00  0.00    -0.074 C 
ATOM     36  C   UNL     1      -2.237   0.421   0.831  0.00  0.00    -0.014 C 
ATOM     37  C   UNL     1      -2.626  -1.291   2.609  0.00  0.00    -0.014 C 
ENDBRANCH  30  35
ENDBRANCH  29  30
ENDBRANCH  28  29
ENDBRANCH  24  28
ENDBRANCH   1  25
TORSDOF 7
