REMARK  Name = ZINC05156433
REMARK  7 active torsions:
REMARK  status: ('A' for Active; 'I' for Inactive)
REMARK    1  A    between atoms: C_1  and  C_2
REMARK    2  A    between atoms: C_3  and  C_17
REMARK    3  A    between atoms: C_4  and  C_10
REMARK    4  A    between atoms: C_17  and  O_19
REMARK    5  A    between atoms: O_19  and  C_20
REMARK    6  A    between atoms: C_20  and  C_21
REMARK    7  A    between atoms: C_20  and  C_22
REMARK                            x       y       z     vdW  Elec       q    Type
REMARK                         _______ _______ _______ _____ _____    ______ ____
ROOT
ATOM      1  C   UNL     1      -0.883  -1.006   0.179  0.00  0.00    +0.061 C 
ATOM      2  C   UNL     1       0.336  -0.128   0.055  0.00  0.00    +0.019 C 
ATOM      3  C   UNL     1       0.201   1.213   0.136  0.00  0.00    +0.078 C 
ATOM      4  C   UNL     1       1.452   2.058   0.007  0.00  0.00    +0.142 C 
ATOM      5  N   UNL     1       2.722   1.341  -0.199  0.00  0.00    -0.315 N 
ATOM      6  C   UNL     1       2.696  -0.005  -0.259  0.00  0.00    +0.135 C 
ATOM      7  S   UNL     1       4.165  -0.852  -0.497  0.00  0.00    -0.019 S 
ATOM      8  N   UNL     1       1.559  -0.702  -0.138  0.00  0.00    -0.300 N 
ATOM      9  H   UNL     1       3.557   1.826  -0.289  0.00  0.00    +0.149 HD
ATOM     10  H   UNL     1       1.608  -1.670  -0.190  0.00  0.00    +0.154 HD
ENDROOT
BRANCH   4  11
ATOM     11  C   UNL     1       1.585   2.887   1.258  0.00  0.00    -0.009 A 
ATOM     12  C   UNL     1       2.311   2.408   2.332  0.00  0.00    +0.007 A 
ATOM     13  C   UNL     1       2.437   3.171   3.477  0.00  0.00    +0.000 A 
ATOM     14  C   UNL     1       1.827   4.410   3.554  0.00  0.00    +0.001 A 
ATOM     15  C   UNL     1       1.096   4.888   2.482  0.00  0.00    +0.015 A 
ATOM     16  C   UNL     1       0.975   4.126   1.334  0.00  0.00    +0.023 A 
ATOM     17 BR   UNL     1      -0.025   4.780  -0.133  0.00  0.00    -0.050 Br
ENDBRANCH   4  11
BRANCH   3  18
ATOM     18  C   UNL     1      -1.067   1.810   0.330  0.00  0.00    +0.339 C 
ATOM     19  O   UNL     1      -1.677   2.264  -0.620  0.00  0.00    -0.245 OA
BRANCH  18  20
ATOM     20  O   UNL     1      -1.600   1.875   1.568  0.00  0.00    -0.459 OA
BRANCH  20  21
ATOM     21  C   UNL     1      -2.825   2.597   1.710  0.00  0.00    +0.171 C 
ATOM     22  C   UNL     1      -4.004   1.631   1.576  0.00  0.00    +0.052 C 
ATOM     23  C   UNL     1      -2.866   3.265   3.086  0.00  0.00    +0.052 C 
ENDBRANCH  20  21
ENDBRANCH  18  20
ENDBRANCH   3  18
TORSDOF 4
