REMARK  Name = ZINC66925062
REMARK  6 active torsions:
REMARK  status: ('A' for Active; 'I' for Inactive)
REMARK    1  A    between atoms: C_1  and  C_2
REMARK    2  A    between atoms: C_2  and  C_4
REMARK    3  A    between atoms: C_2  and  N_15
REMARK    4  A    between atoms: N_18  and  C_19
REMARK    5  A    between atoms: C_19  and  C_20
REMARK    6  A    between atoms: C_20  and  O_30
REMARK                            x       y       z     vdW  Elec       q    Type
REMARK                         _______ _______ _______ _____ _____    ______ ____
ROOT
ATOM      1  N   UNL     1      -1.266  -0.895   0.039  0.00  0.00    -0.293 N 
ATOM      2  C   UNL     1      -1.968  -0.869   1.189  0.00  0.00    +0.300 C 
ATOM      3  O   UNL     1      -1.452  -0.450   2.208  0.00  0.00    -0.253 OA
ATOM      4  N   UNL     1      -3.243  -1.307   1.210  0.00  0.00    -0.296 N 
ATOM      5  H   UNL     1      -1.677  -1.229  -0.773  0.00  0.00    +0.151 HD
ATOM      6  H   UNL     1      -3.654  -1.641   0.398  0.00  0.00    +0.150 HD
ENDROOT
BRANCH   1   8
ATOM      7  C   UNL     1       0.134   1.099  -0.180  0.00  0.00    +0.033 C 
ATOM      8  C   UNL     1       0.119  -0.418   0.016  0.00  0.00    +0.102 C 
BRANCH   8   9
ATOM      9  C   UNL     1       0.859  -1.079  -1.118  0.00  0.00    -0.025 A 
ATOM     10  C   UNL     1       0.232  -1.260  -2.337  0.00  0.00    +0.009 A 
ATOM     11  C   UNL     1       0.904  -1.864  -3.384  0.00  0.00    +0.048 A 
ATOM     12  C   UNL     1       2.209  -2.291  -3.211  0.00  0.00    +0.142 A 
ATOM     13  C   UNL     1       2.841  -2.110  -1.981  0.00  0.00    +0.076 A 
ATOM     14  C   UNL     1       2.165  -1.498  -0.939  0.00  0.00    +0.032 A 
ATOM     15  N   UNL     1       4.163  -2.549  -1.818  0.00  0.00    -0.280 N 
ATOM     16  C   UNL     1       4.895  -2.842  -2.915  0.00  0.00    +0.255 C 
ATOM     17  O   UNL     1       6.030  -3.253  -2.797  0.00  0.00    -0.272 OA
ATOM     18  C   UNL     1       4.296  -2.656  -4.286  0.00  0.00    +0.325 C 
ATOM     19  O   UNL     1       2.886  -2.886  -4.229  0.00  0.00    -0.481 OA
ATOM     20  H   UNL     1       4.545  -2.640  -0.932  0.00  0.00    +0.155 HD
ENDBRANCH   8   9
ENDBRANCH   1   8
BRANCH   4  21
ATOM     21  C   UNL     1      -4.006  -1.278   2.460  0.00  0.00    +0.145 C 
BRANCH  21  22
ATOM     22  C   UNL     1      -5.451  -1.701   2.185  0.00  0.00    +0.107 C 
ATOM     23  C   UNL     1      -6.051  -0.781   1.124  0.00  0.00    +0.041 C 
ATOM     24  C   UNL     1      -7.552  -1.077   1.020  0.00  0.00    +0.008 C 
ATOM     25  C   UNL     1      -8.230  -0.580   2.296  0.00  0.00    +0.035 C 
ATOM     26  C   UNL     1      -7.521  -1.112   3.514  0.00  0.00    -0.041 A 
ATOM     27  C   UNL     1      -6.244  -1.623   3.464  0.00  0.00    -0.011 A 
ATOM     28  C   UNL     1      -5.644  -2.091   4.625  0.00  0.00    +0.007 A 
ATOM     29  C   UNL     1      -6.320  -2.052   5.828  0.00  0.00    +0.000 A 
ATOM     30  C   UNL     1      -7.604  -1.542   5.877  0.00  0.00    +0.000 A 
ATOM     31  C   UNL     1      -8.200  -1.074   4.724  0.00  0.00    +0.004 A 
BRANCH  22  32
ATOM     32  O   UNL     1      -5.465  -3.046   1.704  0.00  0.00    -0.382 OA
ATOM     33  H   UNL     1      -5.090  -3.689   2.321  0.00  0.00    +0.211 HD
ENDBRANCH  22  32
ENDBRANCH  21  22
ENDBRANCH   4  21
TORSDOF 5
