REMARK  Name = ZINC64110509
REMARK  4 active torsions:
REMARK  status: ('A' for Active; 'I' for Inactive)
REMARK    1  A    between atoms: C_7  and  C_10
REMARK    2  A    between atoms: C_10  and  C_11
REMARK    3  A    between atoms: C_11  and  C_12
REMARK    4  A    between atoms: C_18  and  C_21
REMARK                            x       y       z     vdW  Elec       q    Type
REMARK                         _______ _______ _______ _____ _____    ______ ____
ROOT
ATOM      1  C   UNL     1      -0.484  -4.830  -1.460  0.00  0.00    +0.216 C 
ATOM      2  O   UNL     1      -0.925  -5.254  -0.412  0.00  0.00    -0.276 OA
ATOM      3  N   UNL     1      -0.837  -5.413  -2.623  0.00  0.00    -0.301 N 
ATOM      4  C   UNL     1      -0.307  -4.916  -3.900  0.00  0.00    +0.108 C 
ATOM      5  C   UNL     1      -1.481  -4.624  -4.840  0.00  0.00    +0.020 C 
ATOM      6  C   UNL     1      -2.352  -5.875  -4.966  0.00  0.00    +0.016 C 
ATOM      7  C   UNL     1      -2.915  -6.247  -3.593  0.00  0.00    +0.093 C 
ATOM      8  C   UNL     1      -1.753  -6.561  -2.638  0.00  0.00    +0.120 C 
ENDROOT
BRANCH   7   9
ATOM      9  C   UNL     1      -3.800  -7.460  -3.723  0.00  0.00    +0.223 C 
ATOM     10  O   UNL     1      -3.964  -7.977  -4.808  0.00  0.00    -0.275 OA
ATOM     11  N   UNL     1      -4.408  -7.971  -2.634  0.00  0.00    -0.263 N 
ATOM     12  C   UNL     1      -5.224  -9.091  -2.755  0.00  0.00    +0.187 A 
ATOM     13  N   UNL     1      -5.521  -9.791  -3.832  0.00  0.00    -0.126 NA
ATOM     14  N   UNL     1      -6.287 -10.795  -3.785  0.00  0.00    -0.148 NA
ATOM     15  C   UNL     1      -6.804 -11.154  -2.627  0.00  0.00    +0.183 A 
ATOM     16  S   UNL     1      -6.087  -9.911  -1.561  0.00  0.00    -0.039 S 
ATOM     17  H   UNL     1      -4.276  -7.558  -1.767  0.00  0.00    +0.157 HD
ENDBRANCH   7   9
BRANCH   1  18
ATOM     18  C   UNL     1       0.457  -3.653  -1.462  0.00  0.00    +0.100 C 
BRANCH  18  19
ATOM     19  C   UNL     1       0.691  -3.186  -0.024  0.00  0.00    +0.042 C 
BRANCH  19  26
ATOM     20  C   UNL     1      -0.016   1.348   0.009  0.00  0.00    +0.001 A 
ATOM     21  C   UNL     1       1.166   2.101   0.002  0.00  0.00    +0.002 A 
ATOM     22  C   UNL     1       2.391   1.535  -0.013  0.00  0.00    +0.026 A 
ATOM     23  C   UNL     1       2.529   0.120  -0.022  0.00  0.00    +0.043 A 
ATOM     24  N   UNL     1       3.587  -0.654  -0.037  0.00  0.00    -0.380 N 
ATOM     25  C   UNL     1       3.143  -2.053  -0.041  0.00  0.00    +0.144 C 
ATOM     26  C   UNL     1       1.631  -2.008  -0.025  0.00  0.00    -0.041 C 
ATOM     27  C   UNL     1       1.295  -0.698  -0.014  0.00  0.00    -0.001 A 
ATOM     28  C   UNL     1       0.002  -0.004   0.002  0.00  0.00    +0.010 A 
ATOM     29  H   UNL     1       4.509  -0.353  -0.045  0.00  0.00    +0.160 HD
ENDBRANCH  19  26
ENDBRANCH  18  19
ENDBRANCH   1  18
TORSDOF 4
