REMARK  Name = ZINC13501164
REMARK  10 active torsions:
REMARK  status: ('A' for Active; 'I' for Inactive)
REMARK    1  A    between atoms: C_1  and  C_2
REMARK    2  A    between atoms: C_2  and  C_3
REMARK    3  A    between atoms: C_3  and  C_5
REMARK    4  A    between atoms: C_3  and  N_69
REMARK    5  A    between atoms: N_9  and  C_10
REMARK    6  A    between atoms: C_10  and  C_11
REMARK    7  A    between atoms: C_18  and  C_19
REMARK    8  A    between atoms: C_18  and  N_69
REMARK    9  A    between atoms: C_23  and  C_31
REMARK   10  A    between atoms: C_32  and  N_69
REMARK                            x       y       z     vdW  Elec       q    Type
REMARK                         _______ _______ _______ _____ _____    ______ ____
ROOT
ATOM      1  N   UNL     1       1.706   2.115   1.927  0.00  0.00    +0.391 N 
ATOM      2  H   UNL     1       1.578   3.122   2.081  0.00  0.00    -0.080 HD
ENDROOT
BRANCH   1   3
ATOM      3  C   UNL     1       2.508   1.558   3.037  0.00  0.00    -0.067 C 
ATOM      4  C   UNL     1       1.603   1.325   4.248  0.00  0.00    -0.015 C 
ATOM      5  C   UNL     1       2.435   0.774   5.408  0.00  0.00    -0.002 C 
ATOM      6  C   UNL     1       3.528   1.780   5.774  0.00  0.00    -0.000 C 
ATOM      7  C   UNL     1       4.433   2.012   4.562  0.00  0.00    -0.002 C 
ATOM      8  C   UNL     1       3.602   2.563   3.402  0.00  0.00    -0.015 C 
ENDBRANCH   1   3
BRANCH   1   9
ATOM      9  C   UNL     1       0.379   1.464   1.886  0.00  0.00    +0.003 C 
BRANCH   9  10
ATOM     10  C   UNL     1      -0.578   2.365   1.149  0.00  0.00    +0.138 A 
ATOM     11  N   UNL     1      -0.287   3.173   0.159  0.00  0.00    -0.115 NA
ATOM     12  N   UNL     1      -1.371   3.770  -0.199  0.00  0.00    -0.023 NA
ATOM     13  N   UNL     1      -2.346   3.364   0.536  0.00  0.00    -0.044 NA
ATOM     14  N   UNL     1      -1.898   2.493   1.377  0.00  0.00    -0.226 N 
BRANCH  14  15
ATOM     15  C   UNL     1      -2.679   1.780   2.390  0.00  0.00    +0.182 C 
BRANCH  15  16
ATOM     16  C   UNL     1      -2.845   2.656   3.605  0.00  0.00    -0.026 A 
ATOM     17  C   UNL     1      -1.933   2.579   4.642  0.00  0.00    +0.008 A 
ATOM     18  C   UNL     1      -2.081   3.385   5.754  0.00  0.00    +0.038 A 
ATOM     19  C   UNL     1      -3.148   4.263   5.835  0.00  0.00    +0.123 A 
ATOM     20  C   UNL     1      -4.064   4.336   4.799  0.00  0.00    +0.038 A 
ATOM     21  C   UNL     1      -3.911   3.532   3.685  0.00  0.00    +0.008 A 
ATOM     22  F   UNL     1      -3.297   5.048   6.925  0.00  0.00    -0.205 F 
ENDBRANCH  15  16
ENDBRANCH  14  15
ENDBRANCH   9  10
BRANCH   9  24
ATOM     23  C   UNL     1       1.264  -0.869   2.024  0.00  0.00    +0.002 C 
ATOM     24  C   UNL     1       0.467   0.117   1.166  0.00  0.00    -0.011 C 
ENDBRANCH   9  24
ENDBRANCH   1   9
BRANCH   1  25
ATOM     25  C   UNL     1       2.409   1.911   0.643  0.00  0.00    -0.036 C 
BRANCH  25  26
ATOM     26  C   UNL     1       3.537   2.905   0.547  0.00  0.00    +0.001 A 
ATOM     27  C   UNL     1       4.820   2.486   0.673  0.00  0.00    +0.017 A 
ATOM     28  C   UNL     1       5.893   3.477   0.575  0.00  0.00    -0.001 A 
ATOM     29  C   UNL     1       7.236   3.104   0.697  0.00  0.00    +0.013 A 
ATOM     30  C   UNL     1       8.214   4.053   0.599  0.00  0.00    -0.050 A 
ATOM     31  C   UNL     1       7.887   5.384   0.380  0.00  0.00    +0.005 A 
ATOM     32  C   UNL     1       6.571   5.774   0.256  0.00  0.00    +0.026 A 
ATOM     33  C   UNL     1       5.558   4.825   0.352  0.00  0.00    +0.049 A 
ATOM     34  N   UNL     1       4.233   5.188   0.232  0.00  0.00    -0.322 N 
ATOM     35  H   UNL     1       4.004   6.117   0.079  0.00  0.00    +0.169 HD
ATOM     36  C   UNL     1       3.255   4.269   0.319  0.00  0.00    +0.251 A 
ATOM     37  O   UNL     1       2.095   4.625   0.203  0.00  0.00    -0.268 OA
ATOM     38  C   UNL     1       9.660   3.651   0.731  0.00  0.00    +0.044 C 
ENDBRANCH  25  26
ENDBRANCH   1  25
TORSDOF 8
