REMARK  Name = ZINC08550359
REMARK  8 active torsions:
REMARK  status: ('A' for Active; 'I' for Inactive)
REMARK    1  A    between atoms: C_1  and  C_2
REMARK    2  A    between atoms: C_5  and  S_8
REMARK    3  A    between atoms: S_8  and  N_11
REMARK    4  A    between atoms: N_11  and  N_12
REMARK    5  A    between atoms: C_13  and  C_15
REMARK    6  A    between atoms: C_18  and  C_25
REMARK    7  A    between atoms: C_22  and  C_23
REMARK    8  A    between atoms: C_22  and  C_24
REMARK                            x       y       z     vdW  Elec       q    Type
REMARK                         _______ _______ _______ _____ _____    ______ ____
ROOT
ATOM      1  N   UNL     1      -3.726   2.564   2.188  0.00  0.00    -0.231 N 
ATOM      2  C   UNL     1      -3.047   3.168   1.194  0.00  0.00    +0.236 C 
ATOM      3  O   UNL     1      -3.272   4.329   0.923  0.00  0.00    -0.274 OA
ATOM      4  H   UNL     1      -3.546   1.635   2.404  0.00  0.00    +0.171 HD
ENDROOT
BRANCH   2   5
ATOM      5  C   UNL     1      -2.009   2.403   0.418  0.00  0.00    +0.067 C 
ATOM      6  C   UNL     1      -0.865   1.685   1.236  0.00  0.00    +0.018 C 
ATOM      7  C   UNL     1      -0.080   1.062   0.037  0.00  0.00    +0.009 C 
ATOM      8  C   UNL     1      -0.989   1.594  -1.139  0.00  0.00    -0.013 C 
ATOM      9  C   UNL     1      -2.441   1.345  -0.638  0.00  0.00    +0.079 C 
ATOM     10 BR   UNL     1      -3.908   1.812  -1.841  0.00  0.00    -0.086 Br
ATOM     11  C   UNL     1      -1.213   3.064  -0.727  0.00  0.00    -0.013 C 
ATOM     12  C   UNL     1       0.065   3.791  -0.267  0.00  0.00    +0.012 C 
ATOM     13  C   UNL     1      -2.002   3.938  -1.697  0.00  0.00    +0.012 C 
ATOM     14  C   UNL     1      -0.593   1.221  -2.567  0.00  0.00    +0.013 C 
ENDBRANCH   2   5
BRANCH   1  15
ATOM     15  N   UNL     1      -4.692   3.276   2.910  0.00  0.00    -0.108 NA
ATOM     16  H   UNL     1      -4.456   4.112   3.342  0.00  0.00    +0.172 HD
BRANCH  15  17
ATOM     17  S   UNL     1      -6.238   2.692   3.026  0.00  0.00    +0.074 S 
ATOM     18  O   UNL     1      -6.929   3.547   3.926  0.00  0.00    -0.152 OA
ATOM     19  O   UNL     1      -6.686   2.463   1.697  0.00  0.00    -0.152 OA
BRANCH  17  24
ATOM     20  C   UNL     1      -5.909  -2.712   5.690  0.00  0.00    +0.044 C 
ATOM     21  C   UNL     1      -5.990  -1.362   5.024  0.00  0.00    -0.050 A 
ATOM     22  C   UNL     1      -6.145  -0.222   5.791  0.00  0.00    +0.005 A 
ATOM     23  C   UNL     1      -6.220   1.016   5.181  0.00  0.00    +0.029 A 
ATOM     24  C   UNL     1      -6.141   1.114   3.804  0.00  0.00    +0.107 A 
ATOM     25  C   UNL     1      -5.992  -0.027   3.037  0.00  0.00    +0.029 A 
ATOM     26  C   UNL     1      -5.911  -1.264   3.648  0.00  0.00    +0.005 A 
ENDBRANCH  17  24
ENDBRANCH  15  17
ENDBRANCH   1  15
TORSDOF 4
