REMARK  Name = ZINC09847398
REMARK  8 active torsions:
REMARK  status: ('A' for Active; 'I' for Inactive)
REMARK    1  A    between atoms: C_1  and  C_2
REMARK    2  A    between atoms: C_2  and  C_4
REMARK    3  A    between atoms: C_2  and  N_15
REMARK    4  A    between atoms: C_7  and  C_9
REMARK    5  A    between atoms: N_15  and  C_16
REMARK    6  A    between atoms: C_19  and  N_22
REMARK    7  A    between atoms: N_22  and  S_23
REMARK    8  A    between atoms: S_23  and  C_26
REMARK                            x       y       z     vdW  Elec       q    Type
REMARK                         _______ _______ _______ _____ _____    ______ ____
ROOT
ATOM      1  C   UNL     1       4.927   1.960  -4.277  0.00  0.00    +0.028 A 
ATOM      2  C   UNL     1       5.660   0.784  -4.369  0.00  0.00    +0.025 A 
ATOM      3  C   UNL     1       5.431  -0.244  -3.475  0.00  0.00    +0.026 A 
ATOM      4  C   UNL     1       4.468  -0.102  -2.485  0.00  0.00    +0.048 A 
ATOM      5  C   UNL     1       3.732   1.072  -2.396  0.00  0.00    +0.026 A 
ATOM      6  C   UNL     1       3.964   2.102  -3.286  0.00  0.00    +0.025 A 
ENDROOT
BRANCH   1   7
ATOM      7  N   UNL     1       5.160   3.002  -5.182  0.00  0.00    -0.333 N 
ATOM      8  H   UNL     1       5.832   2.903  -5.873  0.00  0.00    +0.147 HD
BRANCH   7  10
ATOM      9  C   UNL     1       5.046   5.176  -4.067  0.00  0.00    +0.038 C 
ATOM     10  C   UNL     1       4.386   4.243  -5.085  0.00  0.00    +0.155 C 
BRANCH  10  11
ATOM     11  C   UNL     1       4.347   4.917  -6.432  0.00  0.00    +0.237 A 
ATOM     12  N   UNL     1       5.357   5.083  -7.239  0.00  0.00    -0.110 NA
ATOM     13  N   UNL     1       4.963   5.697  -8.300  0.00  0.00    -0.107 NA
ATOM     14  C   UNL     1       3.678   5.944  -8.204  0.00  0.00    +0.248 A 
ATOM     15  O   UNL     1       3.262   5.449  -7.021  0.00  0.00    -0.418 OA
BRANCH  14  16
ATOM     16  C   UNL     1       2.840   6.632  -9.210  0.00  0.00    +0.038 A 
ATOM     17  C   UNL     1       1.477   6.822  -8.975  0.00  0.00    +0.013 A 
ATOM     18  C   UNL     1       0.702   7.470  -9.915  0.00  0.00    +0.001 A 
ATOM     19  C   UNL     1       1.271   7.921 -11.093  0.00  0.00    +0.000 A 
ATOM     20  C   UNL     1       2.620   7.731 -11.334  0.00  0.00    +0.001 A 
ATOM     21  C   UNL     1       3.407   7.090 -10.400  0.00  0.00    +0.013 A 
ENDBRANCH  14  16
ENDBRANCH  10  11
ENDBRANCH   7  10
ENDBRANCH   1   7
BRANCH   4  22
ATOM     22  N   UNL     1       4.236  -1.143  -1.579  0.00  0.00    -0.216 N 
ATOM     23  H   UNL     1       3.437  -1.687  -1.659  0.00  0.00    +0.174 HD
BRANCH  22  24
ATOM     24  S   UNL     1       5.327  -1.448  -0.370  0.00  0.00    +0.072 S 
ATOM     25  O   UNL     1       6.604  -1.532  -0.988  0.00  0.00    -0.150 OA
ATOM     26  O   UNL     1       4.786  -2.506   0.408  0.00  0.00    -0.150 OA
BRANCH  24  27
ATOM     27  C   UNL     1       5.363  -0.026   0.669  0.00  0.00    +0.112 A 
ATOM     28  C   UNL     1       4.431   0.114   1.680  0.00  0.00    +0.032 A 
ATOM     29  C   UNL     1       4.455   1.229   2.497  0.00  0.00    +0.051 A 
ATOM     30  C   UNL     1       5.415   2.211   2.303  0.00  0.00    +0.162 A 
ATOM     31  C   UNL     1       6.354   2.069   1.288  0.00  0.00    +0.164 A 
ATOM     32  C   UNL     1       6.324   0.948   0.472  0.00  0.00    +0.078 A 
ATOM     33  O   UNL     1       7.310   3.017   1.087  0.00  0.00    -0.485 OA
ATOM     34  C   UNL     1       7.080   4.299   1.680  0.00  0.00    +0.270 C 
ATOM     35  C   UNL     1       6.625   4.083   3.130  0.00  0.00    +0.270 C 
ATOM     36  O   UNL     1       5.422   3.307   3.110  0.00  0.00    -0.485 OA
ENDBRANCH  24  27
ENDBRANCH  22  24
ENDBRANCH   4  22
TORSDOF 7
