REMARK  Name = ZINC18196495
REMARK  5 active torsions:
REMARK  status: ('A' for Active; 'I' for Inactive)
REMARK    1  A    between atoms: C_4  and  O_7
REMARK    2  A    between atoms: O_7  and  C_8
REMARK    3  A    between atoms: C_12  and  C_14
REMARK    4  A    between atoms: C_21  and  O_22
REMARK    5  A    between atoms: C_29  and  C_32
REMARK                            x       y       z     vdW  Elec       q    Type
REMARK                         _______ _______ _______ _____ _____    ______ ____
ROOT
ATOM      1  C   UNL     1       7.236   0.944  -0.281  0.00  0.00    +0.092 C 
ATOM      2  C   UNL     1       8.093   1.244   0.915  0.00  0.00    +0.067 A 
ATOM      3  C   UNL     1       9.214   2.027   0.837  0.00  0.00    +0.126 A 
ATOM      4  N   UNL     1       9.748   2.104   2.071  0.00  0.00    -0.260 N 
ATOM      5  H   UNL     1      10.573   2.610   2.326  0.00  0.00    +0.190 HD
ATOM      6  N   UNL     1       8.940   1.348   2.935  0.00  0.00    -0.134 NA
ATOM      7  C   UNL     1       7.950   0.835   2.238  0.00  0.00    +0.237 A 
ATOM      8  N   UNL     1       9.625   2.586  -0.367  0.00  0.00    -0.303 N 
ATOM      9  C   UNL     1       9.075   2.112  -1.532  0.00  0.00    +0.017 C 
ATOM     10  C   UNL     1       7.971   1.335  -1.546  0.00  0.00    +0.024 C 
ATOM     11  C   UNL     1       7.448   0.846  -2.756  0.00  0.00    +0.162 C 
ATOM     12  O   UNL     1       6.450   0.153  -2.735  0.00  0.00    -0.292 OA
ATOM     13  C   UNL     1       8.096   1.160  -4.076  0.00  0.00    +0.088 C 
ATOM     14  C   UNL     1       9.595   1.383  -3.852  0.00  0.00    +0.039 C 
ATOM     15  C   UNL     1       9.766   2.498  -2.819  0.00  0.00    +0.060 C 
ATOM     16  H   UNL     1      10.286   3.295  -0.384  0.00  0.00    +0.153 HD
ENDROOT
BRANCH   1  21
ATOM     17  C   UNL     1       3.557   1.777  -0.057  0.00  0.00    +0.129 A 
ATOM     18  C   UNL     1       3.593   3.164  -0.012  0.00  0.00    +0.046 A 
ATOM     19  C   UNL     1       4.805   3.824  -0.054  0.00  0.00    +0.004 A 
ATOM     20  C   UNL     1       5.983   3.105  -0.141  0.00  0.00    +0.005 A 
ATOM     21  C   UNL     1       5.950   1.724  -0.186  0.00  0.00    -0.032 A 
ATOM     22  C   UNL     1       4.741   1.058  -0.138  0.00  0.00    +0.050 A 
BRANCH  17  23
ATOM     23  O   UNL     1       2.366   1.125  -0.015  0.00  0.00    -0.456 OA
BRANCH  23  27
ATOM     24  C   UNL     1       0.472   0.321  -3.591  0.00  0.00    +0.000 A 
ATOM     25  C   UNL     1      -0.111  -0.067  -2.398  0.00  0.00    +0.004 A 
ATOM     26  C   UNL     1       0.518   0.206  -1.199  0.00  0.00    +0.046 A 
ATOM     27  C   UNL     1       1.742   0.860  -1.193  0.00  0.00    +0.128 A 
ATOM     28  C   UNL     1       2.328   1.243  -2.391  0.00  0.00    +0.046 A 
ATOM     29  C   UNL     1       1.692   0.973  -3.587  0.00  0.00    +0.004 A 
ENDBRANCH  23  27
ENDBRANCH  17  23
ENDBRANCH   1  21
BRANCH  14  30
ATOM     30  C   UNL     1      10.248   1.786  -5.148  0.00  0.00    -0.006 A 
ATOM     31  C   UNL     1      11.261   1.183  -5.818  0.00  0.00    +0.011 A 
ATOM     32  C   UNL     1      11.701   1.735  -7.006  0.00  0.00    +0.008 A 
ATOM     33  C   UNL     1      11.115   2.869  -7.461  0.00  0.00    +0.045 A 
ATOM     34  S   UNL     1       9.895   3.187  -6.197  0.00  0.00    -0.101 S 
ENDBRANCH  14  30
BRANCH   7  35
ATOM     35  O   UNL     1       6.959   0.042   2.725  0.00  0.00    -0.491 OA
ATOM     36  H   UNL     1       7.095  -0.097   3.706  0.00  0.00    +0.294 HD
ENDBRANCH   7  35
TORSDOF 5
