REMARK  Name = ZINC35664545
REMARK  11 active torsions:
REMARK  status: ('A' for Active; 'I' for Inactive)
REMARK    1  A    between atoms: C_1  and  C_2
REMARK    2  A    between atoms: C_2  and  N_3
REMARK    3  A    between atoms: C_4  and  C_24
REMARK    4  A    between atoms: C_5  and  C_19
REMARK    5  A    between atoms: C_6  and  C_11
REMARK    6  A    between atoms: C_19  and  O_21
REMARK    7  A    between atoms: O_21  and  C_22
REMARK    8  A    between atoms: C_22  and  C_23
REMARK    9  A    between atoms: C_24  and  N_25
REMARK   10  A    between atoms: C_29  and  C_32
REMARK   11  A    between atoms: C_33  and  C_35
REMARK                            x       y       z     vdW  Elec       q    Type
REMARK                         _______ _______ _______ _____ _____    ______ ____
ROOT
ATOM      1  N   UNL     1       0.881  -0.762  -1.346  0.00  0.00    -0.258 N 
ATOM      2  C   UNL     1       0.250  -0.808  -2.557  0.00  0.00    +0.041 C 
ATOM      3  C   UNL     1       0.919  -1.151  -3.678  0.00  0.00    +0.080 C 
ATOM      4  C   UNL     1       2.392  -1.483  -3.548  0.00  0.00    +0.145 C 
ATOM      5  N   UNL     1       2.976  -1.403  -2.199  0.00  0.00    -0.288 N 
ATOM      6  C   UNL     1       2.179  -1.040  -1.175  0.00  0.00    +0.307 C 
ATOM      7  O   UNL     1       2.653  -0.968  -0.058  0.00  0.00    -0.252 OA
ATOM      8  H   UNL     1       3.914  -1.604  -2.051  0.00  0.00    +0.151 HD
ENDROOT
BRANCH   4   9
ATOM      9  C   UNL     1       2.599  -2.885  -4.061  0.00  0.00    -0.003 A 
ATOM     10  C   UNL     1       2.536  -3.956  -3.190  0.00  0.00    +0.007 A 
ATOM     11  C   UNL     1       2.726  -5.242  -3.660  0.00  0.00    +0.002 A 
ATOM     12  C   UNL     1       2.980  -5.458  -5.002  0.00  0.00    +0.021 A 
ATOM     13  C   UNL     1       3.044  -4.387  -5.875  0.00  0.00    +0.060 A 
ATOM     14  C   UNL     1       2.847  -3.099  -5.405  0.00  0.00    +0.064 A 
ATOM     15 CL   UNL     1       2.919  -1.755  -6.500  0.00  0.00    -0.082 Cl
ATOM     16 CL   UNL     1       3.363  -4.658  -7.559  0.00  0.00    -0.082 Cl
ENDBRANCH   4   9
BRANCH   1  18
ATOM     17  C   UNL     1       0.147   1.137   0.009  0.00  0.00    +0.025 C 
ATOM     18  C   UNL     1       0.094  -0.381  -0.171  0.00  0.00    +0.111 C 
ENDBRANCH   1  18
BRANCH   3  19
ATOM     19  C   UNL     1       0.267  -1.200  -4.933  0.00  0.00    +0.339 C 
ATOM     20  O   UNL     1      -0.154  -2.259  -5.359  0.00  0.00    -0.245 OA
BRANCH  19  21
ATOM     21  O   UNL     1       0.111  -0.071  -5.656  0.00  0.00    -0.462 OA
BRANCH  21  22
ATOM     22  C   UNL     1      -0.557  -0.194  -6.914  0.00  0.00    +0.229 C 
ATOM     23  C   UNL     1      -0.639   1.179  -7.584  0.00  0.00    +0.048 C 
ENDBRANCH  21  22
ENDBRANCH  19  21
ENDBRANCH   3  19
BRANCH   2  24
ATOM     24  C   UNL     1      -1.216  -0.470  -2.642  0.00  0.00    +0.136 C 
BRANCH  24  25
ATOM     25  N   UNL     1      -1.995  -1.484  -1.919  0.00  0.00    -0.294 NA
ATOM     26  C   UNL     1      -1.892  -2.794  -2.577  0.00  0.00    +0.104 C 
ATOM     27  C   UNL     1      -2.564  -3.856  -1.700  0.00  0.00    +0.123 C 
ATOM     28  N   UNL     1      -3.935  -3.417  -1.401  0.00  0.00    -0.296 N 
ATOM     29  C   UNL     1      -4.130  -2.060  -0.867  0.00  0.00    +0.087 C 
ATOM     30  C   UNL     1      -3.397  -1.069  -1.776  0.00  0.00    +0.107 C 
ATOM     31  C   UNL     1      -5.624  -1.729  -0.838  0.00  0.00    +0.029 C 
ATOM     32  C   UNL     1      -4.985  -4.235  -1.611  0.00  0.00    +0.219 C 
ATOM     33  O   UNL     1      -6.098  -3.894  -1.269  0.00  0.00    -0.275 OA
BRANCH  32  34
ATOM     34  C   UNL     1      -4.777  -5.573  -2.272  0.00  0.00    +0.075 C 
ATOM     35  C   UNL     1      -5.351  -5.764  -3.678  0.00  0.00    +0.013 C 
ATOM     36  C   UNL     1      -6.009  -6.456  -2.482  0.00  0.00    +0.013 C 
ENDBRANCH  32  34
ENDBRANCH  24  25
ENDBRANCH   2  24
TORSDOF 8
