REMARK  Name = ZINC58724767
REMARK  12 active torsions:
REMARK  status: ('A' for Active; 'I' for Inactive)
REMARK    1  A    between atoms: C_1  and  C_2
REMARK    2  A    between atoms: C_2  and  C_3
REMARK    3  A    between atoms: N_5  and  C_6
REMARK    4  A    between atoms: C_6  and  C_7
REMARK    5  A    between atoms: N_12  and  S_15
REMARK    6  A    between atoms: S_15  and  C_18
REMARK    7  A    between atoms: C_19  and  C_29
REMARK    8  A    between atoms: C_21  and  C_25
REMARK    9  A    between atoms: C_23  and  C_24
REMARK   10  A    between atoms: C_25  and  C_26
REMARK   11  A    between atoms: C_25  and  C_27
REMARK   12  A    between atoms: C_25  and  C_28
REMARK                            x       y       z     vdW  Elec       q    Type
REMARK                         _______ _______ _______ _____ _____    ______ ____
ROOT
ATOM      1  C   UNL     1       2.205  -2.536   3.485  0.00  0.00    +0.233 C 
ATOM      2  O   UNL     1       1.431  -2.672   2.562  0.00  0.00    -0.274 OA
ATOM      3  N   UNL     1       2.600  -3.609   4.197  0.00  0.00    -0.298 N 
ATOM      4  C   UNL     1       3.534  -3.458   5.322  0.00  0.00    +0.125 C 
ATOM      5  C   UNL     1       2.894  -4.069   6.575  0.00  0.00    +0.128 C 
ATOM      6  N   UNL     1       2.399  -5.412   6.242  0.00  0.00    -0.174 NA
ATOM      7  C   UNL     1       1.465  -5.563   5.117  0.00  0.00    +0.128 C 
ATOM      8  C   UNL     1       2.100  -4.951   3.868  0.00  0.00    +0.125 C 
ENDROOT
BRANCH   6   9
ATOM      9  S   UNL     1       2.884  -6.731   7.118  0.00  0.00    +0.061 S 
ATOM     10  O   UNL     1       2.724  -7.861   6.272  0.00  0.00    -0.153 OA
ATOM     11  O   UNL     1       4.132  -6.391   7.707  0.00  0.00    -0.153 OA
BRANCH   9  12
ATOM     12  C   UNL     1       1.738  -6.927   8.442  0.00  0.00    +0.111 A 
ATOM     13  C   UNL     1       0.718  -7.854   8.342  0.00  0.00    -0.024 A 
ATOM     14  C   UNL     1      -0.181  -8.008   9.381  0.00  0.00    +0.009 A 
ATOM     15  C   UNL     1      -0.059  -7.235  10.520  0.00  0.00    -0.041 A 
ATOM     16  C   UNL     1       0.962  -6.308  10.621  0.00  0.00    +0.009 A 
ATOM     17  C   UNL     1       1.863  -6.157   9.584  0.00  0.00    -0.024 A 
ATOM     18  C   UNL     1       2.979  -5.151   9.696  0.00  0.00    +0.046 C 
ATOM     19  C   UNL     1       0.585  -8.697   7.100  0.00  0.00    +0.046 C 
BRANCH  15  20
ATOM     20  C   UNL     1      -1.039  -7.402  11.653  0.00  0.00    -0.013 C 
ATOM     21  C   UNL     1      -0.978  -8.839  12.173  0.00  0.00    +0.015 C 
ATOM     22  C   UNL     1      -0.682  -6.435  12.783  0.00  0.00    +0.015 C 
ATOM     23  C   UNL     1      -2.453  -7.101  11.151  0.00  0.00    +0.015 C 
ENDBRANCH  15  20
ENDBRANCH   9  12
ENDBRANCH   6   9
BRANCH   1  24
ATOM     24  C   UNL     1       2.726  -1.165   3.834  0.00  0.00    +0.200 C 
BRANCH  24  27
ATOM     25  C   UNL     1       2.478   1.126   3.043  0.00  0.00    +0.213 C 
ATOM     26  O   UNL     1       3.246   1.478   3.913  0.00  0.00    -0.276 OA
ATOM     27  N   UNL     1       2.152  -0.176   2.919  0.00  0.00    -0.307 N 
ATOM     28  H   UNL     1       1.538  -0.458   2.224  0.00  0.00    +0.149 HD
BRANCH  25  30
ATOM     29  C   UNL     1       2.416   3.534   2.457  0.00  0.00    +0.013 C 
ATOM     30  C   UNL     1       1.887   2.143   2.102  0.00  0.00    +0.092 C 
ENDBRANCH  25  30
ENDBRANCH  24  27
ENDBRANCH   1  24
TORSDOF 6
