REMARK  Name = ZINC39016633
REMARK  8 active torsions:
REMARK  status: ('A' for Active; 'I' for Inactive)
REMARK    1  A    between atoms: C_1  and  C_2
REMARK    2  A    between atoms: C_4  and  C_30
REMARK    3  A    between atoms: C_5  and  N_9
REMARK    4  A    between atoms: C_10  and  C_12
REMARK    5  A    between atoms: C_12  and  S_13
REMARK    6  A    between atoms: S_13  and  C_14
REMARK    7  A    between atoms: C_17  and  C_21
REMARK    8  A    between atoms: N_19  and  N_20
REMARK                            x       y       z     vdW  Elec       q    Type
REMARK                         _______ _______ _______ _____ _____    ______ ____
ROOT
ATOM      1  C   UNL     1       1.268  -8.702   2.417  0.00  0.00    +0.189 C 
ATOM      2  N   UNL     1       0.979  -9.312   1.318  0.00  0.00    -0.161 NA
ATOM      3  N   UNL     1       1.148 -10.697   1.440  0.00  0.00    -0.243 N 
ATOM      4  C   UNL     1       1.605 -10.934   2.821  0.00  0.00    +0.222 C 
ATOM      5  N   UNL     1       1.669  -9.585   3.408  0.00  0.00    -0.223 N 
ATOM      6  H   UNL     1       0.994 -11.366   0.755  0.00  0.00    +0.170 HD
ENDROOT
BRANCH   4   7
ATOM      7  C   UNL     1       0.603 -11.810   3.575  0.00  0.00    +0.197 C 
ATOM      8  C   UNL     1       0.514 -13.186   2.948  0.00  0.00    -0.017 C 
ATOM      9  C   UNL     1       0.911 -14.021   3.906  0.00  0.00    +0.065 C 
ATOM     10  C   UNL     1       0.867 -15.450   3.394  0.00  0.00    +0.057 C 
ATOM     11  C   UNL     1      -0.021 -15.397   2.131  0.00  0.00    +0.011 C 
ATOM     12  C   UNL     1       0.154 -13.927   1.687  0.00  0.00    +0.035 C 
ATOM     13  N   UNL     1       1.226 -13.322   5.030  0.00  0.00    -0.158 NA
ATOM     14  N   UNL     1       1.084 -12.098   4.937  0.00  0.00    -0.176 NA
ENDBRANCH   4   7
BRANCH   5  15
ATOM     15  N   UNL     1       2.047  -9.266   4.682  0.00  0.00    -0.250 NA
ATOM     16  H   UNL     1       2.002  -8.270   4.834  0.00  0.00    +0.141 HD
ATOM     17  H   UNL     1       1.488  -9.762   5.360  0.00  0.00    +0.141 HD
ENDBRANCH   5  15
BRANCH   1  18
ATOM     18  S   UNL     1       1.171  -6.955   2.631  0.00  0.00    -0.078 S 
BRANCH  18  19
ATOM     19  C   UNL     1       0.598  -6.347   1.021  0.00  0.00    +0.173 C 
BRANCH  19  21
ATOM     20  N   UNL     1       0.057  -4.171  -0.023  0.00  0.00    -0.283 N 
ATOM     21  C   UNL     1       0.471  -4.846   1.067  0.00  0.00    +0.228 C 
ATOM     22  O   UNL     1       0.741  -4.246   2.086  0.00  0.00    -0.275 OA
ATOM     23  H   UNL     1      -0.228  -4.655  -0.814  0.00  0.00    +0.155 HD
BRANCH  20  28
ATOM     24  C   UNL     1      -0.016   1.503   0.014  0.00  0.00    +0.044 C 
ATOM     25  C   UNL     1       0.004  -0.004   0.004  0.00  0.00    -0.049 A 
ATOM     26  C   UNL     1      -1.135  -0.711   0.340  0.00  0.00    +0.008 A 
ATOM     27  C   UNL     1      -1.121  -2.092   0.333  0.00  0.00    -0.028 A 
ATOM     28  C   UNL     1       0.039  -2.771  -0.015  0.00  0.00    +0.055 A 
ATOM     29  C   UNL     1       1.183  -2.058  -0.353  0.00  0.00    +0.063 A 
ATOM     30  C   UNL     1       1.160  -0.676  -0.348  0.00  0.00    +0.025 A 
ATOM     31 CL   UNL     1       2.636  -2.902  -0.788  0.00  0.00    -0.082 Cl
ATOM     32  C   UNL     1      -2.363  -2.862   0.701  0.00  0.00    +0.046 C 
ENDBRANCH  20  28
ENDBRANCH  19  21
ENDBRANCH  18  19
ENDBRANCH   1  18
TORSDOF 6
