REMARK  Name = ZINC10010975
REMARK  10 active torsions:
REMARK  status: ('A' for Active; 'I' for Inactive)
REMARK    1  A    between atoms: C_1  and  C_2
REMARK    2  A    between atoms: C_5  and  O_9
REMARK    3  A    between atoms: C_7  and  C_8
REMARK    4  A    between atoms: O_9  and  C_10
REMARK    5  A    between atoms: C_10  and  C_12
REMARK    6  A    between atoms: C_10  and  C_13
REMARK    7  A    between atoms: N_15  and  N_16
REMARK    8  A    between atoms: C_17  and  C_18
REMARK    9  A    between atoms: C_17  and  C_19
REMARK   10  A    between atoms: C_23  and  N_25
REMARK                            x       y       z     vdW  Elec       q    Type
REMARK                         _______ _______ _______ _____ _____    ______ ____
ROOT
ATOM      1  C   UNL     1      -2.533   7.936  -0.085  0.00  0.00    +0.273 C 
ATOM      2  O   UNL     1      -3.599   7.394   0.119  0.00  0.00    -0.270 OA
ATOM      3  N   UNL     1      -1.423   7.192  -0.268  0.00  0.00    -0.204 N 
ATOM      4  H   UNL     1      -0.571   7.625  -0.432  0.00  0.00    +0.177 HD
ENDROOT
BRANCH   3   5
ATOM      5  N   UNL     1      -1.502   5.794  -0.223  0.00  0.00    -0.184 NA
ATOM      6  C   UNL     1      -0.434   5.079  -0.399  0.00  0.00    +0.063 C 
ATOM      7  C   UNL     1       0.891   5.751  -0.652  0.00  0.00    +0.068 C 
BRANCH   6   8
ATOM      8  C   UNL     1      -0.516   3.607  -0.351  0.00  0.00    -0.001 A 
ATOM      9  C   UNL     1       0.632   2.833  -0.540  0.00  0.00    +0.010 A 
ATOM     10  C   UNL     1       0.552   1.457  -0.495  0.00  0.00    +0.002 A 
ATOM     11  C   UNL     1      -0.662   0.837  -0.263  0.00  0.00    +0.023 A 
ATOM     12  C   UNL     1      -1.812   1.597  -0.079  0.00  0.00    +0.025 A 
ATOM     13  C   UNL     1      -1.742   2.981  -0.117  0.00  0.00    +0.032 A 
BRANCH  12  14
ATOM     14  N   UNL     1      -3.037   0.966   0.150  0.00  0.00    -0.358 N 
ATOM     15  H   UNL     1      -3.085  -0.003   0.180  0.00  0.00    +0.142 HD
ATOM     16  H   UNL     1      -3.839   1.496   0.279  0.00  0.00    +0.142 HD
ENDBRANCH  12  14
ENDBRANCH   6   8
ENDBRANCH   3   5
BRANCH   1  17
ATOM     17  C   UNL     1      -2.448   9.439  -0.135  0.00  0.00    +0.257 C 
ATOM     18  C   UNL     1      -1.490   9.932   0.952  0.00  0.00    +0.062 C 
BRANCH  17  19
ATOM     19  O   UNL     1      -3.746   9.997   0.086  0.00  0.00    -0.480 OA
BRANCH  19  24
ATOM     20  C   UNL     1      -4.710  15.138  -2.002  0.00  0.00    +0.044 C 
ATOM     21  C   UNL     1      -4.452  13.762  -1.443  0.00  0.00    -0.047 A 
ATOM     22  C   UNL     1      -3.186  13.212  -1.521  0.00  0.00    +0.007 A 
ATOM     23  C   UNL     1      -2.947  11.951  -1.010  0.00  0.00    +0.046 A 
ATOM     24  C   UNL     1      -3.978  11.237  -0.417  0.00  0.00    +0.122 A 
ATOM     25  C   UNL     1      -5.249  11.789  -0.345  0.00  0.00    +0.049 A 
ATOM     26  C   UNL     1      -5.481  13.053  -0.853  0.00  0.00    -0.044 A 
ATOM     27  C   UNL     1      -6.860  13.655  -0.770  0.00  0.00    +0.044 C 
ENDBRANCH  19  24
ENDBRANCH  17  19
ENDBRANCH   1  17
TORSDOF 6
