REMARK  Name = ZINC06781507
REMARK  13 active torsions:
REMARK  status: ('A' for Active; 'I' for Inactive)
REMARK    1  A    between atoms: C_1  and  C_2
REMARK    2  A    between atoms: C_2  and  C_3
REMARK    3  A    between atoms: C_2  and  C_4
REMARK    4  A    between atoms: C_2  and  C_5
REMARK    5  A    between atoms: C_7  and  N_16
REMARK    6  A    between atoms: C_9  and  C_12
REMARK    7  A    between atoms: C_10  and  O_11
REMARK    8  A    between atoms: C_12  and  C_13
REMARK    9  A    between atoms: C_12  and  C_14
REMARK   10  A    between atoms: C_12  and  C_15
REMARK   11  A    between atoms: N_16  and  S_17
REMARK   12  A    between atoms: S_17  and  C_20
REMARK   13  A    between atoms: C_25  and  N_26
REMARK                            x       y       z     vdW  Elec       q    Type
REMARK                         _______ _______ _______ _____ _____    ______ ____
ROOT
ATOM      1  C   UNL     1      -0.285  -0.120  -0.149  0.00  0.00    +0.001 A 
ATOM      2  C   UNL     1      -0.404   1.251  -0.029  0.00  0.00    +0.032 A 
ATOM      3  C   UNL     1       0.680   2.070  -0.314  0.00  0.00    +0.049 A 
ATOM      4  C   UNL     1       1.884   1.509  -0.720  0.00  0.00    +0.032 A 
ATOM      5  C   UNL     1       2.002   0.138  -0.839  0.00  0.00    +0.001 A 
ATOM      6  C   UNL     1       0.918  -0.678  -0.555  0.00  0.00    +0.124 A 
ENDROOT
BRANCH   1   8
ATOM      7  C   UNL     1      -2.655  -0.147   0.581  0.00  0.00    +0.015 C 
ATOM      8  C   UNL     1      -1.462  -1.008   0.160  0.00  0.00    -0.009 C 
ATOM      9  C   UNL     1      -1.831  -1.817  -1.085  0.00  0.00    +0.015 C 
ATOM     10  C   UNL     1      -1.096  -1.963   1.299  0.00  0.00    +0.015 C 
ENDBRANCH   1   8
BRANCH   5  11
ATOM     11  C   UNL     1       3.309  -0.470  -1.279  0.00  0.00    -0.009 C 
ATOM     12  C   UNL     1       4.344   0.638  -1.482  0.00  0.00    +0.015 C 
ATOM     13  C   UNL     1       3.805  -1.442  -0.207  0.00  0.00    +0.015 C 
ATOM     14  C   UNL     1       3.103  -1.223  -2.595  0.00  0.00    +0.015 C 
ENDBRANCH   5  11
BRANCH   6  15
ATOM     15  O   UNL     1       1.034  -2.028  -0.673  0.00  0.00    -0.506 OA
ATOM     16  H   UNL     1       0.808  -2.367  -1.550  0.00  0.00    +0.292 HD
ENDBRANCH   6  15
BRANCH   3  17
ATOM     17  N   UNL     1       0.560   3.459  -0.193  0.00  0.00    -0.216 N 
ATOM     18  H   UNL     1       0.065   3.962  -0.857  0.00  0.00    +0.174 HD
BRANCH  17  19
ATOM     19  S   UNL     1       1.264   4.242   1.085  0.00  0.00    +0.074 S 
ATOM     20  O   UNL     1       2.615   3.806   1.135  0.00  0.00    -0.150 OA
ATOM     21  O   UNL     1       0.910   5.613   0.966  0.00  0.00    -0.150 OA
BRANCH  19  22
ATOM     22  C   UNL     1       0.488   3.647   2.552  0.00  0.00    +0.129 A 
ATOM     23  C   UNL     1       1.222   2.940   3.484  0.00  0.00    +0.031 A 
ATOM     24  C   UNL     1       0.616   2.477   4.637  0.00  0.00    +0.002 A 
ATOM     25  C   UNL     1      -0.730   2.711   4.856  0.00  0.00    +0.002 A 
ATOM     26  C   UNL     1      -1.470   3.413   3.926  0.00  0.00    +0.025 A 
ATOM     27  C   UNL     1      -0.863   3.884   2.769  0.00  0.00    +0.052 A 
BRANCH  27  28
ATOM     28  N   UNL     1      -1.609   4.594   1.825  0.00  0.00    -0.356 N 
ATOM     29  H   UNL     1      -1.211   4.837   0.975  0.00  0.00    +0.142 HD
ATOM     30  H   UNL     1      -2.526   4.844   2.021  0.00  0.00    +0.142 HD
ENDBRANCH  27  28
ENDBRANCH  19  22
ENDBRANCH  17  19
ENDBRANCH   3  17
TORSDOF 7
