REMARK  Name = ZINC67485954
REMARK  7 active torsions:
REMARK  status: ('A' for Active; 'I' for Inactive)
REMARK    1  A    between atoms: C_1  and  N_2
REMARK    2  A    between atoms: N_5  and  C_13
REMARK    3  A    between atoms: C_13  and  C_14
REMARK    4  A    between atoms: C_14  and  C_16
REMARK    5  A    between atoms: C_14  and  O_29
REMARK    6  A    between atoms: C_16  and  N_17
REMARK    7  A    between atoms: C_18  and  C_23
REMARK                            x       y       z     vdW  Elec       q    Type
REMARK                         _______ _______ _______ _____ _____    ______ ____
ROOT
ATOM      1  C   UNL     1      -0.935  -3.957   4.223  0.00  0.00    +0.118 C 
ENDROOT
BRANCH   1   2
ATOM      2  O   UNL     1      -0.566  -4.598   3.000  0.00  0.00    -0.392 OA
ATOM      3  H   UNL     1      -1.224  -5.226   2.672  0.00  0.00    +0.210 HD
ENDBRANCH   1   2
BRANCH   1   4
ATOM      4  C   UNL     1      -2.179  -3.096   3.993  0.00  0.00    -0.045 C 
BRANCH   4   9
ATOM      5  C   UNL     1      -2.491   1.914   1.953  0.00  0.00    +0.129 C 
ATOM      6  N   UNL     1      -2.060   0.562   1.590  0.00  0.00    -0.335 N 
ATOM      7  C   UNL     1      -3.036  -0.525   1.396  0.00  0.00    +0.086 C 
ATOM      8  C   UNL     1      -3.122  -1.373   2.642  0.00  0.00    -0.059 C 
ATOM      9  N   UNL     1      -1.891  -2.085   2.967  0.00  0.00    +0.385 N 
ATOM     10  C   UNL     1      -0.859  -1.176   3.468  0.00  0.00    -0.041 C 
ATOM     11  C   UNL     1      -0.079  -0.613   2.292  0.00  0.00    -0.043 A 
ATOM     12  C   UNL     1      -0.708   0.257   1.409  0.00  0.00    +0.031 A 
ATOM     13  C   UNL     1       0.003   0.811   0.353  0.00  0.00    +0.023 A 
ATOM     14  C   UNL     1       1.331   0.474   0.170  0.00  0.00    +0.002 A 
ATOM     15  C   UNL     1       1.950  -0.411   1.033  0.00  0.00    +0.000 A 
ATOM     16  C   UNL     1       1.242  -0.958   2.107  0.00  0.00    +0.003 A 
ATOM     17  H   UNL     1      -1.548  -2.547   2.138  0.00  0.00    -0.081 HD
ENDBRANCH   4   9
ENDBRANCH   1   4
BRANCH   1  18
ATOM     18  C   UNL     1      -1.239  -5.018   5.283  0.00  0.00    +0.159 C 
BRANCH  18  19
ATOM     19  N   UNL     1      -0.031  -5.805   5.547  0.00  0.00    -0.255 N 
ATOM     20  C   UNL     1       0.355  -6.941   4.864  0.00  0.00    +0.186 A 
ATOM     21  N   UNL     1       1.475  -7.367   5.370  0.00  0.00    -0.054 NA
ATOM     22  O   UNL     1       1.840  -6.487   6.419  0.00  0.00    -0.295 OA
ATOM     23  C   UNL     1       0.891  -5.538   6.492  0.00  0.00    +0.443 A 
ATOM     24  O   UNL     1       0.868  -4.606   7.273  0.00  0.00    -0.221 OA
BRANCH  20  25
ATOM     25  C   UNL     1      -0.381  -7.568   3.743  0.00  0.00    +0.021 A 
ATOM     26  C   UNL     1       0.315  -8.096   2.656  0.00  0.00    +0.011 A 
ATOM     27  C   UNL     1      -0.378  -8.680   1.615  0.00  0.00    +0.001 A 
ATOM     28  C   UNL     1      -1.759  -8.742   1.648  0.00  0.00    +0.000 A 
ATOM     29  C   UNL     1      -2.455  -8.220   2.724  0.00  0.00    +0.001 A 
ATOM     30  C   UNL     1      -1.774  -7.638   3.773  0.00  0.00    +0.011 A 
ENDBRANCH  20  25
ENDBRANCH  18  19
ENDBRANCH   1  18
TORSDOF 6
