REMARK  Name = ZINC23976419
REMARK  7 active torsions:
REMARK  status: ('A' for Active; 'I' for Inactive)
REMARK    1  A    between atoms: C_10  and  C_11
REMARK    2  A    between atoms: C_11  and  C_13
REMARK    3  A    between atoms: C_11  and  N_28
REMARK    4  A    between atoms: C_13  and  N_14
REMARK    5  A    between atoms: C_15  and  C_17
REMARK    6  A    between atoms: N_19  and  C_20
REMARK    7  A    between atoms: C_23  and  N_25
REMARK                            x       y       z     vdW  Elec       q    Type
REMARK                         _______ _______ _______ _____ _____    ______ ____
ROOT
ATOM      1  C   UNL     1     -10.267   5.594   0.124  0.00  0.00    -0.020 C 
ENDROOT
BRANCH   1  11
ATOM      2  C   UNL     1     -12.831   8.406  -3.299  0.00  0.00    +0.001 A 
ATOM      3  C   UNL     1     -11.817   7.453  -3.375  0.00  0.00    +0.001 A 
ATOM      4  C   UNL     1     -11.325   6.862  -2.253  0.00  0.00    +0.009 A 
ATOM      5  C   UNL     1     -11.845   7.215  -0.996  0.00  0.00    -0.016 A 
ATOM      6  C   UNL     1     -12.880   8.181  -0.918  0.00  0.00    -0.018 A 
ATOM      7  C   UNL     1     -13.366   8.766  -2.100  0.00  0.00    +0.008 A 
ATOM      8  C   UNL     1     -13.395   8.539   0.339  0.00  0.00    +0.008 A 
ATOM      9  C   UNL     1     -12.900   7.951   1.462  0.00  0.00    +0.001 A 
ATOM     10  C   UNL     1     -11.886   6.998   1.386  0.00  0.00    +0.003 A 
ATOM     11  C   UNL     1     -11.363   6.626   0.185  0.00  0.00    -0.052 A 
ENDBRANCH   1  11
BRANCH   1  12
ATOM     12  N   UNL     1     -10.340   4.731   1.310  0.00  0.00    +0.385 N 
ATOM     13  C   UNL     1     -11.629   3.994   1.354  0.00  0.00    -0.078 C 
ATOM     14  C   UNL     1     -11.327   2.805   2.301  0.00  0.00    -0.020 C 
ATOM     15  C   UNL     1      -9.873   2.430   1.931  0.00  0.00    -0.020 C 
ATOM     16  C   UNL     1      -9.285   3.695   1.279  0.00  0.00    -0.078 C 
ATOM     17  H   UNL     1     -10.223   5.400   2.175  0.00  0.00    -0.081 HD
ENDBRANCH   1  12
BRANCH   1  18
ATOM     18  C   UNL     1      -8.907   6.294   0.086  0.00  0.00    +0.094 C 
BRANCH  18  19
ATOM     19  N   UNL     1      -8.687   7.000   1.351  0.00  0.00    -0.309 N 
ATOM     20  C   UNL     1      -7.509   7.612   1.585  0.00  0.00    +0.304 C 
ATOM     21  O   UNL     1      -6.631   7.579   0.747  0.00  0.00    -0.265 OA
ATOM     22  H   UNL     1      -9.482   7.030   2.110  0.00  0.00    +0.149 HD
BRANCH  20  23
ATOM     23  C   UNL     1      -7.284   8.331   2.874  0.00  0.00    +0.334 C 
ATOM     24  O   UNL     1      -8.162   8.365   3.711  0.00  0.00    -0.260 OA
ATOM     25  N   UNL     1      -6.106   8.944   3.107  0.00  0.00    -0.179 NA
BRANCH  25  26
ATOM     26  C   UNL     1      -5.897   9.612   4.305  0.00  0.00    +0.198 A 
ATOM     27  N   UNL     1      -6.718   9.758   5.327  0.00  0.00    -0.227 NA
ATOM     28  C   UNL     1      -6.359  10.430   6.402  0.00  0.00    +0.153 A 
ATOM     29  C   UNL     1      -5.117  10.974   6.438  0.00  0.00    +0.185 A 
ATOM     30  S   UNL     1      -4.489  10.476   4.841  0.00  0.00    -0.024 S 
BRANCH  29  31
ATOM     31  N   UNL     1      -4.463  11.767   7.504  0.00  0.00    +0.065 N 
ATOM     32  O   UNL     1      -5.063  12.012   8.536  0.00  0.00    -0.126 OA
ATOM     33  O   UNL     1      -3.324  12.170   7.352  0.00  0.00    -0.126 OA
ENDBRANCH  29  31
ENDBRANCH  25  26
ENDBRANCH  20  23
ENDBRANCH  18  19
ENDBRANCH   1  18
TORSDOF 7
