REMARK  Name = ZINC13617327
REMARK  3 active torsions:
REMARK  status: ('A' for Active; 'I' for Inactive)
REMARK    1  A    between atoms: C_3  and  O_33
REMARK    2  A    between atoms: C_6  and  C_7
REMARK    3  A    between atoms: N_23  and  C_26
REMARK                            x       y       z     vdW  Elec       q    Type
REMARK                         _______ _______ _______ _____ _____    ______ ____
ROOT
ATOM      1  C   UNL     1      -1.293  -0.774   0.011  0.00  0.00    +0.072 C 
ATOM      2  C   UNL     1      -1.378  -1.546  -1.248  0.00  0.00    +0.033 A 
ATOM      3  C   UNL     1      -1.829  -2.797  -1.457  0.00  0.00    +0.088 A 
ATOM      4  N   UNL     1      -1.820  -3.216  -2.765  0.00  0.00    -0.311 N 
ATOM      5  H   UNL     1      -2.157  -4.096  -2.996  0.00  0.00    +0.170 HD
ATOM      6  C   UNL     1      -1.343  -2.402  -3.726  0.00  0.00    +0.289 A 
ATOM      7  O   UNL     1      -1.254  -2.616  -4.922  0.00  0.00    -0.260 OA
ATOM      8  S   UNL     1      -0.899  -1.020  -2.877  0.00  0.00    -0.030 S 
ATOM      9  S   UNL     1      -2.352  -3.801  -0.089  0.00  0.00    -0.093 S 
ATOM     10  C   UNL     1      -2.449  -2.660   1.283  0.00  0.00    +0.152 C 
ATOM     11  C   UNL     1      -1.355  -1.585   1.302  0.00  0.00    +0.110 C 
ATOM     12  C   UNL     1      -2.044  -0.620   2.295  0.00  0.00    +0.232 C 
ATOM     13  O   UNL     1      -1.496   0.125   3.078  0.00  0.00    -0.274 OA
ATOM     14  N   UNL     1      -3.373  -0.769   2.119  0.00  0.00    -0.209 N 
ATOM     15  C   UNL     1      -3.707  -1.853   1.389  0.00  0.00    +0.240 C 
ATOM     16  O   UNL     1      -4.795  -2.122   0.927  0.00  0.00    -0.274 OA
ENDROOT
BRANCH  14  17
ATOM     17  C   UNL     1      -4.319   0.129   2.635  0.00  0.00    +0.044 A 
ATOM     18  C   UNL     1      -3.903   1.236   3.361  0.00  0.00    +0.025 A 
ATOM     19  C   UNL     1      -4.836   2.119   3.868  0.00  0.00    +0.017 A 
ATOM     20  C   UNL     1      -6.185   1.900   3.653  0.00  0.00    +0.018 A 
ATOM     21  C   UNL     1      -6.603   0.797   2.930  0.00  0.00    +0.017 A 
ATOM     22  C   UNL     1      -5.673  -0.086   2.416  0.00  0.00    +0.025 A 
ATOM     23 BR   UNL     1      -7.461   3.110   4.349  0.00  0.00    -0.050 Br
ENDBRANCH  14  17
BRANCH   1  29
ATOM     24  C   UNL     1      -0.017   1.378   0.010  0.00  0.00    +0.008 A 
ATOM     25  C   UNL     1       1.169   2.087   0.002  0.00  0.00    +0.045 A 
ATOM     26  C   UNL     1       2.380   1.409  -0.013  0.00  0.00    +0.117 A 
ATOM     27  C   UNL     1       2.396   0.022  -0.021  0.00  0.00    +0.045 A 
ATOM     28  C   UNL     1       1.207  -0.681  -0.013  0.00  0.00    +0.008 A 
ATOM     29  C   UNL     1       0.002  -0.004   0.002  0.00  0.00    -0.038 A 
BRANCH  26  30
ATOM     30  O   UNL     1       3.548   2.104  -0.021  0.00  0.00    -0.507 OA
ATOM     31  H   UNL     1       3.895   2.300   0.860  0.00  0.00    +0.292 HD
ENDBRANCH  26  30
ENDBRANCH   1  29
TORSDOF 3
