REMARK  Name = ZINC59280032
REMARK  10 active torsions:
REMARK  status: ('A' for Active; 'I' for Inactive)
REMARK    1  A    between atoms: C_1  and  C_2
REMARK    2  A    between atoms: C_2  and  C_3
REMARK    3  A    between atoms: C_2  and  C_4
REMARK    4  A    between atoms: C_2  and  C_5
REMARK    5  A    between atoms: C_5  and  C_7
REMARK    6  A    between atoms: C_5  and  N_12
REMARK    7  A    between atoms: C_13  and  C_15
REMARK    8  A    between atoms: C_15  and  C_16
REMARK    9  A    between atoms: C_16  and  N_17
REMARK   10  A    between atoms: N_20  and  C_21
REMARK                            x       y       z     vdW  Elec       q    Type
REMARK                         _______ _______ _______ _____ _____    ______ ____
ROOT
ATOM      1  C   UNL     1      -2.916  -1.159  -4.488  0.00  0.00    +0.115 C 
ENDROOT
BRANCH   1   2
ATOM      2  N   UNL     1      -3.624  -0.674  -5.675  0.00  0.00    -0.299 N 
ATOM      3  C   UNL     1      -4.676  -1.362  -6.160  0.00  0.00    +0.300 C 
ATOM      4  O   UNL     1      -5.037  -2.386  -5.612  0.00  0.00    -0.253 OA
ATOM      5  N   UNL     1      -5.328  -0.916  -7.252  0.00  0.00    -0.294 N 
ATOM      6  H   UNL     1      -3.336   0.143  -6.111  0.00  0.00    +0.150 HD
ATOM      7  H   UNL     1      -5.040  -0.099  -7.688  0.00  0.00    +0.151 HD
BRANCH   5   8
ATOM      8  C   UNL     1      -6.472  -1.664  -7.779  0.00  0.00    +0.037 C 
ATOM      9  C   UNL     1      -6.023  -3.075  -8.167  0.00  0.00    +0.029 C 
ATOM     10  C   UNL     1      -7.218  -3.856  -8.718  0.00  0.00    -0.008 C 
ATOM     11  C   UNL     1      -7.771  -3.139  -9.951  0.00  0.00    +0.007 C 
ATOM     12  C   UNL     1      -8.220  -1.729  -9.563  0.00  0.00    -0.008 C 
ATOM     13  C   UNL     1      -7.026  -0.948  -9.012  0.00  0.00    +0.029 C 
ATOM     14  C   UNL     1      -9.309  -1.817  -8.492  0.00  0.00    +0.007 C 
ATOM     15  C   UNL     1      -8.756  -2.534  -7.259  0.00  0.00    -0.008 C 
ATOM     16  C   UNL     1      -8.307  -3.944  -7.647  0.00  0.00    +0.007 C 
ATOM     17  C   UNL     1      -7.561  -1.752  -6.708  0.00  0.00    +0.029 C 
ENDBRANCH   5   8
ENDBRANCH   1   2
BRANCH   1  18
ATOM     18  C   UNL     1      -1.771  -0.201  -4.150  0.00  0.00    +0.114 C 
BRANCH  18  20
ATOM     19  N   UNL     1       0.010  -0.012  -2.444  0.00  0.00    -0.307 N 
ATOM     20  C   UNL     1      -1.042  -0.701  -2.929  0.00  0.00    +0.215 C 
ATOM     21  O   UNL     1      -1.403  -1.722  -2.383  0.00  0.00    -0.276 OA
ATOM     22  H   UNL     1       0.298   0.805  -2.880  0.00  0.00    +0.149 HD
BRANCH  19  23
ATOM     23  C   UNL     1       0.718  -0.497  -1.257  0.00  0.00    +0.115 C 
BRANCH  23  24
ATOM     24  C   UNL     1       2.132   0.024  -1.268  0.00  0.00    +0.010 A 
ATOM     25  C   UNL     1       3.279  -0.612  -0.927  0.00  0.00    +0.013 A 
ATOM     26  C   UNL     1       4.477   0.071  -1.016  0.00  0.00    +0.008 A 
ATOM     27  C   UNL     1       4.469   1.358  -1.442  0.00  0.00    +0.045 A 
ATOM     28  S   UNL     1       2.731   1.638  -1.739  0.00  0.00    -0.100 S 
ENDBRANCH  23  24
BRANCH  23  30
ATOM     29  C   UNL     1      -0.019   1.526   0.010  0.00  0.00    +0.013 C 
ATOM     30  C   UNL     1       0.002  -0.004   0.002  0.00  0.00    -0.015 C 
ATOM     31  C   UNL     1       0.742  -0.511   1.242  0.00  0.00    +0.013 C 
ATOM     32  C   UNL     1      -1.433  -0.534   0.013  0.00  0.00    +0.013 C 
ENDBRANCH  23  30
ENDBRANCH  19  23
ENDBRANCH  18  20
ENDBRANCH   1  18
TORSDOF 7
