REMARK  Name = ZINC45622247
REMARK  10 active torsions:
REMARK  status: ('A' for Active; 'I' for Inactive)
REMARK    1  A    between atoms: C_1  and  C_2
REMARK    2  A    between atoms: C_2  and  N_3
REMARK    3  A    between atoms: N_3  and  C_4
REMARK    4  A    between atoms: N_3  and  S_6
REMARK    5  A    between atoms: C_4  and  C_5
REMARK    6  A    between atoms: S_6  and  C_9
REMARK    7  A    between atoms: C_12  and  O_35
REMARK    8  A    between atoms: C_13  and  N_15
REMARK    9  A    between atoms: C_16  and  C_18
REMARK   10  A    between atoms: C_18  and  N_19
REMARK                            x       y       z     vdW  Elec       q    Type
REMARK                         _______ _______ _______ _____ _____    ______ ____
ROOT
ATOM      1  N   UNL     1       1.460   2.318  -6.228  0.00  0.00    -0.281 N 
ATOM      2  C   UNL     1       2.190   1.326  -6.776  0.00  0.00    +0.235 C 
ATOM      3  O   UNL     1       1.951   0.171  -6.495  0.00  0.00    -0.274 OA
ATOM      4  H   UNL     1       1.597   3.235  -6.513  0.00  0.00    +0.155 HD
ENDROOT
BRANCH   1   9
ATOM      5  C   UNL     1      -0.314   0.590  -3.508  0.00  0.00    +0.107 A 
ATOM      6  C   UNL     1      -1.383   1.444  -3.304  0.00  0.00    +0.032 A 
ATOM      7  C   UNL     1      -1.513   2.589  -4.068  0.00  0.00    +0.049 A 
ATOM      8  C   UNL     1      -0.572   2.884  -5.040  0.00  0.00    +0.138 A 
ATOM      9  C   UNL     1       0.505   2.025  -5.246  0.00  0.00    +0.077 A 
ATOM     10  C   UNL     1       0.632   0.881  -4.472  0.00  0.00    +0.055 A 
BRANCH   5  11
ATOM     11  S   UNL     1      -0.155  -0.867  -2.531  0.00  0.00    +0.061 S 
ATOM     12  O   UNL     1       0.638  -1.776  -3.283  0.00  0.00    -0.153 OA
ATOM     13  O   UNL     1      -1.460  -1.194  -2.073  0.00  0.00    -0.153 OA
BRANCH  11  14
ATOM     14  N   UNL     1       0.730  -0.464  -1.190  0.00  0.00    -0.177 NA
BRANCH  14  16
ATOM     15  C   UNL     1       0.030   1.541   0.024  0.00  0.00    +0.022 C 
ATOM     16  C   UNL     1       0.052   0.011   0.019  0.00  0.00    +0.106 C 
ENDBRANCH  14  16
BRANCH  14  17
ATOM     17  C   UNL     1       2.190  -0.582  -1.213  0.00  0.00    +0.106 C 
ATOM     18  C   UNL     1       2.602  -1.935  -0.629  0.00  0.00    +0.022 C 
ENDBRANCH  14  17
ENDBRANCH  11  14
ENDBRANCH   5  11
BRANCH   8  19
ATOM     19  O   UNL     1      -0.699   4.009  -5.793  0.00  0.00    -0.505 OA
ATOM     20  H   UNL     1      -0.264   4.786  -5.416  0.00  0.00    +0.292 HD
ENDBRANCH   8  19
ENDBRANCH   1   9
BRANCH   2  21
ATOM     21  C   UNL     1       3.301   1.653  -7.740  0.00  0.00    +0.212 C 
BRANCH  21  22
ATOM     22  N   UNL     1       3.936   0.412  -8.191  0.00  0.00    -0.233 N 
ATOM     23  C   UNL     1       4.972  -0.144  -7.553  0.00  0.00    +0.227 C 
ATOM     24  O   UNL     1       5.497   0.297  -6.553  0.00  0.00    -0.275 OA
ATOM     25  C   UNL     1       5.386  -1.408  -8.271  0.00  0.00    +0.095 C 
ATOM     26  C   UNL     1       5.009  -2.628  -7.372  0.00  0.00    +0.025 C 
ATOM     27  C   UNL     1       4.625  -3.685  -8.470  0.00  0.00    +0.016 C 
ATOM     28  C   UNL     1       3.522  -2.761  -9.104  0.00  0.00    +0.025 C 
ATOM     29  C   UNL     1       4.387  -1.486  -9.463  0.00  0.00    +0.095 C 
ATOM     30  C   UNL     1       3.524  -0.260  -9.272  0.00  0.00    +0.227 C 
ATOM     31  O   UNL     1       2.602   0.065  -9.989  0.00  0.00    -0.275 OA
ATOM     32  C   UNL     1       2.756  -2.361  -7.838  0.00  0.00    -0.027 C 
ATOM     33  C   UNL     1       3.622  -2.273  -6.822  0.00  0.00    -0.027 C 
ENDBRANCH  21  22
ENDBRANCH   2  21
TORSDOF 8
