REMARK  Name = ZINC36313400
REMARK  13 active torsions:
REMARK  status: ('A' for Active; 'I' for Inactive)
REMARK    1  A    between atoms: C_1  and  C_2
REMARK    2  A    between atoms: C_7  and  O_8
REMARK    3  A    between atoms: O_8  and  C_9
REMARK    4  A    between atoms: C_9  and  C_10
REMARK    5  A    between atoms: C_10  and  C_12
REMARK    6  A    between atoms: C_10  and  O_40
REMARK    7  A    between atoms: C_12  and  N_13
REMARK    8  A    between atoms: N_13  and  C_14
REMARK    9  A    between atoms: N_13  and  C_33
REMARK   10  A    between atoms: C_14  and  C_15
REMARK   11  A    between atoms: C_16  and  C_26
REMARK   12  A    between atoms: C_19  and  N_20
REMARK   13  A    between atoms: C_33  and  C_34
REMARK                            x       y       z     vdW  Elec       q    Type
REMARK                         _______ _______ _______ _____ _____    ______ ____
ROOT
ATOM      1  N   UNL     1      -0.924   0.410   8.322  0.00  0.00    +0.386 N 
ATOM      2  H   UNL     1      -0.381   1.224   8.566  0.00  0.00    -0.081 HD
ENDROOT
BRANCH   1   3
ATOM      3  C   UNL     1      -0.662   0.049   6.922  0.00  0.00    -0.043 C 
BRANCH   3   4
ATOM      4  C   UNL     1      -0.960   1.250   6.022  0.00  0.00    +0.135 C 
BRANCH   4   5
ATOM      5  O   UNL     1      -0.044   2.306   6.317  0.00  0.00    -0.390 OA
ATOM      6  H   UNL     1       0.884   2.071   6.182  0.00  0.00    +0.210 HD
ENDBRANCH   4   5
BRANCH   4   7
ATOM      7  C   UNL     1      -0.808   0.838   4.556  0.00  0.00    +0.258 C 
BRANCH   7   8
ATOM      8  O   UNL     1      -1.199   1.925   3.713  0.00  0.00    -0.489 OA
BRANCH   8  15
ATOM      9  C   UNL     1      -1.967   4.059   2.030  0.00  0.00    +0.047 C 
ATOM     10  C   UNL     1      -1.486   2.735   1.495  0.00  0.00    -0.009 A 
ATOM     11  C   UNL     1      -1.403   2.529   0.131  0.00  0.00    +0.007 A 
ATOM     12  C   UNL     1      -0.963   1.314  -0.360  0.00  0.00    +0.000 A 
ATOM     13  C   UNL     1      -0.605   0.302   0.512  0.00  0.00    +0.004 A 
ATOM     14  C   UNL     1      -0.687   0.502   1.876  0.00  0.00    +0.046 A 
ATOM     15  C   UNL     1      -1.123   1.723   2.372  0.00  0.00    +0.124 A 
ENDBRANCH   8  15
ENDBRANCH   7   8
ENDBRANCH   4   7
ENDBRANCH   3   4
ENDBRANCH   1   3
BRANCH   1  16
ATOM     16  C   UNL     1      -0.546  -0.710   9.194  0.00  0.00    -0.035 C 
BRANCH  16  17
ATOM     17  C   UNL     1       0.934  -0.967   9.070  0.00  0.00    +0.025 A 
ATOM     18  C   UNL     1       1.532  -2.105   8.490  0.00  0.00    +0.119 A 
ATOM     19  N   UNL     1       2.835  -1.962   8.570  0.00  0.00    -0.076 NA
ATOM     20  O   UNL     1       3.101  -0.725   9.204  0.00  0.00    -0.339 OA
ATOM     21  C   UNL     1       1.925  -0.142   9.491  0.00  0.00    +0.222 A 
BRANCH  18  22
ATOM     22  C   UNL     1       0.816  -3.261   7.896  0.00  0.00    +0.039 A 
ATOM     23  C   UNL     1      -0.487  -3.109   7.424  0.00  0.00    +0.013 A 
ATOM     24  C   UNL     1      -1.148  -4.187   6.872  0.00  0.00    +0.001 A 
ATOM     25  C   UNL     1      -0.522  -5.418   6.785  0.00  0.00    +0.003 A 
ATOM     26  C   UNL     1       0.769  -5.577   7.251  0.00  0.00    +0.039 A 
ATOM     27  C   UNL     1       1.445  -4.502   7.801  0.00  0.00    +0.133 A 
ATOM     28  F   UNL     1       2.710  -4.656   8.252  0.00  0.00    -0.205 F 
ENDBRANCH  18  22
BRANCH  21  29
ATOM     29  N   UNL     1       1.755   1.083  10.109  0.00  0.00    -0.295 N 
ATOM     30  C   UNL     1       1.709   1.192  11.576  0.00  0.00    +0.136 C 
ATOM     31  C   UNL     1       2.692   2.284  12.011  0.00  0.00    +0.179 C 
ATOM     32  O   UNL     1       2.421   3.481  11.278  0.00  0.00    -0.377 OA
ATOM     33  C   UNL     1       2.603   3.355   9.865  0.00  0.00    +0.179 C 
ATOM     34  C   UNL     1       1.620   2.318   9.320  0.00  0.00    +0.136 C 
ENDBRANCH  21  29
ENDBRANCH  16  17
ENDBRANCH   1  16
BRANCH   1  35
ATOM     35  C   UNL     1      -2.353   0.704   8.493  0.00  0.00    -0.046 C 
BRANCH  35  36
ATOM     36  C   UNL     1      -2.587   1.307   9.879  0.00  0.00    +0.102 C 
ATOM     37  C   UNL     1      -4.100   1.492  10.121  0.00  0.00    +0.032 C 
ATOM     38  C   UNL     1      -4.151   2.854  10.866  0.00  0.00    +0.030 C 
ATOM     39  C   UNL     1      -2.976   3.603  10.188  0.00  0.00    +0.160 C 
ATOM     40  O   UNL     1      -1.973   2.599   9.957  0.00  0.00    -0.378 OA
ENDBRANCH  35  36
ENDBRANCH   1  35
TORSDOF 12
