REMARK  Name = ZINC20413418
REMARK  5 active torsions:
REMARK  status: ('A' for Active; 'I' for Inactive)
REMARK    1  A    between atoms: C_1  and  C_2
REMARK    2  A    between atoms: C_3  and  C_21
REMARK    3  A    between atoms: C_4  and  C_14
REMARK    4  A    between atoms: C_9  and  S_11
REMARK    5  A    between atoms: S_11  and  C_12
REMARK                            x       y       z     vdW  Elec       q    Type
REMARK                         _______ _______ _______ _____ _____    ______ ____
ROOT
ATOM      1  C   UNL     1       3.710  -0.332  -0.883  0.00  0.00    +0.061 C 
ATOM      2  C   UNL     1       2.413   0.288  -0.431  0.00  0.00    +0.018 C 
ATOM      3  C   UNL     1       1.291  -0.444  -0.488  0.00  0.00    +0.060 C 
ATOM      4  C   UNL     1      -0.053   0.076  -0.051  0.00  0.00    +0.177 C 
ATOM      5  N   UNL     1       0.025   1.522   0.144  0.00  0.00    -0.220 N 
ATOM      6  C   UNL     1       1.192   2.212   0.182  0.00  0.00    +0.219 A 
ATOM      7  N   UNL     1       0.912   3.472   0.377  0.00  0.00    -0.187 NA
ATOM      8  C   UNL     1      -0.417   3.627   0.463  0.00  0.00    +0.210 A 
ATOM      9  N   UNL     1      -0.996   2.453   0.327  0.00  0.00    -0.141 NA
ATOM     10  N   UNL     1       2.420   1.583   0.025  0.00  0.00    -0.287 N 
ATOM     11  H   UNL     1       3.374   2.082   0.250  0.00  0.00    +0.155 HD
ENDROOT
BRANCH   4  12
ATOM     12  C   UNL     1      -0.450  -0.584   1.243  0.00  0.00    -0.017 A 
ATOM     13  C   UNL     1      -1.610  -1.334   1.309  0.00  0.00    +0.006 A 
ATOM     14  C   UNL     1      -1.975  -1.941   2.496  0.00  0.00    +0.001 A 
ATOM     15  C   UNL     1      -1.180  -1.799   3.618  0.00  0.00    +0.015 A 
ATOM     16  C   UNL     1      -0.020  -1.049   3.553  0.00  0.00    +0.018 A 
ATOM     17  C   UNL     1       0.347  -0.446   2.363  0.00  0.00    +0.021 A 
ATOM     18 BR   UNL     1       1.067  -0.854   5.088  0.00  0.00    -0.050 Br
ENDBRANCH   4  12
BRANCH   3  19
ATOM     19  C   UNL     1       1.373  -1.767  -0.983  0.00  0.00    +0.241 C 
ATOM     20  O   UNL     1       1.067  -2.005  -2.138  0.00  0.00    -0.271 OA
ATOM     21  N   UNL     1       1.790  -2.763  -0.177  0.00  0.00    -0.325 N 
ATOM     22  H   UNL     1       1.853  -3.792  -0.562  0.00  0.00    +0.145 HD
ATOM     23  H   UNL     1       2.066  -2.548   0.866  0.00  0.00    +0.145 HD
ENDBRANCH   3  19
BRANCH   8  24
ATOM     24  S   UNL     1      -1.254   5.156   0.722  0.00  0.00    -0.088 S 
ATOM     25  C   UNL     1       0.084   6.376   0.830  0.00  0.00    +0.093 C 
ENDBRANCH   8  24
TORSDOF 3
