REMARK  Name = ZINC02145888
REMARK  13 active torsions:
REMARK  status: ('A' for Active; 'I' for Inactive)
REMARK    1  A    between atoms: C_1  and  C_2
REMARK    2  A    between atoms: N_8  and  C_9
REMARK    3  A    between atoms: C_9  and  C_10
REMARK    4  A    between atoms: C_10  and  C_11
REMARK    5  A    between atoms: C_14  and  O_19
REMARK    6  A    between atoms: C_15  and  O_17
REMARK    7  A    between atoms: O_17  and  C_18
REMARK    8  A    between atoms: O_19  and  C_20
REMARK    9  A    between atoms: C_21  and  C_29
REMARK   10  A    between atoms: C_23  and  C_27
REMARK   11  A    between atoms: C_24  and  N_26
REMARK   12  A    between atoms: C_33  and  O_35
REMARK   13  A    between atoms: O_35  and  C_36
REMARK                            x       y       z     vdW  Elec       q    Type
REMARK                         _______ _______ _______ _____ _____    ______ ____
ROOT
ATOM      1  C   UNL     1       0.431   5.247  -3.791  0.00  0.00    +0.064 C 
ATOM      2  C   UNL     1       0.326   6.742  -3.633  0.00  0.00    +0.022 A 
ATOM      3  C   UNL     1       0.851   7.550  -4.579  0.00  0.00    +0.068 A 
ATOM      4  C   UNL     1       0.755   8.950  -4.436  0.00  0.00    +0.141 A 
ATOM      5  C   UNL     1       0.123   9.466  -3.324  0.00  0.00    +0.072 A 
ATOM      6  C   UNL     1      -0.411   8.588  -2.372  0.00  0.00    +0.259 A 
ATOM      7  O   UNL     1      -0.979   9.031  -1.385  0.00  0.00    -0.267 OA
ATOM      8  N   UNL     1      -0.296   7.258  -2.540  0.00  0.00    -0.312 N 
ATOM      9  C   UNL     1      -0.003  10.952  -3.132  0.00  0.00    +0.103 C 
ATOM     10  C   UNL     1       0.958  11.673  -4.036  0.00  0.00    +0.098 C 
ATOM     11  C   UNL     1       1.534  11.048  -5.090  0.00  0.00    +0.199 C 
ATOM     12  O   UNL     1       1.280   9.760  -5.379  0.00  0.00    -0.441 OA
ENDROOT
BRANCH   9  13
ATOM     13  C   UNL     1      -1.411  11.379  -3.457  0.00  0.00    -0.027 A 
ATOM     14  C   UNL     1      -2.192  11.975  -2.485  0.00  0.00    +0.054 A 
ATOM     15  C   UNL     1      -3.487  12.374  -2.780  0.00  0.00    +0.170 A 
ATOM     16  C   UNL     1      -4.002  12.164  -4.056  0.00  0.00    +0.208 A 
ATOM     17  C   UNL     1      -3.215  11.561  -5.028  0.00  0.00    +0.166 A 
ATOM     18  C   UNL     1      -1.919  11.169  -4.725  0.00  0.00    +0.054 A 
ATOM     19  O   UNL     1      -5.284  12.635  -4.092  0.00  0.00    -0.449 OA
ATOM     20  C   UNL     1      -5.407  13.502  -2.949  0.00  0.00    +0.467 C 
ATOM     21  O   UNL     1      -4.444  12.976  -2.016  0.00  0.00    -0.452 OA
BRANCH  17  22
ATOM     22  O   UNL     1      -3.714  11.354  -6.276  0.00  0.00    -0.491 OA
ATOM     23  C   UNL     1      -2.848  10.729  -7.226  0.00  0.00    +0.277 C 
ENDBRANCH  17  22
ENDBRANCH   9  13
BRANCH  11  24
ATOM     24  N   UNL     1       2.404  11.750  -5.887  0.00  0.00    -0.328 N 
ATOM     25  H   UNL     1       2.824  11.316  -6.646  0.00  0.00    +0.145 HD
ATOM     26  H   UNL     1       2.598  12.680  -5.692  0.00  0.00    +0.145 HD
ENDBRANCH  11  24
BRANCH  10  27
ATOM     27  C   UNL     1       1.269  13.047  -3.778  0.00  0.00    +0.101 C 
ATOM     28  N   UNL     1       1.516  14.137  -3.574  0.00  0.00    -0.191 NA
ENDBRANCH  10  27
BRANCH   8  29
ATOM     29  C   UNL     1      -0.855   6.352  -1.533  0.00  0.00    +0.130 C 
BRANCH  29  30
ATOM     30  C   UNL     1       0.207   6.050  -0.474  0.00  0.00    +0.057 C 
BRANCH  30  31
ATOM     31  C   UNL     1      -0.368   5.119   0.562  0.00  0.00    -0.042 A 
ATOM     32  C   UNL     1      -1.003   5.634   1.677  0.00  0.00    +0.007 A 
ATOM     33  C   UNL     1      -1.532   4.784   2.629  0.00  0.00    +0.049 A 
ATOM     34  C   UNL     1      -1.432   3.411   2.465  0.00  0.00    +0.161 A 
ATOM     35  C   UNL     1      -0.787   2.893   1.346  0.00  0.00    +0.162 A 
ATOM     36  C   UNL     1      -0.259   3.751   0.395  0.00  0.00    +0.053 A 
BRANCH  35  37
ATOM     37  O   UNL     1      -0.682   1.547   1.184  0.00  0.00    -0.491 OA
ATOM     38  C   UNL     1      -0.013   1.086   0.008  0.00  0.00    +0.277 C 
ENDBRANCH  35  37
BRANCH  34  39
ATOM     39  O   UNL     1      -1.957   2.573   3.399  0.00  0.00    -0.491 OA
ATOM     40  C   UNL     1      -2.603   3.176   4.521  0.00  0.00    +0.277 C 
ENDBRANCH  34  39
ENDBRANCH  30  31
ENDBRANCH  29  30
ENDBRANCH   8  29
TORSDOF 9
