REMARK  Name = ZINC63370180
REMARK  8 active torsions:
REMARK  status: ('A' for Active; 'I' for Inactive)
REMARK    1  A    between atoms: C_1  and  C_2
REMARK    2  A    between atoms: C_3  and  C_24
REMARK    3  A    between atoms: C_4  and  C_9
REMARK    4  A    between atoms: C_13  and  O_15
REMARK    5  A    between atoms: O_15  and  C_16
REMARK    6  A    between atoms: C_16  and  C_17
REMARK    7  A    between atoms: N_26  and  C_27
REMARK    8  A    between atoms: N_26  and  C_28
REMARK                            x       y       z     vdW  Elec       q    Type
REMARK                         _______ _______ _______ _____ _____    ______ ____
ROOT
ATOM      1  C   UNL     1       0.041   1.320  -0.301  0.00  0.00    +0.061 C 
ATOM      2  C   UNL     1       0.131  -0.175  -0.141  0.00  0.00    +0.017 C 
ATOM      3  C   UNL     1      -1.000  -0.912  -0.138  0.00  0.00    +0.056 C 
ATOM      4  C   UNL     1      -0.865  -2.412   0.025  0.00  0.00    +0.139 C 
ATOM      5  N   UNL     1       0.499  -2.947   0.169  0.00  0.00    -0.315 N 
ATOM      6  C   UNL     1       1.533  -2.083   0.147  0.00  0.00    +0.135 C 
ATOM      7  S   UNL     1       3.125  -2.690   0.313  0.00  0.00    -0.019 S 
ATOM      8  N   UNL     1       1.355  -0.764  -0.006  0.00  0.00    -0.300 N 
ATOM      9  H   UNL     1       0.650  -3.899   0.278  0.00  0.00    +0.149 HD
ATOM     10  H   UNL     1       2.141  -0.195  -0.018  0.00  0.00    +0.154 HD
ENDROOT
BRANCH   4  11
ATOM     11  C   UNL     1      -1.498  -3.069  -1.174  0.00  0.00    -0.019 A 
ATOM     12  C   UNL     1      -0.774  -3.217  -2.343  0.00  0.00    +0.006 A 
ATOM     13  C   UNL     1      -1.351  -3.819  -3.445  0.00  0.00    +0.004 A 
ATOM     14  C   UNL     1      -2.654  -4.274  -3.382  0.00  0.00    +0.045 A 
ATOM     15  C   UNL     1      -3.383  -4.127  -2.210  0.00  0.00    +0.121 A 
ATOM     16  C   UNL     1      -2.799  -3.528  -1.104  0.00  0.00    +0.051 A 
BRANCH  15  17
ATOM     17  O   UNL     1      -4.664  -4.574  -2.145  0.00  0.00    -0.487 OA
BRANCH  17  18
ATOM     18  C   UNL     1      -5.198  -5.186  -3.321  0.00  0.00    +0.267 C 
BRANCH  18  19
ATOM     19  C   UNL     1      -6.619  -5.616  -3.062  0.00  0.00    +0.025 A 
ATOM     20  C   UNL     1      -7.198  -5.385  -1.828  0.00  0.00    +0.010 A 
ATOM     21  C   UNL     1      -8.501  -5.779  -1.591  0.00  0.00    +0.001 A 
ATOM     22  C   UNL     1      -9.228  -6.405  -2.587  0.00  0.00    +0.003 A 
ATOM     23  C   UNL     1      -8.652  -6.636  -3.821  0.00  0.00    +0.039 A 
ATOM     24  C   UNL     1      -7.348  -6.237  -4.062  0.00  0.00    +0.130 A 
ATOM     25  F   UNL     1      -6.785  -6.459  -5.271  0.00  0.00    -0.205 F 
ENDBRANCH  18  19
ENDBRANCH  17  18
ENDBRANCH  15  17
ENDBRANCH   4  11
BRANCH   3  26
ATOM     26  C   UNL     1      -2.271  -0.302  -0.283  0.00  0.00    +0.246 C 
ATOM     27  O   UNL     1      -2.815  -0.281  -1.372  0.00  0.00    -0.270 OA
ATOM     28  N   UNL     1      -2.878   0.253   0.785  0.00  0.00    -0.304 N 
ATOM     29  C   UNL     1      -4.230   0.802   0.655  0.00  0.00    +0.132 C 
ATOM     30  C   UNL     1      -2.185   0.308   2.074  0.00  0.00    +0.132 C 
ENDBRANCH   3  26
TORSDOF 5
