REMARK  Name = ZINC39576688
REMARK  5 active torsions:
REMARK  status: ('A' for Active; 'I' for Inactive)
REMARK    1  A    between atoms: C_3  and  N_23
REMARK    2  A    between atoms: C_6  and  C_7
REMARK    3  A    between atoms: N_8  and  N_9
REMARK    4  A    between atoms: C_10  and  C_12
REMARK    5  A    between atoms: C_15  and  C_17
REMARK                            x       y       z     vdW  Elec       q    Type
REMARK                         _______ _______ _______ _____ _____    ______ ____
ROOT
ATOM      1  N   UNL     1      -2.443  -2.780   0.011  0.00  0.00    -0.202 N 
ATOM      2  C   UNL     1      -2.421  -4.128   0.004  0.00  0.00    +0.280 C 
ATOM      3  O   UNL     1      -1.357  -4.720  -0.010  0.00  0.00    -0.267 OA
ATOM      4  H   UNL     1      -3.291  -2.309   0.022  0.00  0.00    +0.178 HD
ENDROOT
BRANCH   2   5
ATOM      5  C   UNL     1      -3.637  -4.857   0.012  0.00  0.00    +0.132 C 
ATOM      6  N   UNL     1      -4.856  -4.374   0.021  0.00  0.00    -0.148 NA
ATOM      7  N   UNL     1      -5.773  -5.260   0.026  0.00  0.00    -0.152 NA
ATOM      8  C   UNL     1      -5.324  -6.502   0.022  0.00  0.00    +0.083 C 
ATOM      9  C   UNL     1      -3.810  -6.367   0.006  0.00  0.00    +0.121 C 
BRANCH   8  10
ATOM     10  C   UNL     1      -6.079  -7.687   0.027  0.00  0.00    +0.037 A 
ATOM     11  C   UNL     1      -7.466  -7.847   0.031  0.00  0.00    +0.019 A 
ATOM     12  C   UNL     1      -7.913  -9.142   0.035  0.00  0.00    +0.028 A 
ATOM     13  C   UNL     1      -7.005 -10.156   0.035  0.00  0.00    +0.079 A 
ATOM     14  S   UNL     1      -5.515  -9.379   0.021  0.00  0.00    -0.076 S 
ATOM     15 CL   UNL     1      -7.315 -11.864   0.040  0.00  0.00    -0.076 Cl
ENDBRANCH   8  10
ENDBRANCH   2   5
BRANCH   1  17
ATOM     16  C   UNL     1      -1.263  -0.762   0.011  0.00  0.00    +0.138 C 
ATOM     17  N   UNL     1      -1.242  -2.060   0.003  0.00  0.00    -0.187 NA
BRANCH  16  23
ATOM     18  C   UNL     1      -0.017   1.393   0.010  0.00  0.00    +0.012 A 
ATOM     19  C   UNL     1       1.170   2.095   0.002  0.00  0.00    +0.033 A 
ATOM     20  C   UNL     1       2.378   1.420  -0.013  0.00  0.00    +0.126 A 
ATOM     21  C   UNL     1       2.404   0.036  -0.021  0.00  0.00    +0.033 A 
ATOM     22  C   UNL     1       1.225  -0.679  -0.013  0.00  0.00    +0.012 A 
ATOM     23  C   UNL     1       0.002  -0.004   0.002  0.00  0.00    -0.005 A 
BRANCH  20  24
ATOM     24  N   UNL     1       3.647   2.181  -0.022  0.00  0.00    +0.056 N 
ATOM     25  O   UNL     1       3.628   3.390  -0.016  0.00  0.00    -0.126 OA
ATOM     26  O   UNL     1       4.704   1.593  -0.036  0.00  0.00    -0.126 OA
ENDBRANCH  20  24
ENDBRANCH  16  23
ENDBRANCH   1  17
TORSDOF 5
