REMARK  Name = ZINC05349035
REMARK  11 active torsions:
REMARK  status: ('A' for Active; 'I' for Inactive)
REMARK    1  A    between atoms: C_1  and  C_2
REMARK    2  A    between atoms: C_2  and  N_58
REMARK    3  A    between atoms: C_3  and  C_4
REMARK    4  A    between atoms: C_3  and  N_58
REMARK    5  A    between atoms: C_5  and  C_6
REMARK    6  A    between atoms: C_5  and  N_58
REMARK    7  A    between atoms: C_6  and  N_7
REMARK    8  A    between atoms: C_13  and  C_23
REMARK    9  A    between atoms: C_18  and  O_22
REMARK   10  A    between atoms: C_28  and  O_29
REMARK   11  A    between atoms: O_29  and  C_30
REMARK                            x       y       z     vdW  Elec       q    Type
REMARK                         _______ _______ _______ _____ _____    ______ ____
ROOT
ATOM      1  N   UNL     1      -1.828   6.731  -3.367  0.00  0.00    -0.320 N 
ATOM      2  C   UNL     1      -3.097   7.119  -3.088  0.00  0.00    +0.204 A 
ATOM      3  N   UNL     1      -3.557   7.119  -1.870  0.00  0.00    -0.202 NA
ATOM      4  C   UNL     1      -2.806   6.736  -0.821  0.00  0.00    +0.229 A 
ATOM      5  C   UNL     1      -1.521   6.332  -1.020  0.00  0.00    +0.066 A 
ATOM      6  C   UNL     1      -1.002   6.326  -2.337  0.00  0.00    +0.115 A 
ATOM      7  C   UNL     1      -0.650   5.894   0.123  0.00  0.00    +0.095 C 
ATOM      8  C   UNL     1      -1.227   6.363   1.432  0.00  0.00    +0.007 A 
ATOM      9  C   UNL     1      -0.428   6.382   2.561  0.00  0.00    +0.012 A 
ATOM     10  C   UNL     1      -0.942   6.809   3.770  0.00  0.00    +0.046 A 
ATOM     11  C   UNL     1      -2.264   7.222   3.854  0.00  0.00    +0.120 A 
ATOM     12  C   UNL     1      -3.067   7.204   2.725  0.00  0.00    +0.092 A 
ATOM     13  C   UNL     1      -2.549   6.773   1.510  0.00  0.00    +0.138 A 
ATOM     14  O   UNL     1      -3.347   6.758   0.416  0.00  0.00    -0.437 OA
ATOM     15  H   UNL     1       0.670   5.910  -3.446  0.00  0.00    +0.157 HD
ATOM     16  N   UNL     1       0.264   5.927  -2.510  0.00  0.00    -0.384 N 
ATOM     17  H   UNL     1       0.827   5.637  -1.702  0.00  0.00    +0.157 HD
ENDROOT
BRANCH   7  18
ATOM     18  C   UNL     1      -0.555   4.390   0.130  0.00  0.00    +0.006 A 
ATOM     19  C   UNL     1      -1.696   3.627   0.286  0.00  0.00    +0.008 A 
ATOM     20  C   UNL     1      -1.611   2.247   0.287  0.00  0.00    +0.001 A 
ATOM     21  C   UNL     1      -0.383   1.628   0.142  0.00  0.00    +0.004 A 
ATOM     22  C   UNL     1       0.761   2.387  -0.015  0.00  0.00    +0.046 A 
ATOM     23  C   UNL     1       0.677   3.772  -0.021  0.00  0.00    +0.124 A 
BRANCH  23  24
ATOM     24  O   UNL     1       1.800   4.521  -0.174  0.00  0.00    -0.495 OA
ATOM     25  C   UNL     1       3.034   3.817  -0.324  0.00  0.00    +0.277 C 
ENDBRANCH  23  24
ENDBRANCH   7  18
BRANCH  11  26
ATOM     26  O   UNL     1      -2.771   7.643   5.043  0.00  0.00    -0.507 OA
ATOM     27  H   UNL     1      -3.164   6.938   5.575  0.00  0.00    +0.292 HD
ENDBRANCH  11  26
BRANCH   1  28
ATOM     28  C   UNL     1      -1.338   6.740  -4.748  0.00  0.00    +0.106 C 
BRANCH  28  29
ATOM     29  C   UNL     1      -1.507   5.348  -5.359  0.00  0.00    -0.057 C 
BRANCH  29  30
ATOM     30  N   UNL     1      -1.028   5.379  -6.757  0.00  0.00    +0.380 N 
ATOM     31  H   UNL     1      -1.483   6.157  -7.248  0.00  0.00    -0.082 HD
BRANCH  30  33
ATOM     32  C   UNL     1       1.152   4.434  -6.072  0.00  0.00    -0.017 C 
ATOM     33  C   UNL     1       0.435   5.583  -6.785  0.00  0.00    -0.082 C 
ENDBRANCH  30  33
BRANCH  30  34
ATOM     34  C   UNL     1      -1.375   4.113  -7.438  0.00  0.00    -0.082 C 
ATOM     35  C   UNL     1      -1.204   4.304  -8.946  0.00  0.00    -0.017 C 
ENDBRANCH  30  34
ENDBRANCH  29  30
ENDBRANCH  28  29
ENDBRANCH   1  28
TORSDOF 8
