REMARK  Name = ZINC35422940
REMARK  6 active torsions:
REMARK  status: ('A' for Active; 'I' for Inactive)
REMARK    1  A    between atoms: C_1  and  C_2
REMARK    2  A    between atoms: C_5  and  C_7
REMARK    3  A    between atoms: C_18  and  O_33
REMARK    4  A    between atoms: C_22  and  C_32
REMARK    5  A    between atoms: C_27  and  C_31
REMARK    6  A    between atoms: C_28  and  O_30
REMARK                            x       y       z     vdW  Elec       q    Type
REMARK                         _______ _______ _______ _____ _____    ______ ____
ROOT
ATOM      1  C   UNL     1       1.773  -2.498  -0.067  0.00  0.00    +0.048 C 
ATOM      2  C   UNL     1       3.100  -2.558  -0.043  0.00  0.00    -0.037 C 
ATOM      3  C   UNL     1       4.061  -1.375   0.032  0.00  0.00    +0.038 C 
ATOM      4  C   UNL     1       5.457  -1.997  -0.048  0.00  0.00    +0.005 C 
ATOM      5  C   UNL     1       6.582  -1.194   0.588  0.00  0.00    +0.001 C 
ATOM      6  C   UNL     1       7.161  -0.311  -0.523  0.00  0.00    +0.031 C 
ATOM      7  C   UNL     1       8.508   0.221  -0.170  0.00  0.00    -0.027 C 
ATOM      8  C   UNL     1       9.313  -0.336   0.681  0.00  0.00    -0.065 C 
ATOM      9  C   UNL     1      10.688   0.282   0.895  0.00  0.00    +0.062 C 
ATOM     10  C   UNL     1      11.741  -0.811   0.704  0.00  0.00    +0.119 C 
ATOM     11  C   UNL     1      11.444  -1.982   1.639  0.00  0.00    +0.032 C 
ATOM     12  C   UNL     1      10.089  -2.599   1.311  0.00  0.00    +0.014 C 
ATOM     13  C   UNL     1       8.965  -1.573   1.449  0.00  0.00    -0.008 C 
ATOM     14  C   UNL     1       7.625  -2.169   1.109  0.00  0.00    +0.003 C 
ATOM     15  C   UNL     1       7.697  -3.406   0.212  0.00  0.00    +0.005 C 
ATOM     16  C   UNL     1       6.436  -4.261   0.444  0.00  0.00    +0.010 C 
ATOM     17  C   UNL     1       5.246  -3.360   0.646  0.00  0.00    +0.001 C 
ATOM     18  C   UNL     1       3.962  -3.822  -0.089  0.00  0.00    +0.147 C 
ATOM     19  C   UNL     1       4.890  -3.213   2.131  0.00  0.00    +0.014 C 
ATOM     20  C   UNL     1       8.894  -1.175   2.933  0.00  0.00    +0.016 C 
ENDROOT
BRANCH   1  25
ATOM     21  C   UNL     1       1.036   2.454   0.169  0.00  0.00    +0.086 C 
ATOM     22  C   UNL     1       0.765   0.974   0.088  0.00  0.00    +0.103 A 
ATOM     23  C   UNL     1      -0.453   0.400   0.034  0.00  0.00    +0.045 A 
ATOM     24  C   UNL     1      -0.252  -0.992  -0.032  0.00  0.00    +0.049 A 
ATOM     25  C   UNL     1       1.095  -1.194  -0.015  0.00  0.00    +0.128 A 
ATOM     26  O   UNL     1       1.698   0.009   0.052  0.00  0.00    -0.461 OA
ENDBRANCH   1  25
BRANCH  18  27
ATOM     27  O   UNL     1       4.252  -4.182  -1.436  0.00  0.00    -0.387 OA
ATOM     28  H   UNL     1       3.470  -4.386  -1.967  0.00  0.00    +0.210 HD
ENDBRANCH  18  27
BRANCH  10  29
ATOM     29  O   UNL     1      11.725  -1.263  -0.652  0.00  0.00    -0.391 OA
ATOM     30  H   UNL     1      11.915  -0.571  -1.300  0.00  0.00    +0.210 HD
ENDBRANCH  10  29
TORSDOF 3
