REMARK  Name = ZINC04196858
REMARK  5 active torsions:
REMARK  status: ('A' for Active; 'I' for Inactive)
REMARK    1  A    between atoms: C_3  and  C_6
REMARK    2  A    between atoms: C_6  and  N_7
REMARK    3  A    between atoms: C_11  and  N_15
REMARK    4  A    between atoms: C_18  and  C_21
REMARK    5  A    between atoms: C_18  and  N_24
REMARK                            x       y       z     vdW  Elec       q    Type
REMARK                         _______ _______ _______ _____ _____    ______ ____
ROOT
ATOM      1  N   UNL     1       4.905   0.877   4.577  0.00  0.00    +0.388 N 
ATOM      2  C   UNL     1       5.002   1.390   5.949  0.00  0.00    -0.079 C 
ATOM      3  C   UNL     1       4.050   0.609   6.858  0.00  0.00    -0.021 C 
ATOM      4  C   UNL     1       4.434  -0.873   6.837  0.00  0.00    +0.009 C 
ATOM      5  C   UNL     1       4.401  -1.379   5.392  0.00  0.00    -0.021 C 
ATOM      6  C   UNL     1       5.340  -0.525   4.537  0.00  0.00    -0.079 C 
ATOM      7  H   UNL     1       3.948   0.940   4.264  0.00  0.00    -0.081 HD
ENDROOT
BRANCH   1  12
ATOM      8  N   UNL     1       5.110   2.322   1.554  0.00  0.00    -0.239 N 
ATOM      9  C   UNL     1       4.937   3.434   2.279  0.00  0.00    +0.221 C 
ATOM     10  O   UNL     1       4.531   4.494   1.853  0.00  0.00    -0.275 OA
ATOM     11  C   UNL     1       5.328   3.159   3.715  0.00  0.00    +0.090 C 
ATOM     12  C   UNL     1       5.762   1.679   3.694  0.00  0.00    +0.029 C 
ATOM     13  C   UNL     1       5.565   1.272   2.250  0.00  0.00    +0.209 C 
ATOM     14  O   UNL     1       5.786   0.171   1.794  0.00  0.00    -0.277 OA
BRANCH   8  15
ATOM     15  C   UNL     1       4.820   2.257   0.120  0.00  0.00    +0.158 C 
BRANCH  15  18
ATOM     16  C   UNL     1       1.050   2.025  -0.374  0.00  0.00    +0.008 A 
ATOM     17  C   UNL     1       2.280   2.626  -0.187  0.00  0.00    +0.013 A 
ATOM     18  C   UNL     1       3.384   1.847  -0.084  0.00  0.00    +0.008 A 
ATOM     19  S   UNL     1       2.697   0.208  -0.255  0.00  0.00    -0.100 S 
ATOM     20  C   UNL     1       0.984   0.673  -0.451  0.00  0.00    +0.045 A 
ENDBRANCH  15  18
ENDBRANCH   8  15
ENDBRANCH   1  12
BRANCH   4  21
ATOM     21  N   UNL     1       3.478  -1.639   7.648  0.00  0.00    +0.389 N 
ATOM     22  C   UNL     1       3.503  -1.145   9.029  0.00  0.00    -0.077 C 
ATOM     23  C   UNL     1       2.451  -1.884   9.859  0.00  0.00    -0.019 C 
ATOM     24  C   UNL     1       2.761  -3.384   9.846  0.00  0.00    -0.004 C 
ATOM     25  C   UNL     1       2.805  -3.874   8.396  0.00  0.00    -0.019 C 
ATOM     26  C   UNL     1       3.844  -3.060   7.620  0.00  0.00    -0.077 C 
ATOM     27  H   UNL     1       2.550  -1.525   7.269  0.00  0.00    -0.080 HD
ENDBRANCH   4  21
BRANCH   4  28
ATOM     28  C   UNL     1       5.822  -1.042   7.399  0.00  0.00    +0.200 C 
ATOM     29  O   UNL     1       6.346  -0.132   8.006  0.00  0.00    -0.278 OA
ATOM     30  N   UNL     1       6.482  -2.205   7.226  0.00  0.00    -0.330 N 
ATOM     31  H   UNL     1       6.096  -2.904   6.676  0.00  0.00    +0.145 HD
ATOM     32  H   UNL     1       7.342  -2.342   7.652  0.00  0.00    +0.145 HD
ENDBRANCH   4  28
TORSDOF 5
