REMARK  Name = ZINC51999027
REMARK  7 active torsions:
REMARK  status: ('A' for Active; 'I' for Inactive)
REMARK    1  A    between atoms: C_1  and  C_2
REMARK    2  A    between atoms: C_2  and  O_3
REMARK    3  A    between atoms: O_3  and  C_4
REMARK    4  A    between atoms: C_7  and  C_11
REMARK    5  A    between atoms: C_11  and  N_12
REMARK    6  A    between atoms: N_12  and  C_13
REMARK    7  A    between atoms: C_19  and  O_21
REMARK                            x       y       z     vdW  Elec       q    Type
REMARK                         _______ _______ _______ _____ _____    ______ ____
ROOT
ATOM      1  C   UNL     1      -2.000  -6.093  -0.012  0.00  0.00    -0.046 C 
ENDROOT
BRANCH   1   5
ATOM      2  C   UNL     1      -1.498  -1.849   0.006  0.00  0.00    +0.148 A 
ATOM      3  C   UNL     1      -1.586  -2.533  -1.198  0.00  0.00    +0.061 A 
ATOM      4  C   UNL     1      -1.748  -3.906  -1.200  0.00  0.00    +0.020 A 
ATOM      5  C   UNL     1      -1.823  -4.597  -0.005  0.00  0.00    -0.062 A 
ATOM      6  C   UNL     1      -1.737  -3.917   1.196  0.00  0.00    +0.020 A 
ATOM      7  C   UNL     1      -1.569  -2.545   1.204  0.00  0.00    +0.061 A 
ATOM      8 BR   UNL     1      -1.443  -1.618   2.848  0.00  0.00    -0.046 Br
ATOM      9 BR   UNL     1      -1.484  -1.589  -2.833  0.00  0.00    -0.046 Br
BRANCH   2  10
ATOM     10  O   UNL     1      -1.339  -0.499   0.012  0.00  0.00    -0.490 OA
BRANCH  10  12
ATOM     11  C   UNL     1      -0.019   1.526   0.010  0.00  0.00    +0.048 C 
ATOM     12  C   UNL     1       0.002  -0.004   0.002  0.00  0.00    +0.226 C 
ENDBRANCH  10  12
ENDBRANCH   2  10
ENDBRANCH   1   5
BRANCH   1  13
ATOM     13  N   UNL     1      -0.683  -6.743  -0.021  0.00  0.00    +0.385 N 
ATOM     14  H   UNL     1      -0.175  -6.460  -0.846  0.00  0.00    -0.085 HD
ATOM     15  H   UNL     1      -0.167  -6.468   0.802  0.00  0.00    -0.085 HD
BRANCH  13  16
ATOM     16  C   UNL     1      -0.855  -8.201  -0.027  0.00  0.00    -0.042 C 
ATOM     17  C   UNL     1      -1.514  -8.643   1.281  0.00  0.00    -0.013 C 
ATOM     18  C   UNL     1      -1.694 -10.162   1.275  0.00  0.00    -0.001 C 
ATOM     19  C   UNL     1      -0.328 -10.837   1.139  0.00  0.00    +0.002 C 
ATOM     20  C   UNL     1       0.331 -10.396  -0.169  0.00  0.00    +0.030 C 
ATOM     21  C   UNL     1       0.511  -8.876  -0.163  0.00  0.00    +0.101 C 
BRANCH  21  22
ATOM     22  O   UNL     1       1.340  -8.499   0.939  0.00  0.00    -0.393 OA
ATOM     23  H   UNL     1       2.224  -8.891   0.918  0.00  0.00    +0.210 HD
ENDBRANCH  21  22
ENDBRANCH  13  16
ENDBRANCH   1  13
TORSDOF 6
