REMARK  Name = ZINC67188119
REMARK  11 active torsions:
REMARK  status: ('A' for Active; 'I' for Inactive)
REMARK    1  A    between atoms: C_1  and  C_2
REMARK    2  A    between atoms: C_2  and  C_3
REMARK    3  A    between atoms: C_2  and  N_4
REMARK    4  A    between atoms: N_4  and  C_5
REMARK    5  A    between atoms: N_4  and  C_6
REMARK    6  A    between atoms: C_6  and  C_7
REMARK    7  A    between atoms: C_12  and  C_13
REMARK    8  A    between atoms: C_13  and  N_14
REMARK    9  A    between atoms: N_14  and  C_15
REMARK   10  A    between atoms: C_15  and  C_16
REMARK   11  A    between atoms: C_21  and  C_22
REMARK                            x       y       z     vdW  Elec       q    Type
REMARK                         _______ _______ _______ _____ _____    ______ ____
ROOT
ATOM      1  N   UNL     1      -1.251  -3.689   2.927  0.00  0.00    +0.384 N 
ATOM      2  H   UNL     1      -0.997  -3.717   1.951  0.00  0.00    -0.085 HD
ATOM      3  H   UNL     1      -0.971  -4.549   3.373  0.00  0.00    -0.085 HD
ENDROOT
BRANCH   1   4
ATOM      4  C   UNL     1      -0.573  -2.558   3.576  0.00  0.00    -0.046 C 
BRANCH   4  10
ATOM      5  C   UNL     1       1.552  -2.414   2.262  0.00  0.00    -0.063 A 
ATOM      6  C   UNL     1       2.922  -2.564   2.148  0.00  0.00    +0.002 A 
ATOM      7  C   UNL     1       3.657  -3.032   3.220  0.00  0.00    +0.000 A 
ATOM      8  C   UNL     1       3.023  -3.351   4.407  0.00  0.00    +0.000 A 
ATOM      9  C   UNL     1       1.654  -3.200   4.521  0.00  0.00    +0.002 A 
ATOM     10  C   UNL     1       0.919  -2.728   3.450  0.00  0.00    -0.063 A 
BRANCH   5  11
ATOM     11  C   UNL     1       0.750  -1.903   1.093  0.00  0.00    -0.043 C 
BRANCH  11  12
ATOM     12  N   UNL     1       1.662  -1.452   0.033  0.00  0.00    +0.382 N 
ATOM     13  C   UNL     1       2.393  -0.263   0.490  0.00  0.00    -0.095 C 
ATOM     14  H   UNL     1       2.318  -2.188  -0.182  0.00  0.00    -0.081 HD
BRANCH  12  16
ATOM     15  C   UNL     1       1.838  -0.649  -2.274  0.00  0.00    -0.014 C 
ATOM     16  C   UNL     1       0.888  -1.119  -1.170  0.00  0.00    -0.075 C 
ATOM     17  C   UNL     1       0.127  -2.358  -1.646  0.00  0.00    -0.014 C 
ENDBRANCH  12  16
ENDBRANCH  11  12
ENDBRANCH   5  11
ENDBRANCH   4  10
ENDBRANCH   1   4
BRANCH   1  18
ATOM     18  C   UNL     1      -2.705  -3.524   3.050  0.00  0.00    -0.042 C 
BRANCH  18  19
ATOM     19  C   UNL     1      -3.401  -4.683   2.384  0.00  0.00    -0.016 A 
ATOM     20  C   UNL     1      -3.947  -4.680   1.149  0.00  0.00    +0.107 A 
ATOM     21  N   UNL     1      -4.471  -5.904   0.921  0.00  0.00    -0.284 N 
ATOM     22  H   UNL     1      -4.926  -6.186   0.112  0.00  0.00    +0.188 HD
ATOM     23  N   UNL     1      -4.241  -6.696   2.053  0.00  0.00    -0.171 NA
ATOM     24  C   UNL     1      -3.591  -5.966   2.938  0.00  0.00    +0.129 A 
BRANCH  24  25
ATOM     25  C   UNL     1      -3.143  -6.413   4.274  0.00  0.00    +0.156 A 
ATOM     26  C   UNL     1      -3.810  -7.285   5.067  0.00  0.00    +0.060 A 
ATOM     27  C   UNL     1      -3.002  -7.430   6.281  0.00  0.00    +0.021 A 
ATOM     28  C   UNL     1      -3.137  -8.168   7.457  0.00  0.00    +0.011 A 
ATOM     29  C   UNL     1      -2.178  -8.078   8.427  0.00  0.00    +0.001 A 
ATOM     30  C   UNL     1      -1.072  -7.259   8.248  0.00  0.00    +0.004 A 
ATOM     31  C   UNL     1      -0.921  -6.522   7.092  0.00  0.00    +0.047 A 
ATOM     32  C   UNL     1      -1.884  -6.598   6.093  0.00  0.00    +0.136 A 
ATOM     33  O   UNL     1      -2.008  -6.017   4.883  0.00  0.00    -0.453 OA
ENDBRANCH  24  25
ENDBRANCH  18  19
ENDBRANCH   1  18
TORSDOF 8
