REMARK  Name = ZINC12721855
REMARK  8 active torsions:
REMARK  status: ('A' for Active; 'I' for Inactive)
REMARK    1  A    between atoms: C_1  and  C_2
REMARK    2  A    between atoms: C_2  and  C_4
REMARK    3  A    between atoms: C_2  and  S_13
REMARK    4  A    between atoms: N_9  and  C_10
REMARK    5  A    between atoms: S_13  and  C_14
REMARK    6  A    between atoms: N_27  and  C_28
REMARK    7  A    between atoms: C_31  and  O_34
REMARK    8  A    between atoms: O_34  and  C_35
REMARK                            x       y       z     vdW  Elec       q    Type
REMARK                         _______ _______ _______ _____ _____    ______ ____
ROOT
ATOM      1  C   UNL     1      -1.247   5.765  -4.241  0.00  0.00    +0.178 A 
ATOM      2  N   UNL     1      -1.057   6.191  -2.999  0.00  0.00    -0.215 NA
ATOM      3  C   UNL     1      -1.275   5.324  -2.018  0.00  0.00    +0.117 A 
ATOM      4  C   UNL     1      -1.693   3.989  -2.222  0.00  0.00    +0.076 A 
ATOM      5  C   UNL     1      -1.880   3.187  -1.024  0.00  0.00    -0.023 A 
ATOM      6  C   UNL     1      -1.637   3.798   0.159  0.00  0.00    -0.004 A 
ATOM      7  S   UNL     1      -1.151   5.452  -0.263  0.00  0.00    -0.073 S 
ATOM      8  C   UNL     1      -1.754   3.203   1.528  0.00  0.00    +0.043 C 
ATOM      9  C   UNL     1      -2.553   1.895   1.423  0.00  0.00    +0.005 C 
ATOM     10  C   UNL     1      -1.982   1.066   0.269  0.00  0.00    +0.005 C 
ATOM     11  C   UNL     1      -2.327   1.729  -1.065  0.00  0.00    +0.037 C 
ATOM     12  C   UNL     1      -1.888   3.563  -3.576  0.00  0.00    +0.268 A 
ATOM     13  O   UNL     1      -2.248   2.432  -3.853  0.00  0.00    -0.267 OA
ATOM     14  N   UNL     1      -1.649   4.495  -4.529  0.00  0.00    -0.255 N 
ENDROOT
BRANCH  14  15
ATOM     15  C   UNL     1      -1.824   4.136  -5.874  0.00  0.00    +0.052 A 
ATOM     16  C   UNL     1      -3.059   4.307  -6.484  0.00  0.00    +0.030 A 
ATOM     17  C   UNL     1      -3.229   3.959  -7.809  0.00  0.00    +0.047 A 
ATOM     18  C   UNL     1      -2.168   3.429  -8.528  0.00  0.00    +0.120 A 
ATOM     19  C   UNL     1      -0.934   3.252  -7.918  0.00  0.00    +0.047 A 
ATOM     20  C   UNL     1      -0.762   3.605  -6.594  0.00  0.00    +0.030 A 
BRANCH  18  21
ATOM     21  O   UNL     1      -2.337   3.081  -9.832  0.00  0.00    -0.495 OA
ATOM     22  C   UNL     1      -3.633   3.290 -10.396  0.00  0.00    +0.277 C 
ENDBRANCH  18  21
ENDBRANCH  14  15
BRANCH   1  23
ATOM     23  S   UNL     1      -0.968   6.886  -5.571  0.00  0.00    -0.075 S 
BRANCH  23  25
ATOM     24  C   UNL     1       0.847   8.085  -3.919  0.00  0.00    +0.029 C 
ATOM     25  C   UNL     1      -0.473   8.358  -4.643  0.00  0.00    +0.137 C 
BRANCH  25  26
ATOM     26  C   UNL     1      -0.294   9.515  -5.593  0.00  0.00    +0.233 C 
ATOM     27  O   UNL     1      -0.122   9.307  -6.775  0.00  0.00    -0.274 OA
ATOM     28  N   UNL     1      -0.326  10.779  -5.129  0.00  0.00    -0.239 N 
ATOM     29  C   UNL     1      -0.167  11.813  -5.978  0.00  0.00    +0.306 C 
ATOM     30  O   UNL     1       0.006  11.605  -7.163  0.00  0.00    -0.252 OA
ATOM     31  N   UNL     1      -0.198  13.078  -5.514  0.00  0.00    -0.296 N 
ATOM     32  H   UNL     1      -0.464  10.946  -4.183  0.00  0.00    +0.159 HD
ATOM     33  H   UNL     1      -0.336  13.244  -4.568  0.00  0.00    +0.151 HD
BRANCH  31  34
ATOM     34  C   UNL     1      -0.025  14.202  -6.438  0.00  0.00    +0.075 C 
ATOM     35  C   UNL     1       0.893  15.344  -5.996  0.00  0.00    +0.024 C 
ATOM     36  C   UNL     1      -0.624  15.550  -6.030  0.00  0.00    +0.024 C 
ENDBRANCH  31  34
ENDBRANCH  25  26
ENDBRANCH  23  25
ENDBRANCH   1  23
TORSDOF 6
