REMARK  Name = ZINC38769726
REMARK  9 active torsions:
REMARK  status: ('A' for Active; 'I' for Inactive)
REMARK    1  A    between atoms: C_1  and  C_2
REMARK    2  A    between atoms: C_5  and  N_9
REMARK    3  A    between atoms: C_6  and  C_8
REMARK    4  A    between atoms: C_13  and  C_15
REMARK    5  A    between atoms: C_15  and  C_17
REMARK    6  A    between atoms: C_15  and  S_18
REMARK    7  A    between atoms: S_18  and  C_19
REMARK    8  A    between atoms: C_23  and  C_28
REMARK    9  A    between atoms: N_24  and  C_25
REMARK                            x       y       z     vdW  Elec       q    Type
REMARK                         _______ _______ _______ _____ _____    ______ ____
ROOT
ATOM      1  S   UNL     1      -1.060  -8.921  -3.928  0.00  0.00    -0.106 S 
ENDROOT
BRANCH   1   2
ATOM      2  C   UNL     1      -1.228 -10.713  -3.707  0.00  0.00    +0.238 C 
ATOM      3  N   UNL     1       0.076 -11.317  -3.387  0.00  0.00    -0.237 N 
ATOM      4  N   UNL     1      -0.056 -11.900  -2.121  0.00  0.00    -0.169 NA
ATOM      5  C   UNL     1      -1.260 -11.727  -1.642  0.00  0.00    +0.147 C 
ATOM      6  N   UNL     1      -2.067 -11.011  -2.535  0.00  0.00    -0.282 N 
ATOM      7  H   UNL     1       0.870 -11.312  -3.943  0.00  0.00    +0.171 HD
BRANCH   5   8
ATOM      8  C   UNL     1      -1.690 -12.201  -0.393  0.00  0.00    +0.022 C 
ATOM      9  C   UNL     1      -0.916 -12.834   0.581  0.00  0.00    +0.006 A 
ATOM     10  C   UNL     1       0.450 -13.182   0.635  0.00  0.00    +0.010 A 
ATOM     11  C   UNL     1       0.943 -13.806   1.736  0.00  0.00    +0.001 A 
ATOM     12  C   UNL     1       0.128 -14.116   2.827  0.00  0.00    +0.002 A 
ATOM     13  C   UNL     1      -1.193 -13.811   2.843  0.00  0.00    +0.026 A 
ATOM     14  C   UNL     1      -1.780 -13.159   1.728  0.00  0.00    +0.043 A 
ATOM     15  N   UNL     1      -3.016 -12.761   1.502  0.00  0.00    -0.380 N 
ATOM     16  C   UNL     1      -3.087 -12.128   0.181  0.00  0.00    +0.152 C 
ATOM     17  H   UNL     1      -3.761 -12.867   2.114  0.00  0.00    +0.160 HD
ENDBRANCH   5   8
BRANCH   6  18
ATOM     18  C   UNL     1      -3.468 -10.632  -2.341  0.00  0.00    +0.078 C 
ATOM     19  C   UNL     1      -4.170  -9.910  -3.493  0.00  0.00    +0.024 C 
ATOM     20  C   UNL     1      -3.787  -9.140  -2.228  0.00  0.00    +0.024 C 
ENDBRANCH   6  18
ENDBRANCH   1   2
BRANCH   1  21
ATOM     21  C   UNL     1      -0.335  -8.352  -2.366  0.00  0.00    +0.133 C 
ATOM     22  C   UNL     1       1.070  -8.938  -2.213  0.00  0.00    +0.029 C 
BRANCH  21  27
ATOM     23  N   UNL     1       0.052  -4.160  -0.044  0.00  0.00    -0.269 N 
ATOM     24  C   UNL     1      -0.064  -4.831  -1.208  0.00  0.00    +0.310 C 
ATOM     25  O   UNL     1      -0.104  -4.222  -2.259  0.00  0.00    -0.252 OA
ATOM     26  N   UNL     1      -0.137  -6.177  -1.205  0.00  0.00    -0.239 N 
ATOM     27  C   UNL     1      -0.254  -6.847  -2.369  0.00  0.00    +0.233 C 
ATOM     28  O   UNL     1      -0.293  -6.239  -3.417  0.00  0.00    -0.274 OA
ATOM     29  H   UNL     1       0.148  -4.648   0.789  0.00  0.00    +0.156 HD
ATOM     30  H   UNL     1      -0.105  -6.663  -0.366  0.00  0.00    +0.159 HD
BRANCH  23  35
ATOM     31  C   UNL     1      -0.019   1.512  -0.021  0.00  0.00    +0.044 C 
ATOM     32  C   UNL     1       0.000   0.005  -0.027  0.00  0.00    -0.050 A 
ATOM     33  C   UNL     1       0.581  -0.673  -1.083  0.00  0.00    +0.005 A 
ATOM     34  C   UNL     1       0.600  -2.054  -1.091  0.00  0.00    +0.024 A 
ATOM     35  C   UNL     1       0.035  -2.761  -0.038  0.00  0.00    +0.038 A 
ATOM     36  C   UNL     1      -0.547  -2.077   1.020  0.00  0.00    -0.029 A 
ATOM     37  C   UNL     1      -0.559  -0.696   1.025  0.00  0.00    +0.008 A 
ATOM     38  C   UNL     1      -1.162  -2.841   2.165  0.00  0.00    +0.045 C 
ENDBRANCH  23  35
ENDBRANCH  21  27
ENDBRANCH   1  21
TORSDOF 6
