REMARK  Name = ZINC39674245
REMARK  7 active torsions:
REMARK  status: ('A' for Active; 'I' for Inactive)
REMARK    1  A    between atoms: C_1  and  C_2
REMARK    2  A    between atoms: C_4  and  C_9
REMARK    3  A    between atoms: C_5  and  C_8
REMARK    4  A    between atoms: C_9  and  C_11
REMARK    5  A    between atoms: C_9  and  N_12
REMARK    6  A    between atoms: C_13  and  C_15
REMARK    7  A    between atoms: C_26  and  C_28
REMARK                            x       y       z     vdW  Elec       q    Type
REMARK                         _______ _______ _______ _____ _____    ______ ____
ROOT
ATOM      1  C   UNL     1      -2.557  -1.599  -5.206  0.00  0.00    +0.100 C 
ATOM      2  C   UNL     1      -3.450  -2.736  -4.660  0.00  0.00    +0.121 C 
ATOM      3  N   UNL     1      -4.219  -3.207  -5.836  0.00  0.00    -0.296 N 
ATOM      4  C   UNL     1      -3.243  -3.174  -6.951  0.00  0.00    +0.115 C 
ATOM      5  C   UNL     1      -2.423  -1.891  -6.710  0.00  0.00    -0.004 C 
ATOM      6  C   UNL     1      -0.960  -2.124  -7.074  0.00  0.00    -0.010 C 
ATOM      7  C   UNL     1      -0.845  -2.354  -8.584  0.00  0.00    -0.082 C 
ATOM      8  N   UNL     1      -1.368  -1.185  -9.300  0.00  0.00    +0.379 N 
ATOM      9  C   UNL     1      -2.799  -1.023  -9.017  0.00  0.00    -0.082 C 
ATOM     10  C   UNL     1      -2.997  -0.737  -7.526  0.00  0.00    -0.010 C 
ATOM     11  C   UNL     1      -5.513  -3.579  -5.882  0.00  0.00    +0.247 C 
ATOM     12  O   UNL     1      -6.219  -3.446  -4.901  0.00  0.00    -0.270 OA
ATOM     13  H   UNL     1      -0.872  -0.359  -9.001  0.00  0.00    -0.086 HD
ATOM     14  H   UNL     1      -1.235  -1.312 -10.292  0.00  0.00    -0.086 HD
ENDROOT
BRANCH  11  15
ATOM     15  C   UNL     1      -6.075  -4.150  -7.125  0.00  0.00    +0.042 A 
ATOM     16  C   UNL     1      -5.228  -4.709  -8.084  0.00  0.00    +0.051 A 
ATOM     17  C   UNL     1      -5.759  -5.241  -9.244  0.00  0.00    +0.127 A 
ATOM     18  C   UNL     1      -7.128  -5.220  -9.456  0.00  0.00    +0.076 A 
ATOM     19  C   UNL     1      -7.972  -4.667  -8.507  0.00  0.00    +0.127 A 
ATOM     20  C   UNL     1      -7.453  -4.137  -7.341  0.00  0.00    +0.051 A 
ATOM     21  F   UNL     1      -9.306  -4.650  -8.720  0.00  0.00    -0.205 F 
ATOM     22  F   UNL     1      -4.941  -5.782 -10.173  0.00  0.00    -0.205 F 
ENDBRANCH  11  15
BRANCH   1  24
ATOM     23  N   UNL     1      -0.459  -0.509  -4.482  0.00  0.00    -0.309 N 
ATOM     24  C   UNL     1      -1.205  -1.630  -4.543  0.00  0.00    +0.219 C 
ATOM     25  O   UNL     1      -0.787  -2.663  -4.063  0.00  0.00    -0.275 OA
ATOM     26  H   UNL     1      -0.792   0.317  -4.865  0.00  0.00    +0.149 HD
BRANCH  23  27
ATOM     27  C   UNL     1       0.856  -0.538  -3.837  0.00  0.00    +0.100 C 
ATOM     28  C   UNL     1       1.908  -1.008  -4.844  0.00  0.00    +0.033 C 
BRANCH  27  31
ATOM     29  C   UNL     1       2.228   2.066  -5.289  0.00  0.00    +0.039 C 
ATOM     30  C   UNL     1       1.218   2.140  -4.142  0.00  0.00    +0.154 C 
ATOM     31  C   UNL     1       1.208   0.844  -3.351  0.00  0.00    -0.001 C 
ATOM     32  C   UNL     1       1.584   1.214  -2.124  0.00  0.00    +0.063 C 
ATOM     33  N   UNL     1       1.815   2.544  -2.073  0.00  0.00    -0.159 NA
ATOM     34  N   UNL     1       1.636   3.139  -3.143  0.00  0.00    -0.180 NA
ATOM     35  C   UNL     1       1.730   0.274  -0.955  0.00  0.00    +0.067 C 
ENDBRANCH  27  31
ENDBRANCH  23  27
ENDBRANCH   1  24
TORSDOF 4
