REMARK  Name = ZINC04820863
REMARK  4 active torsions:
REMARK  status: ('A' for Active; 'I' for Inactive)
REMARK    1  A    between atoms: C_3  and  N_9
REMARK    2  A    between atoms: C_6  and  C_7
REMARK    3  A    between atoms: C_10  and  C_12
REMARK    4  A    between atoms: N_17  and  C_19
REMARK                            x       y       z     vdW  Elec       q    Type
REMARK                         _______ _______ _______ _____ _____    ______ ____
ROOT
ATOM      1  N   UNL     1       1.018   3.011  -2.124  0.00  0.00    -0.285 N 
ATOM      2  C   UNL     1      -0.188   2.983  -1.522  0.00  0.00    +0.222 C 
ATOM      3  O   UNL     1      -0.809   4.012  -1.361  0.00  0.00    -0.275 OA
ATOM      4  H   UNL     1       1.548   2.201  -2.184  0.00  0.00    +0.155 HD
ENDROOT
BRANCH   1   7
ATOM      5  C   UNL     1       3.350   5.646  -3.166  0.00  0.00    +0.017 A 
ATOM      6  C   UNL     1       2.868   4.469  -2.638  0.00  0.00    +0.024 A 
ATOM      7  C   UNL     1       1.502   4.204  -2.658  0.00  0.00    +0.033 A 
ATOM      8  C   UNL     1       0.620   5.124  -3.216  0.00  0.00    +0.024 A 
ATOM      9  C   UNL     1       1.094   6.305  -3.739  0.00  0.00    +0.017 A 
ATOM     10  C   UNL     1       2.466   6.575  -3.721  0.00  0.00    +0.063 A 
BRANCH  10  11
ATOM     11  C   UNL     1       2.978   7.836  -4.288  0.00  0.00    +0.387 C 
ATOM     12  O   UNL     1       4.171   8.069  -4.272  0.00  0.00    -0.241 OA
ATOM     13  O   UNL     1       2.124   8.731  -4.823  0.00  0.00    -0.241 OA
ENDBRANCH  10  11
ENDBRANCH   1   7
BRANCH   2  14
ATOM     14  C   UNL     1      -0.764   1.673  -1.050  0.00  0.00    +0.102 C 
ATOM     15  C   UNL     1       0.143   1.022   0.019  0.00  0.00    +0.110 C 
ATOM     16  C   UNL     1      -0.426   1.504   1.336  0.00  0.00    +0.221 C 
ATOM     17  O   UNL     1       0.150   1.455   2.402  0.00  0.00    -0.275 OA
ATOM     18  N   UNL     1      -1.668   1.993   1.148  0.00  0.00    -0.271 N 
ATOM     19  C   UNL     1      -2.072   1.897  -0.260  0.00  0.00    +0.127 C 
BRANCH  18  20
ATOM     20  C   UNL     1      -2.468   2.526   2.165  0.00  0.00    +0.036 A 
ATOM     21  C   UNL     1      -3.735   3.013   1.870  0.00  0.00    +0.025 A 
ATOM     22  C   UNL     1      -4.525   3.533   2.877  0.00  0.00    +0.022 A 
ATOM     23  C   UNL     1      -4.051   3.579   4.176  0.00  0.00    +0.041 A 
ATOM     24  C   UNL     1      -2.787   3.099   4.471  0.00  0.00    +0.022 A 
ATOM     25  C   UNL     1      -1.995   2.573   3.470  0.00  0.00    +0.025 A 
ATOM     26 CL   UNL     1      -5.043   4.239   5.438  0.00  0.00    -0.084 Cl
ENDBRANCH  18  20
ENDBRANCH   2  14
TORSDOF 4
