REMARK  Name = ZINC03237179
REMARK  7 active torsions:
REMARK  status: ('A' for Active; 'I' for Inactive)
REMARK    1  A    between atoms: C_2  and  C_3
REMARK    2  A    between atoms: C_3  and  N_4
REMARK    3  A    between atoms: N_4  and  C_5
REMARK    4  A    between atoms: C_6  and  C_19
REMARK    5  A    between atoms: C_7  and  N_18
REMARK    6  A    between atoms: C_8  and  C_10
REMARK    7  A    between atoms: C_10  and  C_12
REMARK                            x       y       z     vdW  Elec       q    Type
REMARK                         _______ _______ _______ _____ _____    ______ ____
ROOT
ATOM      1  C   UNL     1      -2.683  -2.710  -1.660  0.00  0.00    +0.078 A 
ATOM      2  C   UNL     1      -2.993  -3.716  -2.572  0.00  0.00    +0.057 A 
ATOM      3  C   UNL     1      -4.183  -4.411  -2.394  0.00  0.00    +0.054 A 
ATOM      4  C   UNL     1      -4.953  -4.018  -1.297  0.00  0.00    +0.082 A 
ATOM      5  S   UNL     1      -3.971  -2.715  -0.583  0.00  0.00    -0.068 S 
ENDROOT
BRANCH   2   6
ATOM      6  C   UNL     1      -2.090  -4.032  -3.691  0.00  0.00    +0.114 A 
ATOM      7  N   UNL     1      -1.663  -5.209  -4.103  0.00  0.00    -0.239 NA
ATOM      8  C   UNL     1      -0.829  -5.349  -5.153  0.00  0.00    +0.079 A 
ATOM      9  C   UNL     1      -0.299  -6.544  -5.693  0.00  0.00    +0.029 A 
ATOM     10  C   UNL     1       0.544  -6.511  -6.773  0.00  0.00    +0.002 A 
ATOM     11  C   UNL     1       0.907  -5.314  -7.373  0.00  0.00    +0.001 A 
ATOM     12  C   UNL     1       0.408  -4.126  -6.871  0.00  0.00    +0.017 A 
ATOM     13  C   UNL     1      -0.437  -4.149  -5.790  0.00  0.00    +0.040 A 
ATOM     14  S   UNL     1      -1.298  -2.917  -4.842  0.00  0.00    -0.067 S 
ENDBRANCH   2   6
BRANCH   3  15
ATOM     15  N   UNL     1      -4.581  -5.429  -3.249  0.00  0.00    -0.356 N 
ATOM     16  H   UNL     1      -3.987  -5.728  -3.955  0.00  0.00    +0.142 HD
ATOM     17  H   UNL     1      -5.452  -5.841  -3.140  0.00  0.00    +0.142 HD
ENDBRANCH   3  15
BRANCH   1  18
ATOM     18  N   UNL     1      -1.570  -1.900  -1.642  0.00  0.00    -0.334 N 
ATOM     19  H   UNL     1      -0.889  -1.996  -2.326  0.00  0.00    +0.147 HD
BRANCH  18  20
ATOM     20  C   UNL     1      -1.413  -0.894  -0.589  0.00  0.00    +0.129 C 
BRANCH  20  22
ATOM     21  C   UNL     1      -0.126   1.159  -0.887  0.00  0.00    +0.005 C 
ATOM     22  C   UNL     1      -0.120  -0.147  -0.796  0.00  0.00    -0.016 C 
ENDBRANCH  20  22
ENDBRANCH  18  20
ENDBRANCH   1  18
BRANCH   4  23
ATOM     23  C   UNL     1      -6.191  -4.527  -0.862  0.00  0.00    +0.202 C 
ATOM     24  O   UNL     1      -6.668  -5.511  -1.401  0.00  0.00    -0.286 OA
BRANCH  23  25
ATOM     25  C   UNL     1      -6.912  -3.867   0.249  0.00  0.00    +0.023 A 
ATOM     26  C   UNL     1      -6.670  -2.525   0.543  0.00  0.00    +0.012 A 
ATOM     27  C   UNL     1      -7.346  -1.916   1.580  0.00  0.00    +0.001 A 
ATOM     28  C   UNL     1      -8.263  -2.634   2.328  0.00  0.00    +0.000 A 
ATOM     29  C   UNL     1      -8.508  -3.965   2.041  0.00  0.00    +0.001 A 
ATOM     30  C   UNL     1      -7.843  -4.584   1.003  0.00  0.00    +0.012 A 
ENDBRANCH  23  25
ENDBRANCH   4  23
TORSDOF 7
