REMARK  Name = ZINC38141157
REMARK  14 active torsions:
REMARK  status: ('A' for Active; 'I' for Inactive)
REMARK    1  A    between atoms: C_1  and  C_2
REMARK    2  A    between atoms: C_2  and  C_3
REMARK    3  A    between atoms: C_3  and  C_4
REMARK    4  A    between atoms: C_4  and  N_5
REMARK    5  A    between atoms: N_10  and  C_13
REMARK    6  A    between atoms: C_13  and  C_14
REMARK    7  A    between atoms: N_16  and  C_17
REMARK    8  A    between atoms: C_17  and  C_18
REMARK    9  A    between atoms: C_21  and  C_24
REMARK   10  A    between atoms: N_25  and  C_30
REMARK   11  A    between atoms: C_26  and  C_28
REMARK   12  A    between atoms: C_28  and  O_29
REMARK   13  A    between atoms: C_30  and  C_31
REMARK   14  A    between atoms: C_31  and  C_32
REMARK                            x       y       z     vdW  Elec       q    Type
REMARK                         _______ _______ _______ _____ _____    ______ ____
ROOT
ATOM      1  N   UNL     1       1.425  -2.500  -2.470  0.00  0.00    -0.276 N 
ATOM      2  C   UNL     1       0.704  -2.728  -3.632  0.00  0.00    +0.169 A 
ATOM      3  C   UNL     1       1.377  -3.176  -4.761  0.00  0.00    +0.152 A 
ATOM      4  C   UNL     1       2.772  -3.385  -4.694  0.00  0.00    +0.283 A 
ATOM      5  O   UNL     1       3.384  -3.776  -5.671  0.00  0.00    -0.265 OA
ATOM      6  N   UNL     1       3.418  -3.144  -3.534  0.00  0.00    -0.250 N 
ATOM      7  C   UNL     1       2.755  -2.706  -2.450  0.00  0.00    +0.334 A 
ATOM      8  O   UNL     1       3.372  -2.495  -1.423  0.00  0.00    -0.246 OA
ATOM      9  N   UNL     1       0.423  -3.315  -5.750  0.00  0.00    -0.320 N 
ATOM     10  C   UNL     1      -0.758  -2.960  -5.209  0.00  0.00    +0.138 A 
ATOM     11  N   UNL     1      -0.586  -2.614  -3.958  0.00  0.00    -0.212 NA
ENDROOT
BRANCH   1  12
ATOM     12  C   UNL     1       0.739  -2.027  -1.265  0.00  0.00    +0.128 C 
BRANCH  12  13
ATOM     13  C   UNL     1       0.718  -0.497  -1.257  0.00  0.00    +0.021 C 
BRANCH  13  15
ATOM     14  C   UNL     1      -0.019   1.526   0.010  0.00  0.00    +0.004 C 
ATOM     15  C   UNL     1       0.002  -0.004   0.002  0.00  0.00    -0.002 C 
ENDBRANCH  13  15
ENDBRANCH  12  13
ENDBRANCH   1  12
BRANCH   6  16
ATOM     16  C   UNL     1       4.865  -3.359  -3.457  0.00  0.00    +0.225 C 
BRANCH  16  17
ATOM     17  C   UNL     1       5.582  -2.087  -3.832  0.00  0.00    +0.233 C 
ATOM     18  O   UNL     1       4.947  -1.099  -4.134  0.00  0.00    -0.274 OA
ATOM     19  N   UNL     1       6.929  -2.048  -3.832  0.00  0.00    -0.310 N 
ATOM     20  H   UNL     1       7.437  -2.838  -3.590  0.00  0.00    +0.149 HD
BRANCH  19  21
ATOM     21  C   UNL     1       7.626  -0.812  -4.197  0.00  0.00    +0.139 C 
BRANCH  21  22
ATOM     22  C   UNL     1       9.115  -1.032  -4.117  0.00  0.00    -0.030 A 
ATOM     23  C   UNL     1       9.786  -0.795  -2.933  0.00  0.00    +0.005 A 
ATOM     24  C   UNL     1      11.152  -0.997  -2.860  0.00  0.00    +0.003 A 
ATOM     25  C   UNL     1      11.846  -1.437  -3.971  0.00  0.00    -0.050 A 
ATOM     26  C   UNL     1      11.174  -1.676  -5.156  0.00  0.00    +0.003 A 
ATOM     27  C   UNL     1       9.808  -1.478  -5.227  0.00  0.00    +0.005 A 
ATOM     28  C   UNL     1      13.335  -1.657  -3.892  0.00  0.00    +0.044 C 
ENDBRANCH  21  22
ENDBRANCH  19  21
ENDBRANCH  16  17
ENDBRANCH   6  16
BRANCH  10  29
ATOM     29  C   UNL     1      -2.079  -2.959  -5.935  0.00  0.00    +0.230 C 
BRANCH  29  30
ATOM     30  O   UNL     1      -2.706  -4.234  -5.784  0.00  0.00    -0.387 OA
ATOM     31  H   UNL     1      -3.563  -4.306  -6.226  0.00  0.00    +0.210 HD
ENDBRANCH  29  30
ENDBRANCH  10  29
BRANCH   9  32
ATOM     32  C   UNL     1       0.653  -3.763  -7.125  0.00  0.00    +0.123 C 
BRANCH  32  33
ATOM     33  C   UNL     1       0.509  -5.284  -7.197  0.00  0.00    +0.018 C 
ATOM     34  C   UNL     1       0.749  -5.752  -8.634  0.00  0.00    +0.005 C 
ENDBRANCH  32  33
ENDBRANCH   9  32
TORSDOF 11
