REMARK  Name = ZINC39164354
REMARK  5 active torsions:
REMARK  status: ('A' for Active; 'I' for Inactive)
REMARK    1  A    between atoms: C_1  and  C_2
REMARK    2  A    between atoms: C_8  and  S_19
REMARK    3  A    between atoms: N_10  and  C_13
REMARK    4  A    between atoms: S_19  and  C_20
REMARK    5  A    between atoms: C_20  and  C_21
REMARK                            x       y       z     vdW  Elec       q    Type
REMARK                         _______ _______ _______ _____ _____    ______ ____
ROOT
ATOM      1  C   UNL     1       0.955  -0.061  -0.996  0.00  0.00    +0.024 C 
ATOM      2  C   UNL     1      -0.147   0.799  -1.618  0.00  0.00    +0.073 C 
ATOM      3  C   UNL     1      -1.504   0.129  -1.484  0.00  0.00    +0.003 C 
ATOM      4  C   UNL     1      -2.230   0.001  -2.579  0.00  0.00    +0.066 C 
ATOM      5  C   UNL     1      -1.663   0.555  -3.854  0.00  0.00    +0.107 C 
ATOM      6  N   UNL     1      -2.353   0.713  -4.925  0.00  0.00    -0.243 NA
ATOM      7  C   UNL     1      -3.795   0.454  -4.896  0.00  0.00    +0.260 C 
ATOM      8  N   UNL     1      -4.210  -0.484  -3.869  0.00  0.00    -0.236 N 
ATOM      9  C   UNL     1      -3.564  -0.674  -2.696  0.00  0.00    +0.255 C 
ATOM     10  O   UNL     1      -4.032  -1.347  -1.798  0.00  0.00    -0.269 OA
ATOM     11  S   UNL     1       0.029   0.881  -3.452  0.00  0.00    -0.098 S 
ENDROOT
BRANCH   8  12
ATOM     12  C   UNL     1      -5.359  -1.244  -4.108  0.00  0.00    +0.039 A 
ATOM     13  C   UNL     1      -6.598  -0.788  -3.675  0.00  0.00    +0.023 A 
ATOM     14  C   UNL     1      -7.731  -1.542  -3.914  0.00  0.00    +0.002 A 
ATOM     15  C   UNL     1      -7.633  -2.748  -4.582  0.00  0.00    +0.000 A 
ATOM     16  C   UNL     1      -6.401  -3.205  -5.014  0.00  0.00    +0.002 A 
ATOM     17  C   UNL     1      -5.265  -2.454  -4.784  0.00  0.00    +0.023 A 
ENDBRANCH   8  12
BRANCH   7  18
ATOM     18  S   UNL     1      -4.658   2.025  -4.620  0.00  0.00    -0.109 S 
BRANCH  18  19
ATOM     19  C   UNL     1      -4.024   2.600  -3.021  0.00  0.00    +0.130 C 
BRANCH  19  20
ATOM     20  C   UNL     1      -4.669   3.915  -2.668  0.00  0.00    +0.077 A 
ATOM     21  C   UNL     1      -5.855   4.078  -1.946  0.00  0.00    +0.097 A 
ATOM     22  C   UNL     1      -6.098   5.412  -1.840  0.00  0.00    +0.266 A 
ATOM     23  N   UNL     1      -5.097   6.061  -2.474  0.00  0.00    -0.243 N 
ATOM     24  N   UNL     1      -4.212   5.101  -2.979  0.00  0.00    -0.175 NA
ATOM     25  O   UNL     1      -7.155   5.986  -1.210  0.00  0.00    -0.266 OA
ATOM     26  H   UNL     1      -5.006   7.023  -2.560  0.00  0.00    +0.192 HD
ENDBRANCH  19  20
ENDBRANCH  18  19
ENDBRANCH   7  18
TORSDOF 4
