REMARK  Name = ZINC36637981
REMARK  12 active torsions:
REMARK  status: ('A' for Active; 'I' for Inactive)
REMARK    1  A    between atoms: C_1  and  C_2
REMARK    2  A    between atoms: C_2  and  N_3
REMARK    3  A    between atoms: N_3  and  C_4
REMARK    4  A    between atoms: N_3  and  C_6
REMARK    5  A    between atoms: C_4  and  C_5
REMARK    6  A    between atoms: C_6  and  C_7
REMARK    7  A    between atoms: C_7  and  N_8
REMARK    8  A    between atoms: C_12  and  O_18
REMARK    9  A    between atoms: O_18  and  C_19
REMARK   10  A    between atoms: C_20  and  C_22
REMARK   11  A    between atoms: C_25  and  S_28
REMARK   12  A    between atoms: S_28  and  N_31
REMARK                            x       y       z     vdW  Elec       q    Type
REMARK                         _______ _______ _______ _____ _____    ______ ____
ROOT
ATOM      1  N   UNL     1      -1.484  -3.391  -1.720  0.00  0.00    -0.248 N 
ATOM      2  C   UNL     1      -1.723  -4.048  -0.524  0.00  0.00    +0.168 A 
ATOM      3  N   UNL     1      -1.678  -5.334  -0.268  0.00  0.00    -0.221 NA
ATOM      4  C   UNL     1      -1.937  -5.839   0.958  0.00  0.00    +0.122 A 
ATOM      5  C   UNL     1      -1.924  -7.197   1.367  0.00  0.00    +0.146 A 
ATOM      6  C   UNL     1      -2.215  -7.542   2.665  0.00  0.00    +0.048 A 
ATOM      7  C   UNL     1      -2.531  -6.581   3.615  0.00  0.00    +0.005 A 
ATOM      8  C   UNL     1      -2.553  -5.248   3.250  0.00  0.00    +0.017 A 
ATOM      9  C   UNL     1      -2.263  -4.893   1.954  0.00  0.00    +0.044 A 
ATOM     10  S   UNL     1      -2.164  -3.358   1.064  0.00  0.00    -0.052 S 
ATOM     11  C   UNL     1      -1.159  -4.096  -2.823  0.00  0.00    +0.252 C 
ATOM     12  O   UNL     1      -1.134  -5.311  -2.782  0.00  0.00    -0.270 OA
ENDROOT
BRANCH  11  13
ATOM     13  C   UNL     1      -0.834  -3.392  -4.081  0.00  0.00    +0.037 A 
ATOM     14  C   UNL     1       0.097  -2.352  -4.082  0.00  0.00    +0.015 A 
ATOM     15  C   UNL     1       0.396  -1.699  -5.260  0.00  0.00    +0.029 A 
ATOM     16  C   UNL     1      -0.225  -2.073  -6.438  0.00  0.00    +0.106 A 
ATOM     17  C   UNL     1      -1.149  -3.103  -6.444  0.00  0.00    +0.029 A 
ATOM     18  C   UNL     1      -1.453  -3.768  -5.274  0.00  0.00    +0.015 A 
BRANCH  16  19
ATOM     19  S   UNL     1       0.162  -1.233  -7.938  0.00  0.00    +0.061 S 
ATOM     20  O   UNL     1      -0.954  -1.406  -8.800  0.00  0.00    -0.153 OA
ATOM     21  O   UNL     1       0.649   0.050  -7.571  0.00  0.00    -0.153 OA
BRANCH  19  22
ATOM     22  N   UNL     1       1.429  -2.038  -8.637  0.00  0.00    -0.177 NA
ATOM     23  C   UNL     1       2.816  -1.667  -8.324  0.00  0.00    +0.109 C 
ATOM     24  C   UNL     1       3.570  -2.919  -7.865  0.00  0.00    +0.017 C 
ATOM     25  C   UNL     1       3.437  -4.009  -8.930  0.00  0.00    +0.003 C 
ATOM     26  C   UNL     1       1.961  -4.373  -9.108  0.00  0.00    +0.017 C 
ATOM     27  C   UNL     1       1.188  -3.141  -9.577  0.00  0.00    +0.109 C 
ENDBRANCH  19  22
ENDBRANCH  16  19
ENDBRANCH  11  13
BRANCH   5  28
ATOM     28  O   UNL     1      -1.620  -8.168   0.465  0.00  0.00    -0.493 OA
ATOM     29  C   UNL     1      -1.623  -9.517   0.937  0.00  0.00    +0.277 C 
ENDBRANCH   5  28
BRANCH   1  30
ATOM     30  C   UNL     1      -1.584  -1.931  -1.788  0.00  0.00    +0.097 C 
BRANCH  30  31
ATOM     31  C   UNL     1      -0.337  -1.306  -1.159  0.00  0.00    -0.059 C 
BRANCH  31  32
ATOM     32  N   UNL     1      -0.364   0.149  -1.361  0.00  0.00    +0.380 N 
ATOM     33  H   UNL     1      -0.463   0.350  -2.345  0.00  0.00    -0.082 HD
BRANCH  32  35
ATOM     34  C   UNL     1      -1.613   2.216  -0.951  0.00  0.00    -0.017 C 
ATOM     35  C   UNL     1      -1.499   0.724  -0.628  0.00  0.00    -0.082 C 
ENDBRANCH  32  35
BRANCH  32  36
ATOM     36  C   UNL     1       0.888   0.736  -0.865  0.00  0.00    -0.082 C 
ATOM     37  C   UNL     1       2.056   0.245  -1.722  0.00  0.00    -0.017 C 
ENDBRANCH  32  36
ENDBRANCH  31  32
ENDBRANCH  30  31
ENDBRANCH   1  30
TORSDOF 9
