REMARK  Name = ZINC59515826
REMARK  3 active torsions:
REMARK  status: ('A' for Active; 'I' for Inactive)
REMARK    1  A    between atoms: N_6  and  N_7
REMARK    2  A    between atoms: C_8  and  C_10
REMARK    3  A    between atoms: N_12  and  C_13
REMARK                            x       y       z     vdW  Elec       q    Type
REMARK                         _______ _______ _______ _____ _____    ______ ____
ROOT
ATOM      1  N   UNL     1       1.835  -2.957   0.059  0.00  0.00    -0.199 N 
ATOM      2  C   UNL     1       2.167  -4.155   0.580  0.00  0.00    +0.318 C 
ATOM      3  O   UNL     1       3.199  -4.279   1.208  0.00  0.00    -0.263 OA
ATOM      4  H   UNL     1       1.011  -2.857  -0.443  0.00  0.00    +0.178 HD
ENDROOT
BRANCH   1  10
ATOM      5  C   UNL     1       0.133   1.494  -0.781  0.00  0.00    +0.000 C 
ATOM      6  C   UNL     1       1.527   2.123  -0.622  0.00  0.00    +0.000 C 
ATOM      7  C   UNL     1       2.329   1.560   0.525  0.00  0.00    +0.006 C 
ATOM      8  C   UNL     1       3.224   0.414  -0.018  0.00  0.00    +0.052 C 
ATOM      9  C   UNL     1       2.420  -0.744  -0.337  0.00  0.00    +0.037 C 
ATOM     10  N   UNL     1       2.680  -1.855   0.243  0.00  0.00    -0.189 NA
ATOM     11  C   UNL     1       1.276  -0.691  -1.336  0.00  0.00    +0.052 C 
ATOM     12  C   UNL     1       0.121  -0.027  -0.630  0.00  0.00    +0.006 C 
ENDBRANCH   1  10
BRANCH   2  13
ATOM     13  C   UNL     1       1.267  -5.329   0.383  0.00  0.00    +0.301 C 
ATOM     14  O   UNL     1       0.236  -5.205  -0.245  0.00  0.00    -0.265 OA
ATOM     15  N   UNL     1       1.599  -6.527   0.903  0.00  0.00    -0.305 N 
ATOM     16  H   UNL     1       2.422  -6.627   1.405  0.00  0.00    +0.149 HD
BRANCH  15  17
ATOM     17  C   UNL     1       0.715  -7.680   0.711  0.00  0.00    +0.073 C 
ATOM     18  C   UNL     1      -0.370  -7.676   1.790  0.00  0.00    +0.022 C 
ATOM     19  C   UNL     1      -1.293  -8.880   1.588  0.00  0.00    +0.002 C 
ATOM     20  C   UNL     1      -0.478 -10.171   1.689  0.00  0.00    +0.000 C 
ATOM     21  C   UNL     1       0.607 -10.174   0.611  0.00  0.00    +0.002 C 
ATOM     22  C   UNL     1       1.530  -8.970   0.812  0.00  0.00    +0.022 C 
ENDBRANCH  15  17
ENDBRANCH   2  13
TORSDOF 3
