REMARK  Name = ZINC10698658
REMARK  12 active torsions:
REMARK  status: ('A' for Active; 'I' for Inactive)
REMARK    1  A    between atoms: C_1  and  C_2
REMARK    2  A    between atoms: C_4  and  C_13
REMARK    3  A    between atoms: C_5  and  C_12
REMARK    4  A    between atoms: C_14  and  C_15
REMARK    5  A    between atoms: C_15  and  O_17
REMARK    6  A    between atoms: O_17  and  C_18
REMARK    7  A    between atoms: C_18  and  C_20
REMARK    8  A    between atoms: C_18  and  C_21
REMARK    9  A    between atoms: N_26  and  C_27
REMARK   10  A    between atoms: C_27  and  C_28
REMARK   11  A    between atoms: C_27  and  C_29
REMARK   12  A    between atoms: C_27  and  C_30
REMARK                            x       y       z     vdW  Elec       q    Type
REMARK                         _______ _______ _______ _____ _____    ______ ____
ROOT
ATOM      1  C   UNL     1       3.514   4.812  -0.006  0.00  0.00    +0.333 C 
ATOM      2  O   UNL     1       2.703   5.719   0.006  0.00  0.00    -0.246 OA
ENDROOT
BRANCH   1   4
ATOM      3  C   UNL     1       1.748   3.191   0.002  0.00  0.00    +0.016 C 
ATOM      4  C   UNL     1       3.073   3.469  -0.009  0.00  0.00    +0.092 C 
BRANCH   3   8
ATOM      5  C   UNL     1       1.708  -1.907  -0.025  0.00  0.00    +0.064 C 
ATOM      6  C   UNL     1       1.292  -0.458  -0.013  0.00  0.00    +0.023 A 
ATOM      7  C   UNL     1       2.130   0.592  -0.015  0.00  0.00    +0.031 A 
ATOM      8  C   UNL     1       1.291   1.798  -0.001  0.00  0.00    -0.004 A 
ATOM      9  C   UNL     1      -0.016   1.352   0.009  0.00  0.00    +0.030 A 
ATOM     10  N   UNL     1       0.002  -0.004   0.002  0.00  0.00    -0.296 N 
ATOM     11  C   UNL     1      -1.129  -0.817   0.009  0.00  0.00    +0.178 A 
ATOM     12  N   UNL     1      -2.400  -0.467   0.029  0.00  0.00    -0.231 NA
ATOM     13  C   UNL     1      -3.358  -1.372   0.028  0.00  0.00    +0.121 A 
ATOM     14  C   UNL     1      -3.009  -2.683   0.018  0.00  0.00    +0.068 A 
ATOM     15  S   UNL     1      -1.227  -2.551   0.001  0.00  0.00    -0.058 S 
ATOM     16  C   UNL     1      -1.248   2.221   0.020  0.00  0.00    +0.064 C 
ENDBRANCH   3   8
ENDBRANCH   1   4
BRANCH   1  17
ATOM     17  O   UNL     1       4.835   5.089  -0.018  0.00  0.00    -0.449 OA
BRANCH  17  18
ATOM     18  C   UNL     1       5.209   6.468  -0.014  0.00  0.00    +0.259 C 
ATOM     19  C   UNL     1       5.356   6.953   1.429  0.00  0.00    +0.062 C 
BRANCH  18  20
ATOM     20  C   UNL     1       6.521   6.635  -0.736  0.00  0.00    +0.261 C 
ATOM     21  O   UNL     1       7.081   5.668  -1.207  0.00  0.00    -0.271 OA
ATOM     22  N   UNL     1       7.073   7.858  -0.858  0.00  0.00    -0.237 N 
ATOM     23  C   UNL     1       8.246   8.007  -1.504  0.00  0.00    +0.306 C 
ATOM     24  O   UNL     1       8.807   7.038  -1.976  0.00  0.00    -0.252 OA
ATOM     25  N   UNL     1       8.798   9.231  -1.626  0.00  0.00    -0.294 N 
ATOM     26  H   UNL     1       6.565   8.736  -0.431  0.00  0.00    +0.159 HD
ATOM     27  H   UNL     1       8.290  10.108  -1.199  0.00  0.00    +0.151 HD
BRANCH  25  28
ATOM     28  C   UNL     1      10.074   9.393  -2.328  0.00  0.00    +0.028 C 
ATOM     29  C   UNL     1       9.927   8.908  -3.772  0.00  0.00    +0.031 C 
ATOM     30  C   UNL     1      10.474  10.869  -2.324  0.00  0.00    +0.031 C 
ATOM     31  C   UNL     1      11.153   8.570  -1.621  0.00  0.00    +0.031 C 
ENDBRANCH  25  28
ENDBRANCH  18  20
ENDBRANCH  17  18
ENDBRANCH   1  17
TORSDOF 6
