REMARK  Name = ZINC46577763
REMARK  5 active torsions:
REMARK  status: ('A' for Active; 'I' for Inactive)
REMARK    1  A    between atoms: C_3  and  C_6
REMARK    2  A    between atoms: C_8  and  C_11
REMARK    3  A    between atoms: C_11  and  N_12
REMARK    4  A    between atoms: N_12  and  C_13
REMARK    5  A    between atoms: C_16  and  N_19
REMARK                            x       y       z     vdW  Elec       q    Type
REMARK                         _______ _______ _______ _____ _____    ______ ____
ROOT
ATOM      1  N   UNL     1       7.779   1.178  -1.457  0.00  0.00    -0.335 N 
ATOM      2  H   UNL     1       7.175   1.390  -2.186  0.00  0.00    +0.147 HD
ENDROOT
BRANCH   1   3
ATOM      3  C   UNL     1       9.076   0.735  -1.731  0.00  0.00    +0.028 A 
ATOM      4  C   UNL     1       9.940   0.426  -0.688  0.00  0.00    +0.025 A 
ATOM      5  C   UNL     1      11.220  -0.013  -0.959  0.00  0.00    +0.030 A 
ATOM      6  C   UNL     1      11.645  -0.146  -2.274  0.00  0.00    +0.069 A 
ATOM      7  C   UNL     1      10.782   0.163  -3.317  0.00  0.00    +0.030 A 
ATOM      8  C   UNL     1       9.500   0.596  -3.047  0.00  0.00    +0.025 A 
BRANCH   6   9
ATOM      9  N   UNL     1      12.947  -0.592  -2.550  0.00  0.00    -0.200 N 
ATOM     10  C   UNL     1      13.514  -0.769  -3.762  0.00  0.00    +0.250 A 
ATOM     11  N   UNL     1      14.734  -1.194  -3.562  0.00  0.00    -0.116 NA
ATOM     12  N   UNL     1      14.977  -1.298  -2.306  0.00  0.00    -0.023 NA
ATOM     13  N   UNL     1      13.943  -0.944  -1.622  0.00  0.00    -0.039 NA
ENDBRANCH   6   9
ENDBRANCH   1   3
BRANCH   1  14
ATOM     14  C   UNL     1       7.333   1.324  -0.070  0.00  0.00    +0.200 C 
BRANCH  14  17
ATOM     15  C   UNL     1       3.738   1.826  -0.024  0.00  0.00    +0.209 A 
ATOM     16  N   UNL     1       4.846   1.060  -0.044  0.00  0.00    -0.190 NA
ATOM     17  C   UNL     1       5.908   1.813  -0.049  0.00  0.00    +0.245 A 
ATOM     18  O   UNL     1       5.522   3.095  -0.032  0.00  0.00    -0.336 OA
ATOM     19  N   UNL     1       4.102   3.087  -0.022  0.00  0.00    -0.055 NA
BRANCH  15  22
ATOM     20  C   UNL     1      -0.016   1.355   0.009  0.00  0.00    +0.008 A 
ATOM     21  C   UNL     1       1.176   2.042   0.002  0.00  0.00    +0.019 A 
ATOM     22  C   UNL     1       2.346   1.330  -0.013  0.00  0.00    +0.060 A 
ATOM     23  S   UNL     1       1.753  -0.354  -0.017  0.00  0.00    -0.093 S 
ATOM     24  C   UNL     1       0.002  -0.004   0.002  0.00  0.00    +0.046 A 
ENDBRANCH  15  22
ENDBRANCH  14  17
ENDBRANCH   1  14
TORSDOF 5
