REMARK  Name = ZINC47968318
REMARK  4 active torsions:
REMARK  status: ('A' for Active; 'I' for Inactive)
REMARK    1  A    between atoms: C_3  and  C_6
REMARK    2  A    between atoms: C_6  and  C_8
REMARK    3  A    between atoms: C_6  and  N_18
REMARK    4  A    between atoms: C_19  and  C_21
REMARK                            x       y       z     vdW  Elec       q    Type
REMARK                         _______ _______ _______ _____ _____    ______ ____
ROOT
ATOM      1  C   UNL     1       3.761   1.845  -0.024  0.00  0.00    +0.141 C 
ENDROOT
BRANCH   1   2
ATOM      2  C   UNL     1       4.330   1.776   1.369  0.00  0.00    -0.022 A 
ATOM      3  C   UNL     1       4.809   0.577   1.864  0.00  0.00    +0.006 A 
ATOM      4  C   UNL     1       5.326   0.521   3.142  0.00  0.00    +0.004 A 
ATOM      5  C   UNL     1       5.372   1.660   3.935  0.00  0.00    -0.044 A 
ATOM      6  C   UNL     1       4.901   2.855   3.440  0.00  0.00    -0.044 A 
ATOM      7  C   UNL     1       4.382   2.910   2.153  0.00  0.00    +0.009 A 
ATOM      8  C   UNL     1       4.934   4.132   4.238  0.00  0.00    +0.035 C 
ATOM      9  C   UNL     1       5.120   3.833   5.724  0.00  0.00    +0.005 C 
ATOM     10  C   UNL     1       6.323   2.895   5.882  0.00  0.00    +0.005 C 
ATOM     11  C   UNL     1       5.942   1.525   5.323  0.00  0.00    +0.035 C 
ENDBRANCH   1   2
BRANCH   1  14
ATOM     12  C   UNL     1      -0.016   1.351   0.009  0.00  0.00    +0.008 A 
ATOM     13  C   UNL     1       1.183   2.038   0.002  0.00  0.00    +0.013 A 
ATOM     14  C   UNL     1       2.343   1.336  -0.013  0.00  0.00    +0.014 A 
ATOM     15  S   UNL     1       1.754  -0.349  -0.017  0.00  0.00    -0.099 S 
ATOM     16  C   UNL     1       0.002  -0.004   0.002  0.00  0.00    +0.045 A 
ENDBRANCH   1  14
BRANCH   1  17
ATOM     17  N   UNL     1       4.569   1.019  -0.924  0.00  0.00    -0.296 N 
ATOM     18  C   UNL     1       4.598   1.290  -2.244  0.00  0.00    +0.300 C 
ATOM     19  O   UNL     1       3.954   2.219  -2.687  0.00  0.00    -0.265 OA
ATOM     20  H   UNL     1       5.084   0.277  -0.570  0.00  0.00    +0.150 HD
BRANCH  18  21
ATOM     21  C   UNL     1       5.423   0.449  -3.161  0.00  0.00    +0.305 C 
ATOM     22  O   UNL     1       6.066  -0.480  -2.718  0.00  0.00    -0.265 OA
ATOM     23  N   UNL     1       5.451   0.720  -4.481  0.00  0.00    -0.257 N 
ATOM     24  C   UNL     1       6.217  -0.063  -5.334  0.00  0.00    +0.165 A 
ATOM     25  N   UNL     1       6.967  -1.103  -5.037  0.00  0.00    -0.233 NA
ATOM     26  C   UNL     1       7.641  -1.747  -5.970  0.00  0.00    +0.120 A 
ATOM     27  C   UNL     1       7.523  -1.289  -7.242  0.00  0.00    +0.068 A 
ATOM     28  S   UNL     1       6.407   0.083  -7.000  0.00  0.00    -0.061 S 
ATOM     29  H   UNL     1       4.937   1.462  -4.835  0.00  0.00    +0.157 HD
ENDBRANCH  18  21
ENDBRANCH   1  17
TORSDOF 4
