REMARK  Name = ZINC39466619
REMARK  6 active torsions:
REMARK  status: ('A' for Active; 'I' for Inactive)
REMARK    1  A    between atoms: C_1  and  S_2
REMARK    2  A    between atoms: S_2  and  C_3
REMARK    3  A    between atoms: P_12  and  C_28
REMARK    4  A    between atoms: C_20  and  C_21
REMARK    5  A    between atoms: C_26  and  O_27
REMARK    6  A    between atoms: C_28  and  C_29
REMARK                            x       y       z     vdW  Elec       q    Type
REMARK                         _______ _______ _______ _____ _____    ______ ____
ROOT
ATOM      1  C   UNL     1      -1.702  -0.454   0.016  0.00  0.00    +0.012 C 
ATOM      2  C   UNL     1      -2.646   0.492   0.024  0.00  0.00    -0.008 C 
ATOM      3  C   UNL     1      -4.102   0.091   0.026  0.00  0.00    +0.017 C 
ATOM      4  C   UNL     1      -4.511  -0.269   1.455  0.00  0.00    -0.003 C 
ATOM      5  C   UNL     1      -5.947  -0.806   1.486  0.00  0.00    -0.020 C 
ATOM      6  C   UNL     1      -6.270  -1.146   2.947  0.00  0.00    +0.156 C 
ATOM      7  O   UNL     1      -7.629  -1.607   3.044  0.00  0.00    -0.319 OA
ATOM      8  P   UNL     1      -8.104  -2.780   2.022  0.00  0.00    +0.262 P 
ATOM      9  O   UNL     1      -9.576  -2.761   1.866  0.00  0.00    -0.274 OA
ATOM     10  N   UNL     1      -7.372  -2.425   0.586  0.00  0.00    -0.291 NA
ATOM     11  N   UNL     1      -6.065  -1.986   0.627  0.00  0.00    +0.397 N 
ATOM     12  C   UNL     1      -5.711  -1.647  -0.761  0.00  0.00    -0.046 C 
ATOM     13  C   UNL     1      -4.279  -1.138  -0.871  0.00  0.00    +0.005 C 
ATOM     14  C   UNL     1      -3.326  -2.219  -0.434  0.00  0.00    -0.015 C 
ATOM     15  C   UNL     1      -2.096  -1.883   0.012  0.00  0.00    -0.005 C 
ATOM     16  H   UNL     1      -7.844  -2.524  -0.256  0.00  0.00    +0.111 HD
ATOM     17  H   UNL     1      -5.466  -2.720   0.973  0.00  0.00    -0.055 HD
ENDROOT
BRANCH  15  18
ATOM     18  C   UNL     1      -1.145  -2.925   0.469  0.00  0.00    +0.024 A 
ATOM     19  C   UNL     1      -0.503  -3.741  -0.460  0.00  0.00    +0.012 A 
ATOM     20  C   UNL     1       0.382  -4.709  -0.030  0.00  0.00    +0.001 A 
ATOM     21  C   UNL     1       0.632  -4.874   1.321  0.00  0.00    +0.004 A 
ATOM     22  C   UNL     1       0.000  -4.070   2.251  0.00  0.00    +0.046 A 
ATOM     23  C   UNL     1      -0.885  -3.089   1.833  0.00  0.00    +0.125 A 
BRANCH  23  24
ATOM     24  O   UNL     1      -1.502  -2.294   2.745  0.00  0.00    -0.506 OA
ATOM     25  H   UNL     1      -2.345  -2.645   3.066  0.00  0.00    +0.292 HD
ENDBRANCH  23  24
ENDBRANCH  15  18
BRANCH   1  27
ATOM     26  C   UNL     1      -0.022   1.810   0.012  0.00  0.00    +0.090 C 
ATOM     27  S   UNL     1       0.002  -0.004   0.002  0.00  0.00    -0.128 S 
ENDBRANCH   1  27
BRANCH   8  28
ATOM     28  C   UNL     1      -7.555  -4.409   2.629  0.00  0.00    +0.147 C 
BRANCH  28  29
ATOM     29  C   UNL     1      -8.156  -4.667   3.987  0.00  0.00    -0.037 A 
ATOM     30  C   UNL     1      -7.484  -4.267   5.127  0.00  0.00    +0.004 A 
ATOM     31  C   UNL     1      -8.035  -4.504   6.373  0.00  0.00    +0.000 A 
ATOM     32  C   UNL     1      -9.258  -5.140   6.478  0.00  0.00    +0.000 A 
ATOM     33  C   UNL     1      -9.930  -5.539   5.338  0.00  0.00    +0.000 A 
ATOM     34  C   UNL     1      -9.381  -5.298   4.092  0.00  0.00    +0.004 A 
ENDBRANCH  28  29
ENDBRANCH   8  28
TORSDOF 5
