REMARK  Name = ZINC15557675
REMARK  8 active torsions:
REMARK  status: ('A' for Active; 'I' for Inactive)
REMARK    1  A    between atoms: C_1  and  C_2
REMARK    2  A    between atoms: C_7  and  N_8
REMARK    3  A    between atoms: C_9  and  C_11
REMARK    4  A    between atoms: C_11  and  N_12
REMARK    5  A    between atoms: N_12  and  C_13
REMARK    6  A    between atoms: C_14  and  C_16
REMARK    7  A    between atoms: C_16  and  C_17
REMARK    8  A    between atoms: C_17  and  C_18
REMARK                            x       y       z     vdW  Elec       q    Type
REMARK                         _______ _______ _______ _____ _____    ______ ____
ROOT
ATOM      1  N   UNL     1       0.002  -0.004   0.018  0.00  0.00    -0.296 N 
ATOM      2  C   UNL     1      -0.011  -0.731  -1.253  0.00  0.00    +0.132 C 
ATOM      3  C   UNL     1       0.031  -0.683   1.183  0.00  0.00    +0.216 C 
ATOM      4  O   UNL     1       0.041  -0.081   2.235  0.00  0.00    -0.276 OA
ENDROOT
BRANCH   1   5
ATOM      5  C   UNL     1      -0.018   1.461   0.025  0.00  0.00    +0.203 C 
BRANCH   5   7
ATOM      6  N   UNL     1       1.624   3.311   0.004  0.00  0.00    -0.284 N 
ATOM      7  C   UNL     1       1.396   1.982   0.003  0.00  0.00    +0.235 C 
ATOM      8  O   UNL     1       2.328   1.207  -0.017  0.00  0.00    -0.274 OA
ATOM      9  H   UNL     1       0.881   3.931  -0.061  0.00  0.00    +0.155 HD
BRANCH   6  16
ATOM     10  C   UNL     1       2.182   5.893  -1.051  0.00  0.00    +0.046 C 
ATOM     11  C   UNL     1       3.249   5.051  -0.402  0.00  0.00    -0.028 A 
ATOM     12  C   UNL     1       4.541   5.529  -0.302  0.00  0.00    +0.020 A 
ATOM     13  C   UNL     1       5.523   4.753   0.288  0.00  0.00    +0.018 A 
ATOM     14  C   UNL     1       5.213   3.499   0.785  0.00  0.00    +0.017 A 
ATOM     15  C   UNL     1       3.921   3.019   0.693  0.00  0.00    +0.024 A 
ATOM     16  C   UNL     1       2.934   3.795   0.100  0.00  0.00    +0.036 A 
ATOM     17 BR   UNL     1       7.293   5.408   0.417  0.00  0.00    -0.050 Br
ENDBRANCH   6  16
ENDBRANCH   5   7
ENDBRANCH   1   5
BRANCH   3  18
ATOM     18  C   UNL     1       0.051  -2.189   1.176  0.00  0.00    +0.100 C 
BRANCH  18  19
ATOM     19  C   UNL     1       0.083  -2.706   2.616  0.00  0.00    +0.046 C 
BRANCH  19  20
ATOM     20  C   UNL     1       0.103  -4.213   2.609  0.00  0.00    -0.022 A 
ATOM     21  C   UNL     1      -0.958  -5.026   2.724  0.00  0.00    +0.087 A 
ATOM     22  N   UNL     1      -0.553  -6.332   2.672  0.00  0.00    -0.360 N 
ATOM     23  H   UNL     1      -1.142  -7.101   2.733  0.00  0.00    +0.165 HD
ATOM     24  C   UNL     1       0.815  -6.393   2.528  0.00  0.00    +0.047 A 
ATOM     25  C   UNL     1       1.286  -5.068   2.482  0.00  0.00    +0.003 A 
ATOM     26  C   UNL     1       2.652  -4.819   2.337  0.00  0.00    +0.010 A 
ATOM     27  C   UNL     1       3.526  -5.866   2.242  0.00  0.00    +0.001 A 
ATOM     28  C   UNL     1       3.066  -7.174   2.287  0.00  0.00    +0.002 A 
ATOM     29  C   UNL     1       1.722  -7.442   2.429  0.00  0.00    +0.026 A 
ENDBRANCH  19  20
ENDBRANCH  18  19
ENDBRANCH   3  18
TORSDOF 6
