REMARK  Name = ZINC67308467
REMARK  7 active torsions:
REMARK  status: ('A' for Active; 'I' for Inactive)
REMARK    1  A    between atoms: C_1  and  N_2
REMARK    2  A    between atoms: N_2  and  C_3
REMARK    3  A    between atoms: C_3  and  C_4
REMARK    4  A    between atoms: N_11  and  C_12
REMARK    5  A    between atoms: C_15  and  N_18
REMARK    6  A    between atoms: C_19  and  C_21
REMARK    7  A    between atoms: C_21  and  N_22
REMARK                            x       y       z     vdW  Elec       q    Type
REMARK                         _______ _______ _______ _____ _____    ______ ____
ROOT
ATOM      1  C   UNL     1       0.001  -0.601  -3.594  0.00  0.00    +0.035 A 
ATOM      2  C   UNL     1      -0.545   0.037  -4.700  0.00  0.00    +0.025 A 
ATOM      3  C   UNL     1      -0.489  -0.565  -5.941  0.00  0.00    +0.025 A 
ATOM      4  C   UNL     1       0.113  -1.808  -6.083  0.00  0.00    +0.033 A 
ATOM      5  C   UNL     1       0.659  -2.446  -4.977  0.00  0.00    +0.025 A 
ATOM      6  C   UNL     1       0.608  -1.841  -3.737  0.00  0.00    +0.025 A 
ENDROOT
BRANCH   1  11
ATOM      7  C   UNL     1      -0.170   1.404   0.040  0.00  0.00    +0.134 C 
ATOM      8  N   UNL     1       0.952   0.522  -0.292  0.00  0.00    -0.281 N 
ATOM      9  C   UNL     1       0.964  -0.140  -1.466  0.00  0.00    +0.307 C 
ATOM     10  O   UNL     1       1.894  -0.872  -1.742  0.00  0.00    -0.252 OA
ATOM     11  N   UNL     1      -0.056   0.010  -2.334  0.00  0.00    -0.269 N 
ATOM     12  H   UNL     1      -0.830   0.541  -2.087  0.00  0.00    +0.156 HD
BRANCH   8  13
ATOM     13  C   UNL     1       2.060   0.359   0.652  0.00  0.00    +0.183 C 
BRANCH  13  14
ATOM     14  C   UNL     1       1.762  -0.787   1.583  0.00  0.00    +0.122 A 
ATOM     15  C   UNL     1       2.100  -2.073   1.381  0.00  0.00    +0.046 A 
ATOM     16  C   UNL     1       1.628  -2.801   2.497  0.00  0.00    +0.041 A 
ATOM     17  C   UNL     1       1.031  -1.917   3.316  0.00  0.00    +0.195 A 
ATOM     18  O   UNL     1       1.121  -0.697   2.760  0.00  0.00    -0.466 OA
ENDBRANCH  13  14
ENDBRANCH   8  13
ENDBRANCH   1  11
BRANCH   4  19
ATOM     19  N   UNL     1       0.169  -2.420  -7.343  0.00  0.00    -0.287 N 
ATOM     20  C   UNL     1       0.329  -1.668  -8.450  0.00  0.00    +0.201 C 
ATOM     21  O   UNL     1       0.340  -0.458  -8.365  0.00  0.00    -0.278 OA
ATOM     22  H   UNL     1       0.093  -3.384  -7.418  0.00  0.00    +0.155 HD
BRANCH  20  23
ATOM     23  C   UNL     1       0.494  -2.331  -9.793  0.00  0.00    +0.019 C 
BRANCH  23  24
ATOM     24  N   UNL     1       0.650  -1.303 -10.831  0.00  0.00    +0.385 N 
ATOM     25  C   UNL     1       1.895  -0.559 -10.597  0.00  0.00    -0.078 C 
ATOM     26  C   UNL     1       2.276   0.241 -11.841  0.00  0.00    -0.019 C 
ATOM     27  C   UNL     1       1.395   1.492 -11.932  0.00  0.00    -0.002 C 
ATOM     28  C   UNL     1      -0.003   1.073 -12.391  0.00  0.00    -0.000 C 
ATOM     29  C   UNL     1       0.127   0.060 -13.530  0.00  0.00    -0.002 C 
ATOM     30  C   UNL     1      -0.367  -1.306 -13.060  0.00  0.00    -0.019 C 
ATOM     31  C   UNL     1       0.690  -1.946 -12.152  0.00  0.00    -0.078 C 
ATOM     32  H   UNL     1      -0.132  -0.666 -10.792  0.00  0.00    -0.081 HD
ENDBRANCH  23  24
ENDBRANCH  20  23
ENDBRANCH   4  19
TORSDOF 6
