REMARK  Name = ZINC59015215
REMARK  6 active torsions:
REMARK  status: ('A' for Active; 'I' for Inactive)
REMARK    1  A    between atoms: C_6  and  C_7
REMARK    2  A    between atoms: N_8  and  N_9
REMARK    3  A    between atoms: C_12  and  S_15
REMARK    4  A    between atoms: S_15  and  C_16
REMARK    5  A    between atoms: C_16  and  C_17
REMARK    6  A    between atoms: N_19  and  C_20
REMARK                            x       y       z     vdW  Elec       q    Type
REMARK                         _______ _______ _______ _____ _____    ______ ____
ROOT
ATOM      1  N   UNL     1      -2.440  -2.780   0.076  0.00  0.00    -0.205 N 
ATOM      2  C   UNL     1      -2.418  -4.162   0.059  0.00  0.00    +0.232 A 
ATOM      3  N   UNL     1      -1.341  -4.920   0.041  0.00  0.00    -0.186 NA
ATOM      4  C   UNL     1      -1.698  -6.208   0.028  0.00  0.00    +0.211 A 
ATOM      5  N   UNL     1      -3.007  -6.289   0.038  0.00  0.00    -0.144 NA
ATOM      6  N   UNL     1      -3.498  -4.973   0.063  0.00  0.00    -0.245 N 
ATOM      7  H   UNL     1      -3.287  -2.308   0.093  0.00  0.00    +0.177 HD
ATOM      8  H   UNL     1      -4.429  -4.701   0.079  0.00  0.00    +0.192 HD
ENDROOT
BRANCH   1  10
ATOM      9  C   UNL     1      -1.258  -0.762   0.085  0.00  0.00    +0.138 C 
ATOM     10  N   UNL     1      -1.238  -2.060   0.069  0.00  0.00    -0.188 NA
BRANCH   9  16
ATOM     11  C   UNL     1      -0.011   1.392   0.095  0.00  0.00    +0.011 A 
ATOM     12  C   UNL     1       1.175   2.094   0.088  0.00  0.00    +0.020 A 
ATOM     13  C   UNL     1       2.384   1.417   0.064  0.00  0.00    +0.041 A 
ATOM     14  C   UNL     1       2.409   0.033   0.046  0.00  0.00    +0.020 A 
ATOM     15  C   UNL     1       1.229  -0.681   0.052  0.00  0.00    +0.011 A 
ATOM     16  C   UNL     1       0.007  -0.005   0.077  0.00  0.00    -0.005 A 
ATOM     17 CL   UNL     1       3.873   2.309   0.055  0.00  0.00    -0.084 Cl
ENDBRANCH   9  16
ENDBRANCH   1  10
BRANCH   4  18
ATOM     18  S   UNL     1      -0.588  -7.577   0.001  0.00  0.00    -0.075 S 
BRANCH  18  19
ATOM     19  C   UNL     1      -1.679  -9.026  -0.007  0.00  0.00    +0.173 C 
BRANCH  19  20
ATOM     20  C   UNL     1      -0.847 -10.282  -0.029  0.00  0.00    +0.228 C 
ATOM     21  O   UNL     1       0.364 -10.207  -0.039  0.00  0.00    -0.275 OA
ATOM     22  N   UNL     1      -1.447 -11.489  -0.039  0.00  0.00    -0.284 N 
ATOM     23  H   UNL     1      -2.412 -11.551   0.034  0.00  0.00    +0.155 HD
BRANCH  22  24
ATOM     24  C   UNL     1      -0.677 -12.652  -0.155  0.00  0.00    +0.053 A 
ATOM     25  C   UNL     1       0.580 -12.715   0.430  0.00  0.00    +0.044 A 
ATOM     26  C   UNL     1       1.338 -13.866   0.314  0.00  0.00    +0.043 A 
ATOM     27  C   UNL     1       0.843 -14.954  -0.383  0.00  0.00    +0.021 A 
ATOM     28  C   UNL     1      -0.409 -14.894  -0.967  0.00  0.00    +0.023 A 
ATOM     29  C   UNL     1      -1.173 -13.749  -0.850  0.00  0.00    +0.062 A 
ATOM     30 CL   UNL     1      -2.748 -13.677  -1.577  0.00  0.00    -0.082 Cl
ATOM     31 CL   UNL     1       2.911 -13.946   1.044  0.00  0.00    -0.083 Cl
ENDBRANCH  22  24
ENDBRANCH  19  20
ENDBRANCH  18  19
ENDBRANCH   4  18
TORSDOF 6
