REMARK  Name = ZINC00998839
REMARK  7 active torsions:
REMARK  status: ('A' for Active; 'I' for Inactive)
REMARK    1  A    between atoms: C_1  and  C_2
REMARK    2  A    between atoms: C_5  and  C_8
REMARK    3  A    between atoms: C_11  and  C_30
REMARK    4  A    between atoms: C_16  and  C_18
REMARK    5  A    between atoms: N_20  and  C_21
REMARK    6  A    between atoms: C_21  and  C_22
REMARK    7  A    between atoms: C_22  and  C_23
REMARK                            x       y       z     vdW  Elec       q    Type
REMARK                         _______ _______ _______ _____ _____    ______ ____
ROOT
ATOM      1  C   UNL     1       0.059  -4.275  -0.021  0.00  0.00    +0.104 C 
ATOM      2  C   UNL     1       1.487  -4.773   0.228  0.00  0.00    +0.063 C 
ATOM      3  C   UNL     1       1.527  -6.304   0.153  0.00  0.00    +0.215 C 
ATOM      4  N   UNL     1       0.462  -6.848   0.999  0.00  0.00    -0.238 N 
ATOM      5  C   UNL     1      -0.621  -6.126   1.413  0.00  0.00    +0.119 A 
ATOM      6  C   UNL     1      -1.394  -6.926   2.173  0.00  0.00    +0.078 A 
ATOM      7  C   UNL     1      -0.769  -8.193   2.232  0.00  0.00    +0.149 A 
ATOM      8  N   UNL     1       0.345  -8.135   1.523  0.00  0.00    -0.164 NA
ATOM      9  N   UNL     1      -0.815  -4.788   1.052  0.00  0.00    -0.322 N 
ATOM     10  H   UNL     1      -1.481  -4.230   1.482  0.00  0.00    +0.148 HD
ENDROOT
BRANCH   1  15
ATOM     11  C   UNL     1      -0.018   1.503   0.010  0.00  0.00    +0.044 C 
ATOM     12  C   UNL     1       0.002  -0.004   0.002  0.00  0.00    -0.050 A 
ATOM     13  C   UNL     1       0.006  -0.689  -1.199  0.00  0.00    +0.004 A 
ATOM     14  C   UNL     1       0.025  -2.071  -1.206  0.00  0.00    +0.006 A 
ATOM     15  C   UNL     1       0.040  -2.768  -0.013  0.00  0.00    -0.027 A 
ATOM     16  C   UNL     1       0.037  -2.084   1.188  0.00  0.00    +0.006 A 
ATOM     17  C   UNL     1       0.023  -0.702   1.195  0.00  0.00    +0.004 A 
ENDBRANCH   1  15
BRANCH   7  18
ATOM     18  C   UNL     1      -1.273  -9.375   2.960  0.00  0.00    +0.264 C 
ATOM     19  O   UNL     1      -2.316  -9.308   3.581  0.00  0.00    -0.268 OA
ATOM     20  N   UNL     1      -0.577 -10.529   2.935  0.00  0.00    -0.310 N 
ATOM     21  H   UNL     1       0.256 -10.583   2.439  0.00  0.00    +0.149 HD
BRANCH  20  22
ATOM     22  C   UNL     1      -1.077 -11.702   3.656  0.00  0.00    +0.109 C 
BRANCH  22  23
ATOM     23  C   UNL     1      -0.106 -12.869   3.467  0.00  0.00    +0.054 C 
BRANCH  23  24
ATOM     24  C   UNL     1      -0.620 -14.076   4.209  0.00  0.00    -0.046 A 
ATOM     25  C   UNL     1      -0.258 -14.283   5.527  0.00  0.00    +0.004 A 
ATOM     26  C   UNL     1      -0.729 -15.390   6.208  0.00  0.00    +0.000 A 
ATOM     27  C   UNL     1      -1.564 -16.289   5.571  0.00  0.00    +0.000 A 
ATOM     28  C   UNL     1      -1.928 -16.081   4.253  0.00  0.00    +0.000 A 
ATOM     29  C   UNL     1      -1.459 -14.972   3.574  0.00  0.00    +0.004 A 
ENDBRANCH  23  24
ENDBRANCH  22  23
ENDBRANCH  20  22
ENDBRANCH   7  18
BRANCH   3  30
ATOM     30  C   UNL     1       2.886  -6.806   0.647  0.00  0.00    +0.412 C 
ATOM     31  F   UNL     1       3.079  -6.400   1.972  0.00  0.00    -0.168 F 
ATOM     32  F   UNL     1       2.920  -8.203   0.577  0.00  0.00    -0.168 F 
ATOM     33  F   UNL     1       3.900  -6.274  -0.157  0.00  0.00    -0.168 F 
ENDBRANCH   3  30
TORSDOF 6
