REMARK  Name = ZINC64174945
REMARK  8 active torsions:
REMARK  status: ('A' for Active; 'I' for Inactive)
REMARK    1  A    between atoms: C_7  and  C_10
REMARK    2  A    between atoms: C_10  and  C_11
REMARK    3  A    between atoms: C_11  and  N_12
REMARK    4  A    between atoms: C_13  and  C_15
REMARK    5  A    between atoms: C_15  and  N_16
REMARK    6  A    between atoms: C_19  and  N_22
REMARK    7  A    between atoms: N_22  and  S_23
REMARK    8  A    between atoms: S_23  and  C_26
REMARK                            x       y       z     vdW  Elec       q    Type
REMARK                         _______ _______ _______ _____ _____    ______ ____
ROOT
ATOM      1  C   UNL     1      -1.752  -6.557  -2.622  0.00  0.00    +0.019 C 
ENDROOT
BRANCH   1   2
ATOM      2  N   UNL     1      -1.976  -7.006  -4.002  0.00  0.00    +0.385 N 
ATOM      3  C   UNL     1      -2.664  -5.950  -4.753  0.00  0.00    -0.077 C 
ATOM      4  C   UNL     1      -2.829  -6.380  -6.212  0.00  0.00    +0.002 C 
ATOM      5  C   UNL     1      -3.654  -7.669  -6.269  0.00  0.00    +0.073 C 
ATOM      6  C   UNL     1      -2.965  -8.742  -5.422  0.00  0.00    +0.002 C 
ATOM      7  C   UNL     1      -2.796  -8.224  -3.992  0.00  0.00    -0.077 C 
ATOM      8  H   UNL     1      -1.089  -7.204  -4.439  0.00  0.00    -0.081 HD
BRANCH   5   9
ATOM      9  N   UNL     1      -3.751  -8.128  -7.657  0.00  0.00    -0.191 NA
ATOM     10  H   UNL     1      -3.004  -8.001  -8.263  0.00  0.00    +0.148 HD
BRANCH   9  11
ATOM     11  S   UNL     1      -5.136  -8.862  -8.191  0.00  0.00    +0.042 S 
ATOM     12  O   UNL     1      -4.872  -9.190  -9.549  0.00  0.00    -0.157 OA
ATOM     13  O   UNL     1      -5.397  -9.882  -7.237  0.00  0.00    -0.157 OA
BRANCH  11  14
ATOM     14  C   UNL     1      -6.412  -7.576  -8.096  0.00  0.00    +0.213 C 
ATOM     15  C   UNL     1      -7.764  -8.072  -8.674  0.00  0.00    +0.066 C 
ATOM     16  C   UNL     1      -8.443  -6.984  -9.441  0.00  0.00    -0.017 C 
ATOM     17  C   UNL     1      -7.750  -5.941  -9.854  0.00  0.00    +0.038 C 
ATOM     18  S   UNL     1      -6.080  -6.206  -9.283  0.00  0.00    -0.105 S 
ENDBRANCH  11  14
ENDBRANCH   9  11
ENDBRANCH   5   9
ENDBRANCH   1   2
BRANCH   1  20
ATOM     19  N   UNL     1      -0.458  -4.798  -1.460  0.00  0.00    -0.317 N 
ATOM     20  C   UNL     1      -0.811  -5.380  -2.623  0.00  0.00    +0.196 C 
ATOM     21  O   UNL     1      -0.371  -4.957  -3.671  0.00  0.00    -0.278 OA
ATOM     22  H   UNL     1      -0.810  -5.136  -0.622  0.00  0.00    +0.149 HD
BRANCH  19  23
ATOM     23  C   UNL     1       0.457  -3.653  -1.462  0.00  0.00    +0.108 C 
BRANCH  23  24
ATOM     24  C   UNL     1       0.691  -3.186  -0.024  0.00  0.00    +0.052 C 
BRANCH  24  31
ATOM     25  C   UNL     1      -0.016   1.348   0.009  0.00  0.00    +0.001 A 
ATOM     26  C   UNL     1       1.166   2.101   0.002  0.00  0.00    +0.002 A 
ATOM     27  C   UNL     1       2.391   1.535  -0.013  0.00  0.00    +0.026 A 
ATOM     28  C   UNL     1       2.529   0.120  -0.022  0.00  0.00    +0.043 A 
ATOM     29  N   UNL     1       3.587  -0.654  -0.037  0.00  0.00    -0.380 N 
ATOM     30  C   UNL     1       3.143  -2.053  -0.041  0.00  0.00    +0.144 C 
ATOM     31  C   UNL     1       1.631  -2.008  -0.025  0.00  0.00    -0.040 C 
ATOM     32  C   UNL     1       1.295  -0.698  -0.014  0.00  0.00    -0.001 A 
ATOM     33  C   UNL     1       0.002  -0.004   0.002  0.00  0.00    +0.010 A 
ATOM     34  H   UNL     1       4.509  -0.353  -0.045  0.00  0.00    +0.160 HD
ENDBRANCH  24  31
ENDBRANCH  23  24
ENDBRANCH  19  23
ENDBRANCH   1  20
TORSDOF 8
