REMARK  Name = ZINC15548701
REMARK  4 active torsions:
REMARK  status: ('A' for Active; 'I' for Inactive)
REMARK    1  A    between atoms: C_3  and  C_6
REMARK    2  A    between atoms: C_15  and  C_16
REMARK    3  A    between atoms: C_15  and  N_54
REMARK    4  A    between atoms: N_18  and  N_19
REMARK                            x       y       z     vdW  Elec       q    Type
REMARK                         _______ _______ _______ _____ _____    ______ ____
ROOT
ATOM      1  C   UNL     1      -1.020   3.469  -0.929  0.00  0.00    +0.213 C 
ATOM      2  O   UNL     1      -0.545   4.035   0.032  0.00  0.00    -0.276 OA
ATOM      3  N   UNL     1      -1.729   4.165  -1.840  0.00  0.00    -0.225 N 
ATOM      4  H   UNL     1      -2.108   3.713  -2.609  0.00  0.00    +0.173 HD
ENDROOT
BRANCH   3   5
ATOM      5  N   UNL     1      -1.917   5.544  -1.675  0.00  0.00    -0.137 N 
ATOM      6  C   UNL     1      -1.269   6.488  -2.388  0.00  0.00    +0.263 C 
ATOM      7  O   UNL     1      -0.445   6.313  -3.260  0.00  0.00    -0.271 OA
ATOM      8  C   UNL     1      -1.788   7.811  -1.871  0.00  0.00    +0.114 C 
ATOM      9  C   UNL     1      -2.478   8.585  -2.989  0.00  0.00    +0.035 C 
ATOM     10  C   UNL     1      -3.020   9.907  -2.440  0.00  0.00    +0.003 C 
ATOM     11  C   UNL     1      -1.865  10.730  -1.864  0.00  0.00    +0.000 C 
ATOM     12  C   UNL     1      -1.200   9.951  -0.728  0.00  0.00    +0.003 C 
ATOM     13  C   UNL     1      -0.650   8.629  -1.270  0.00  0.00    +0.035 C 
ATOM     14  N   UNL     1      -2.755   7.434  -0.833  0.00  0.00    -0.284 N 
ATOM     15  C   UNL     1      -2.767   6.087  -0.794  0.00  0.00    +0.326 C 
ATOM     16  O   UNL     1      -3.467   5.439  -0.042  0.00  0.00    -0.251 OA
ATOM     17  H   UNL     1      -3.284   8.035  -0.286  0.00  0.00    +0.151 HD
ENDBRANCH   3   5
BRANCH   1  18
ATOM     18  C   UNL     1      -0.817   1.986  -1.107  0.00  0.00    +0.021 C 
BRANCH  18  27
ATOM     19  C   UNL     1       0.002  -0.004   0.002  0.00  0.00    +0.002 C 
ATOM     20  C   UNL     1       0.863  -0.486   1.166  0.00  0.00    -0.046 A 
ATOM     21  C   UNL     1       0.812  -1.777   1.687  0.00  0.00    +0.010 A 
ATOM     22  C   UNL     1       1.612  -2.120   2.724  0.00  0.00    +0.045 A 
ATOM     23  S   UNL     1       2.501  -0.599   3.024  0.00  0.00    -0.101 S 
ATOM     24  C   UNL     1       1.744   0.373   1.752  0.00  0.00    -0.010 A 
ATOM     25  C   UNL     1       1.984   1.798   1.375  0.00  0.00    +0.024 C 
ATOM     26  C   UNL     1       1.337   2.035   0.000  0.00  0.00    -0.072 C 
ATOM     27  N   UNL     1      -0.037   1.477   0.038  0.00  0.00    +0.393 N 
ATOM     28  H   UNL     1      -0.491   1.774   0.909  0.00  0.00    -0.080 HD
BRANCH  19  31
ATOM     29  C   UNL     1      -3.307  -1.884  -0.155  0.00  0.00    +0.008 A 
ATOM     30  C   UNL     1      -1.994  -1.581  -0.459  0.00  0.00    +0.010 A 
ATOM     31  C   UNL     1      -1.401  -0.530   0.159  0.00  0.00    -0.019 A 
ATOM     32  S   UNL     1      -2.713   0.065   1.214  0.00  0.00    -0.103 S 
ATOM     33  C   UNL     1      -3.965  -1.121   0.753  0.00  0.00    +0.045 A 
ENDBRANCH  19  31
ENDBRANCH  18  27
ENDBRANCH   1  18
TORSDOF 4
