REMARK  Name = ZINC36571143
REMARK  15 active torsions:
REMARK  status: ('A' for Active; 'I' for Inactive)
REMARK    1  A    between atoms: C_1  and  C_2
REMARK    2  A    between atoms: C_2  and  C_3
REMARK    3  A    between atoms: C_3  and  N_4
REMARK    4  A    between atoms: N_4  and  C_5
REMARK    5  A    between atoms: C_5  and  C_7
REMARK    6  A    between atoms: C_5  and  C_15
REMARK    7  A    between atoms: C_10  and  O_13
REMARK    8  A    between atoms: O_13  and  C_14
REMARK    9  A    between atoms: N_17  and  C_18
REMARK   10  A    between atoms: C_18  and  S_19
REMARK   11  A    between atoms: S_19  and  C_22
REMARK   12  A    between atoms: C_25  and  C_28
REMARK   13  A    between atoms: C_29  and  C_31
REMARK   14  A    between atoms: C_32  and  O_38
REMARK   15  A    between atoms: C_36  and  O_37
REMARK                            x       y       z     vdW  Elec       q    Type
REMARK                         _______ _______ _______ _____ _____    ______ ____
ROOT
ATOM      1  C   UNL     1       1.859  -2.668   0.807  0.00  0.00    +0.192 C 
ENDROOT
BRANCH   1   2
ATOM      2  C   UNL     1       2.702  -1.906   1.797  0.00  0.00    -0.018 A 
ATOM      3  C   UNL     1       2.385  -0.597   2.110  0.00  0.00    +0.009 A 
ATOM      4  C   UNL     1       3.157   0.104   3.016  0.00  0.00    +0.046 A 
ATOM      5  C   UNL     1       4.250  -0.507   3.613  0.00  0.00    +0.120 A 
ATOM      6  C   UNL     1       4.566  -1.821   3.298  0.00  0.00    +0.046 A 
ATOM      7  C   UNL     1       3.788  -2.519   2.395  0.00  0.00    +0.009 A 
BRANCH   5   8
ATOM      8  O   UNL     1       5.011   0.180   4.505  0.00  0.00    -0.495 OA
ATOM      9  C   UNL     1       6.121  -0.512   5.080  0.00  0.00    +0.277 C 
ENDBRANCH   5   8
ENDBRANCH   1   2
BRANCH   1  10
ATOM     10  C   UNL     1       2.553  -2.694  -0.530  0.00  0.00    +0.239 C 
ATOM     11  O   UNL     1       2.628  -1.682  -1.194  0.00  0.00    -0.273 OA
ATOM     12  N   UNL     1       3.091  -3.841  -0.987  0.00  0.00    -0.294 N 
ATOM     13  H   UNL     1       3.032  -4.651  -0.456  0.00  0.00    +0.150 HD
BRANCH  12  14
ATOM     14  C   UNL     1       3.767  -3.866  -2.287  0.00  0.00    +0.278 C 
BRANCH  14  15
ATOM     15  S   UNL     1       5.550  -3.632  -2.047  0.00  0.00    +0.013 S 
ATOM     16  O   UNL     1       6.226  -3.717  -3.294  0.00  0.00    -0.168 OA
ATOM     17  O   UNL     1       5.786  -2.542  -1.167  0.00  0.00    -0.168 OA
BRANCH  15  18
ATOM     18  C   UNL     1       6.076  -5.055  -1.152  0.00  0.00    +0.090 A 
ATOM     19  C   UNL     1       6.064  -5.046   0.231  0.00  0.00    +0.027 A 
ATOM     20  C   UNL     1       6.478  -6.162   0.933  0.00  0.00    +0.005 A 
ATOM     21  C   UNL     1       6.903  -7.288   0.254  0.00  0.00    -0.050 A 
ATOM     22  C   UNL     1       6.914  -7.298  -1.129  0.00  0.00    +0.005 A 
ATOM     23  C   UNL     1       6.497  -6.183  -1.831  0.00  0.00    +0.027 A 
ATOM     24  C   UNL     1       7.354  -8.505   1.020  0.00  0.00    +0.044 C 
ENDBRANCH  15  18
ENDBRANCH  14  15
ENDBRANCH  12  14
ENDBRANCH   1  10
BRANCH   1  25
ATOM     25  N   UNL     1       0.556  -2.012   0.669  0.00  0.00    -0.282 N 
ATOM     26  C   UNL     1      -0.544  -2.579   1.202  0.00  0.00    +0.255 C 
ATOM     27  O   UNL     1      -1.625  -2.034   1.087  0.00  0.00    -0.270 OA
BRANCH  26  28
ATOM     28  C   UNL     1      -0.437  -3.857   1.925  0.00  0.00    +0.119 A 
ATOM     29  C   UNL     1      -0.199  -3.870   3.307  0.00  0.00    +0.133 A 
ATOM     30  C   UNL     1      -0.101  -5.078   3.977  0.00  0.00    +0.046 A 
ATOM     31  C   UNL     1      -0.236  -6.269   3.288  0.00  0.00    +0.007 A 
ATOM     32  C   UNL     1      -0.470  -6.268   1.925  0.00  0.00    +0.046 A 
ATOM     33  C   UNL     1      -0.578  -5.071   1.237  0.00  0.00    +0.133 A 
BRANCH  33  34
ATOM     34  O   UNL     1      -0.814  -5.073  -0.099  0.00  0.00    -0.506 OA
ATOM     35  H   UNL     1      -0.013  -5.088  -0.640  0.00  0.00    +0.292 HD
ENDBRANCH  33  34
BRANCH  29  36
ATOM     36  O   UNL     1      -0.066  -2.702   3.985  0.00  0.00    -0.506 OA
ATOM     37  H   UNL     1      -0.897  -2.351   4.332  0.00  0.00    +0.292 HD
ENDBRANCH  29  36
ENDBRANCH  26  28
BRANCH  25  38
ATOM     38  C   UNL     1       0.450  -0.740  -0.050  0.00  0.00    +0.109 C 
BRANCH  38  40
ATOM     39  C   UNL     1      -0.098   0.324  -2.243  0.00  0.00    +0.005 C 
ATOM     40  C   UNL     1       0.021  -1.005  -1.495  0.00  0.00    +0.016 C 
ENDBRANCH  38  40
ENDBRANCH  25  38
ENDBRANCH   1  25
TORSDOF 12
