REMARK  Name = ZINC07697958
REMARK  9 active torsions:
REMARK  status: ('A' for Active; 'I' for Inactive)
REMARK    1  A    between atoms: C_1  and  C_2
REMARK    2  A    between atoms: C_2  and  O_3
REMARK    3  A    between atoms: O_3  and  C_4
REMARK    4  A    between atoms: C_4  and  C_6
REMARK    5  A    between atoms: C_6  and  C_26
REMARK    6  A    between atoms: C_7  and  N_8
REMARK    7  A    between atoms: N_8  and  C_9
REMARK    8  A    between atoms: C_13  and  S_15
REMARK    9  A    between atoms: S_15  and  N_18
REMARK                            x       y       z     vdW  Elec       q    Type
REMARK                         _______ _______ _______ _____ _____    ______ ____
ROOT
ATOM      1  C   UNL     1       2.290  -5.598  -3.945  0.00  0.00    +0.033 A 
ATOM      2  C   UNL     1       1.755  -6.458  -2.994  0.00  0.00    +0.023 A 
ATOM      3  C   UNL     1       1.864  -7.824  -3.162  0.00  0.00    +0.004 A 
ATOM      4  C   UNL     1       2.505  -8.336  -4.276  0.00  0.00    +0.029 A 
ATOM      5  C   UNL     1       3.039  -7.483  -5.224  0.00  0.00    +0.114 A 
ATOM      6  C   UNL     1       2.928  -6.116  -5.065  0.00  0.00    +0.052 A 
ENDROOT
BRANCH   5   7
ATOM      7  S   UNL     1       3.855  -8.141  -6.640  0.00  0.00    +0.100 S 
ATOM      8  O   UNL     1       4.744  -7.133  -7.102  0.00  0.00    -0.146 OA
ATOM      9  O   UNL     1       4.299  -9.443  -6.285  0.00  0.00    -0.146 OA
BRANCH   7  10
ATOM     10  N   UNL     1       2.708  -8.337  -7.819  0.00  0.00    -0.118 NA
ATOM     11  C   UNL     1       3.043  -8.810  -8.975  0.00  0.00    +0.117 C 
ATOM     12  C   UNL     1       4.495  -9.195  -9.253  0.00  0.00    +0.073 C 
ATOM     13  C   UNL     1       4.547 -10.704  -9.362  0.00  0.00    +0.008 C 
ATOM     14  C   UNL     1       4.286 -11.221 -10.778  0.00  0.00    +0.002 C 
ATOM     15  C   UNL     1       3.133 -10.500 -11.477  0.00  0.00    +0.019 C 
ATOM     16  C   UNL     1       1.938 -10.274 -10.577  0.00  0.00    +0.102 C 
ATOM     17  N   UNL     1       2.132  -8.967  -9.914  0.00  0.00    -0.331 N 
ATOM     18  H   UNL     1       1.580  -8.214 -10.177  0.00  0.00    +0.147 HD
ENDBRANCH   7  10
ENDBRANCH   5   7
BRANCH   1  19
ATOM     19  N   UNL     1       2.181  -4.215  -3.778  0.00  0.00    -0.319 N 
ATOM     20  H   UNL     1       2.551  -3.615  -4.444  0.00  0.00    +0.152 HD
BRANCH  19  22
ATOM     21  C   UNL     1       1.450  -2.345  -2.518  0.00  0.00    +0.149 C 
ATOM     22  C   UNL     1       1.557  -3.710  -2.683  0.00  0.00    +0.098 C 
BRANCH  21  23
ATOM     23  C   UNL     1       0.776  -1.800  -1.335  0.00  0.00    +0.351 C 
ATOM     24  O   UNL     1       0.312  -2.551  -0.499  0.00  0.00    -0.244 OA
BRANCH  23  25
ATOM     25  O   UNL     1       0.671  -0.465  -1.174  0.00  0.00    -0.461 OA
BRANCH  25  27
ATOM     26  C   UNL     1      -0.019   1.526   0.010  0.00  0.00    +0.048 C 
ATOM     27  C   UNL     1       0.002  -0.004   0.002  0.00  0.00    +0.229 C 
ENDBRANCH  25  27
ENDBRANCH  23  25
ENDBRANCH  21  23
BRANCH  21  28
ATOM     28  C   UNL     1       1.996  -1.459  -3.502  0.00  0.00    +0.108 C 
ATOM     29  N   UNL     1       2.430  -0.757  -4.282  0.00  0.00    -0.191 NA
ENDBRANCH  21  28
ENDBRANCH  19  22
ENDBRANCH   1  19
TORSDOF 8
