REMARK  Name = ZINC14460757
REMARK  2 active torsions:
REMARK  status: ('A' for Active; 'I' for Inactive)
REMARK    1  A    between atoms: C_14  and  C_17
REMARK    2  A    between atoms: C_22  and  O_23
REMARK                            x       y       z     vdW  Elec       q    Type
REMARK                         _______ _______ _______ _____ _____    ______ ____
ROOT
ATOM      1  C   UNL     1       1.161  -3.531   1.839  0.00  0.00    +0.000 A 
ATOM      2  C   UNL     1       1.368  -3.708   0.482  0.00  0.00    +0.002 A 
ATOM      3  C   UNL     1       1.734  -2.639  -0.309  0.00  0.00    +0.023 A 
ATOM      4  C   UNL     1       1.898  -1.377   0.249  0.00  0.00    +0.031 A 
ATOM      5  C   UNL     1       1.673  -1.202   1.619  0.00  0.00    -0.019 A 
ATOM      6  C   UNL     1       1.313  -2.278   2.402  0.00  0.00    +0.006 A 
ATOM      7  C   UNL     1       1.835   0.161   2.170  0.00  0.00    +0.049 C 
ATOM      8  C   UNL     1       2.183   0.395   3.595  0.00  0.00    -0.023 C 
ATOM      9  C   UNL     1       2.896   1.512   3.679  0.00  0.00    -0.030 C 
ATOM     10  C   UNL     1       3.111   2.102   2.283  0.00  0.00    +0.033 C 
ATOM     11  C   UNL     1       3.000   0.852   1.400  0.00  0.00    +0.029 C 
ATOM     12  C   UNL     1       2.490   1.047  -0.017  0.00  0.00    +0.108 C 
ATOM     13  N   UNL     1       2.307  -0.313  -0.569  0.00  0.00    -0.336 N 
ATOM     14  H   UNL     1       2.475  -0.471  -1.512  0.00  0.00    +0.147 HD
ENDROOT
BRANCH  12  15
ATOM     15  C   UNL     1       1.175   1.782   0.000  0.00  0.00    +0.015 A 
ATOM     16  C   UNL     1      -0.013   1.076   0.008  0.00  0.00    +0.024 A 
ATOM     17  C   UNL     1      -1.220   1.751   0.017  0.00  0.00    +0.018 A 
ATOM     18  C   UNL     1      -1.242   3.134   0.031  0.00  0.00    +0.019 A 
ATOM     19  C   UNL     1      -0.057   3.844   0.023  0.00  0.00    +0.047 A 
ATOM     20  C   UNL     1       1.155   3.169   0.008  0.00  0.00    +0.122 A 
ATOM     21 BR   UNL     1      -2.844   0.781   0.020  0.00  0.00    -0.050 Br
BRANCH  20  22
ATOM     22  O   UNL     1       2.322   3.866   0.000  0.00  0.00    -0.506 OA
ATOM     23  H   UNL     1       2.651   4.073  -0.885  0.00  0.00    +0.292 HD
ENDBRANCH  20  22
ENDBRANCH  12  15
TORSDOF 2
