REMARK  Name = ZINC32958553
REMARK  6 active torsions:
REMARK  status: ('A' for Active; 'I' for Inactive)
REMARK    1  A    between atoms: C_1  and  C_2
REMARK    2  A    between atoms: C_7  and  S_8
REMARK    3  A    between atoms: S_8  and  N_11
REMARK    4  A    between atoms: C_14  and  C_17
REMARK    5  A    between atoms: N_19  and  C_20
REMARK    6  A    between atoms: C_20  and  C_21
REMARK                            x       y       z     vdW  Elec       q    Type
REMARK                         _______ _______ _______ _____ _____    ______ ____
ROOT
ATOM      1  S   UNL     1      -2.766   3.965  -0.015  0.00  0.00    +0.061 S 
ATOM      2  O   UNL     1      -3.725   3.485   0.918  0.00  0.00    -0.153 OA
ATOM      3  O   UNL     1      -2.251   5.288   0.034  0.00  0.00    -0.153 OA
ENDROOT
BRANCH   1  10
ATOM      4  C   UNL     1      -0.198   4.356  -1.553  0.00  0.00    +0.046 C 
ATOM      5  C   UNL     1      -0.246   3.143  -0.661  0.00  0.00    -0.022 A 
ATOM      6  C   UNL     1       0.843   2.293  -0.593  0.00  0.00    +0.032 A 
ATOM      7  C   UNL     1       0.798   1.182   0.232  0.00  0.00    +0.076 A 
ATOM      8  C   UNL     1      -0.344   0.919   0.987  0.00  0.00    +0.144 A 
ATOM      9  C   UNL     1      -1.432   1.771   0.910  0.00  0.00    +0.076 A 
ATOM     10  C   UNL     1      -1.381   2.880   0.084  0.00  0.00    +0.112 A 
ATOM     11  O   UNL     1      -0.377  -0.176   1.792  0.00  0.00    -0.481 OA
ATOM     12  C   UNL     1       0.346  -1.325   1.345  0.00  0.00    +0.325 C 
ATOM     13  C   UNL     1       1.717  -0.909   0.873  0.00  0.00    +0.255 C 
ATOM     14  O   UNL     1       2.656  -1.667   0.989  0.00  0.00    -0.272 OA
ATOM     15  N   UNL     1       1.894   0.311   0.322  0.00  0.00    -0.280 N 
ATOM     16  H   UNL     1       2.878   0.626  -0.054  0.00  0.00    +0.155 HD
ENDBRANCH   1  10
BRANCH   1  17
ATOM     17  N   UNL     1      -3.433   3.772  -1.519  0.00  0.00    -0.177 NA
ATOM     18  C   UNL     1      -3.069   4.675  -2.620  0.00  0.00    +0.110 C 
ATOM     19  C   UNL     1      -2.600   3.828  -3.812  0.00  0.00    +0.030 C 
ATOM     20  C   UNL     1      -3.686   2.810  -4.167  0.00  0.00    +0.077 C 
ATOM     21  C   UNL     1      -3.922   1.877  -2.977  0.00  0.00    +0.030 C 
ATOM     22  C   UNL     1      -4.403   2.699  -1.776  0.00  0.00    +0.110 C 
BRANCH  20  23
ATOM     23  C   UNL     1      -3.246   2.001  -5.359  0.00  0.00    +0.217 C 
ATOM     24  O   UNL     1      -3.132   0.797  -5.266  0.00  0.00    -0.276 OA
ATOM     25  N   UNL     1      -2.979   2.615  -6.529  0.00  0.00    -0.308 N 
ATOM     26  H   UNL     1      -3.082   3.707  -6.613  0.00  0.00    +0.149 HD
BRANCH  25  27
ATOM     27  C   UNL     1      -2.551   1.828  -7.688  0.00  0.00    +0.178 C 
BRANCH  27  28
ATOM     28  C   UNL     1      -2.318   2.746  -8.860  0.00  0.00    +0.122 A 
ATOM     29  C   UNL     1      -1.156   3.347  -9.170  0.00  0.00    +0.046 A 
ATOM     30  C   UNL     1      -1.388   4.110 -10.338  0.00  0.00    +0.041 A 
ATOM     31  C   UNL     1      -2.678   3.930 -10.671  0.00  0.00    +0.195 A 
ATOM     32  O   UNL     1      -3.236   3.098  -9.776  0.00  0.00    -0.466 OA
ENDBRANCH  27  28
ENDBRANCH  25  27
ENDBRANCH  20  23
ENDBRANCH   1  17
TORSDOF 5
