REMARK  Name = ZINC12687029
REMARK  11 active torsions:
REMARK  status: ('A' for Active; 'I' for Inactive)
REMARK    1  A    between atoms: C_1  and  C_2
REMARK    2  A    between atoms: N_11  and  S_12
REMARK    3  A    between atoms: S_12  and  C_15
REMARK    4  A    between atoms: C_19  and  C_21
REMARK    5  A    between atoms: N_23  and  C_24
REMARK    6  A    between atoms: N_23  and  C_25
REMARK    7  A    between atoms: C_25  and  C_26
REMARK    8  A    between atoms: C_26  and  C_27
REMARK    9  A    between atoms: C_27  and  C_28
REMARK   10  A    between atoms: C_29  and  C_35
REMARK   11  A    between atoms: C_30  and  N_34
REMARK                            x       y       z     vdW  Elec       q    Type
REMARK                         _______ _______ _______ _____ _____    ______ ____
ROOT
ATOM      1  C   UNL     1       2.866   5.293  -1.648  0.00  0.00    +0.109 A 
ATOM      2  C   UNL     1       3.397   4.246  -2.382  0.00  0.00    +0.029 A 
ATOM      3  C   UNL     1       3.239   4.208  -3.756  0.00  0.00    +0.003 A 
ATOM      4  C   UNL     1       2.560   5.219  -4.404  0.00  0.00    +0.013 A 
ATOM      5  C   UNL     1       2.027   6.280  -3.671  0.00  0.00    +0.039 A 
ATOM      6  C   UNL     1       2.185   6.310  -2.284  0.00  0.00    +0.042 A 
ENDROOT
BRANCH   5   7
ATOM      7  C   UNL     1       1.299   7.367  -4.359  0.00  0.00    +0.246 C 
ATOM      8  O   UNL     1       0.385   7.937  -3.796  0.00  0.00    -0.270 OA
ATOM      9  N   UNL     1       1.648   7.726  -5.610  0.00  0.00    -0.301 N 
ATOM     10  C   UNL     1       2.686   6.977  -6.323  0.00  0.00    +0.132 C 
BRANCH   9  11
ATOM     11  C   UNL     1       0.991   8.864  -6.256  0.00  0.00    +0.108 C 
BRANCH  11  12
ATOM     12  C   UNL     1       1.768  10.145  -5.946  0.00  0.00    +0.025 C 
BRANCH  12  13
ATOM     13  C   UNL     1       1.081  11.334  -6.622  0.00  0.00    +0.060 C 
BRANCH  13  14
ATOM     14  C   UNL     1       1.846  12.596  -6.316  0.00  0.00    +0.082 A 
ATOM     15  C   UNL     1       2.907  13.128  -7.085  0.00  0.00    +0.113 A 
ATOM     16  C   UNL     1       3.324  14.295  -6.449  0.00  0.00    +0.129 A 
ATOM     17  N   UNL     1       2.549  14.450  -5.356  0.00  0.00    -0.263 N 
ATOM     18  H   UNL     1       2.613  15.198  -4.695  0.00  0.00    +0.190 HD
ATOM     19  N   UNL     1       1.640  13.388  -5.302  0.00  0.00    -0.176 NA
BRANCH  16  20
ATOM     20  N   UNL     1       4.340  15.136  -6.861  0.00  0.00    -0.342 N 
ATOM     21  H   UNL     1       4.841  14.933  -7.667  0.00  0.00    +0.144 HD
ATOM     22  H   UNL     1       4.553  15.928  -6.344  0.00  0.00    +0.144 HD
ENDBRANCH  16  20
BRANCH  15  23
ATOM     23  C   UNL     1       3.450  12.573  -8.287  0.00  0.00    +0.104 C 
ATOM     24  N   UNL     1       3.881  12.132  -9.242  0.00  0.00    -0.191 NA
ENDBRANCH  15  23
ENDBRANCH  13  14
ENDBRANCH  12  13
ENDBRANCH  11  12
ENDBRANCH   9  11
ENDBRANCH   5   7
BRANCH   1  25
ATOM     25  S   UNL     1       3.068   5.329   0.102  0.00  0.00    +0.075 S 
ATOM     26  O   UNL     1       2.959   6.691   0.495  0.00  0.00    -0.150 OA
ATOM     27  O   UNL     1       4.213   4.541   0.395  0.00  0.00    -0.150 OA
BRANCH  25  37
ATOM     28  C   UNL     1      -0.160   5.811  -0.081  0.00  0.00    +0.030 C 
ATOM     29  C   UNL     1       0.506   5.177   1.143  0.00  0.00    +0.099 C 
ATOM     30  C   UNL     1      -0.369   4.038   1.692  0.00  0.00    +0.061 C 
ATOM     31  C   UNL     1       0.500   2.806   1.583  0.00  0.00    -0.023 A 
ATOM     32  C   UNL     1       0.254   1.490   1.924  0.00  0.00    +0.005 A 
ATOM     33  C   UNL     1       1.223   0.526   1.720  0.00  0.00    +0.000 A 
ATOM     34  C   UNL     1       2.442   0.882   1.172  0.00  0.00    +0.002 A 
ATOM     35  C   UNL     1       2.693   2.193   0.830  0.00  0.00    +0.025 A 
ATOM     36  C   UNL     1       1.719   3.173   1.034  0.00  0.00    +0.055 A 
ATOM     37  N   UNL     1       1.769   4.541   0.761  0.00  0.00    -0.200 N 
ENDBRANCH  25  37
ENDBRANCH   1  25
TORSDOF 9
