REMARK  Name = ZINC04734687
REMARK  5 active torsions:
REMARK  status: ('A' for Active; 'I' for Inactive)
REMARK    1  A    between atoms: C_1  and  N_2
REMARK    2  A    between atoms: C_9  and  C_17
REMARK    3  A    between atoms: C_10  and  C_11
REMARK    4  A    between atoms: N_27  and  C_28
REMARK    5  A    between atoms: C_28  and  C_29
REMARK                            x       y       z     vdW  Elec       q    Type
REMARK                         _______ _______ _______ _____ _____    ______ ____
ROOT
ATOM      1  C   UNL     1       2.249   5.046  -0.151  0.00  0.00    +0.149 C 
ATOM      2  N   UNL     1       1.983   3.608  -0.061  0.00  0.00    -0.343 N 
ATOM      3  C   UNL     1       0.739   3.042   0.109  0.00  0.00    +0.050 A 
ATOM      4  C   UNL     1      -0.541   3.573   0.238  0.00  0.00    +0.026 A 
ATOM      5  C   UNL     1      -1.619   2.730   0.400  0.00  0.00    +0.002 A 
ATOM      6  C   UNL     1      -1.444   1.353   0.430  0.00  0.00    +0.001 A 
ATOM      7  C   UNL     1      -0.196   0.810   0.311  0.00  0.00    +0.010 A 
ATOM      8  C   UNL     1       0.912   1.646   0.146  0.00  0.00    +0.006 A 
ATOM      9  C   UNL     1       2.346   1.407  -0.013  0.00  0.00    +0.011 A 
ATOM     10  C   UNL     1       2.938   2.621  -0.133  0.00  0.00    +0.055 A 
ENDROOT
BRANCH   9  11
ATOM     11  C   UNL     1       3.034   0.066  -0.039  0.00  0.00    +0.141 C 
ATOM     12  C   UNL     1       2.771  -0.626  -1.353  0.00  0.00    -0.010 A 
ATOM     13  C   UNL     1       3.053  -0.304  -2.661  0.00  0.00    +0.006 A 
ATOM     14  C   UNL     1       2.677  -1.162  -3.680  0.00  0.00    +0.000 A 
ATOM     15  C   UNL     1       2.018  -2.344  -3.388  0.00  0.00    +0.001 A 
ATOM     16  C   UNL     1       1.731  -2.676  -2.081  0.00  0.00    +0.013 A 
ATOM     17  C   UNL     1       2.107  -1.816  -1.047  0.00  0.00    +0.042 A 
ATOM     18  C   UNL     1       1.945  -1.891   0.417  0.00  0.00    +0.248 C 
ATOM     19  O   UNL     1       1.405  -2.805   1.010  0.00  0.00    -0.270 OA
ATOM     20  N   UNL     1       2.480  -0.806   1.002  0.00  0.00    -0.278 N 
BRANCH  20  21
ATOM     21  C   UNL     1       2.505  -0.537   2.442  0.00  0.00    +0.204 C 
BRANCH  21  22
ATOM     22  C   UNL     1       3.749  -1.139   3.044  0.00  0.00    +0.228 C 
ATOM     23  O   UNL     1       4.581  -1.652   2.328  0.00  0.00    -0.274 OA
ATOM     24  N   UNL     1       3.936  -1.106   4.378  0.00  0.00    -0.328 N 
ATOM     25  H   UNL     1       3.269  -0.695   4.951  0.00  0.00    +0.145 HD
ATOM     26  H   UNL     1       4.736  -1.493   4.766  0.00  0.00    +0.145 HD
ENDBRANCH  21  22
ENDBRANCH  20  21
ENDBRANCH   9  11
BRANCH  10  27
ATOM     27  C   UNL     1       4.388   2.848  -0.314  0.00  0.00    -0.001 A 
ATOM     28  C   UNL     1       5.309   2.153   0.471  0.00  0.00    +0.010 A 
ATOM     29  C   UNL     1       6.661   2.366   0.293  0.00  0.00    +0.001 A 
ATOM     30  C   UNL     1       7.103   3.274  -0.652  0.00  0.00    +0.000 A 
ATOM     31  C   UNL     1       6.194   3.971  -1.429  0.00  0.00    +0.001 A 
ATOM     32  C   UNL     1       4.840   3.763  -1.265  0.00  0.00    +0.010 A 
ENDBRANCH  10  27
TORSDOF 4
