REMARK  Name = ZINC08014672
REMARK  5 active torsions:
REMARK  status: ('A' for Active; 'I' for Inactive)
REMARK    1  A    between atoms: C_1  and  C_2
REMARK    2  A    between atoms: C_5  and  N_8
REMARK    3  A    between atoms: C_10  and  C_15
REMARK    4  A    between atoms: N_17  and  C_18
REMARK    5  A    between atoms: C_27  and  C_30
REMARK                            x       y       z     vdW  Elec       q    Type
REMARK                         _______ _______ _______ _____ _____    ______ ____
ROOT
ATOM      1  C   UNL     1      -1.165  -0.812  -0.901  0.00  0.00    +0.222 C 
ATOM      2  O   UNL     1      -0.935  -1.497  -1.876  0.00  0.00    -0.275 OA
ATOM      3  N   UNL     1      -2.437  -0.515  -0.571  0.00  0.00    -0.285 N 
ATOM      4  H   UNL     1      -2.625  -0.023   0.243  0.00  0.00    +0.155 HD
ENDROOT
BRANCH   3   5
ATOM      5  C   UNL     1      -3.489  -0.918  -1.404  0.00  0.00    +0.035 A 
ATOM      6  C   UNL     1      -4.610  -0.112  -1.546  0.00  0.00    +0.027 A 
ATOM      7  C   UNL     1      -5.648  -0.502  -2.372  0.00  0.00    +0.049 A 
ATOM      8  C   UNL     1      -5.576  -1.706  -3.051  0.00  0.00    +0.143 A 
ATOM      9  C   UNL     1      -4.454  -2.521  -2.906  0.00  0.00    +0.077 A 
ATOM     10  C   UNL     1      -3.412  -2.127  -2.084  0.00  0.00    +0.050 A 
ATOM     11  N   UNL     1      -4.397  -3.739  -3.599  0.00  0.00    -0.279 N 
ATOM     12  C   UNL     1      -5.257  -3.952  -4.619  0.00  0.00    +0.258 C 
ATOM     13  O   UNL     1      -5.245  -5.009  -5.214  0.00  0.00    -0.271 OA
ATOM     14  C   UNL     1      -6.229  -2.871  -5.016  0.00  0.00    +0.256 C 
ATOM     15  O   UNL     1      -6.591  -2.104  -3.864  0.00  0.00    -0.478 OA
ATOM     16  C   UNL     1      -7.483  -3.509  -5.617  0.00  0.00    +0.062 C 
ATOM     17  H   UNL     1      -3.751  -4.417  -3.350  0.00  0.00    +0.155 HD
ENDBRANCH   3   5
BRANCH   1  20
ATOM     18  N   UNL     1       2.194   0.532  -0.427  0.00  0.00    -0.271 N 
ATOM     19  C   UNL     1       1.335  -0.625  -0.707  0.00  0.00    +0.127 C 
ATOM     20  C   UNL     1      -0.027  -0.293  -0.060  0.00  0.00    +0.102 C 
ATOM     21  C   UNL     1      -0.005   1.253  -0.053  0.00  0.00    +0.110 C 
ATOM     22  C   UNL     1       1.467   1.602  -0.063  0.00  0.00    +0.221 C 
ATOM     23  O   UNL     1       1.925   2.691   0.216  0.00  0.00    -0.275 OA
BRANCH  18  28
ATOM     24  C   UNL     1       7.852   0.493  -0.833  0.00  0.00    +0.044 C 
ATOM     25  C   UNL     1       6.349   0.503  -0.725  0.00  0.00    -0.050 A 
ATOM     26  C   UNL     1       5.622  -0.605  -1.119  0.00  0.00    +0.005 A 
ATOM     27  C   UNL     1       4.244  -0.599  -1.021  0.00  0.00    +0.024 A 
ATOM     28  C   UNL     1       3.590   0.522  -0.527  0.00  0.00    +0.036 A 
ATOM     29  C   UNL     1       4.323   1.635  -0.137  0.00  0.00    +0.024 A 
ATOM     30  C   UNL     1       5.700   1.621  -0.232  0.00  0.00    +0.005 A 
ENDBRANCH  18  28
ENDBRANCH   1  20
TORSDOF 3
