REMARK  Name = ZINC04344612
REMARK  7 active torsions:
REMARK  status: ('A' for Active; 'I' for Inactive)
REMARK    1  A    between atoms: C_4  and  C_7
REMARK    2  A    between atoms: N_9  and  C_10
REMARK    3  A    between atoms: C_10  and  N_12
REMARK    4  A    between atoms: N_12  and  C_13
REMARK    5  A    between atoms: C_14  and  N_22
REMARK    6  A    between atoms: C_15  and  C_19
REMARK    7  A    between atoms: N_23  and  C_24
REMARK                            x       y       z     vdW  Elec       q    Type
REMARK                         _______ _______ _______ _____ _____    ______ ____
ROOT
ATOM      1  C   UNL     1       6.122  -4.707  -0.190  0.00  0.00    +0.148 A 
ATOM      2  C   UNL     1       6.292  -6.083  -0.316  0.00  0.00    +0.149 A 
ATOM      3  C   UNL     1       7.683  -6.321  -0.410  0.00  0.00    +0.095 A 
ATOM      4  N   UNL     1       8.298  -5.173  -0.345  0.00  0.00    -0.175 NA
ATOM      5  N   UNL     1       7.352  -4.151  -0.213  0.00  0.00    -0.262 N 
ATOM      6  H   UNL     1       7.547  -3.203  -0.148  0.00  0.00    +0.190 HD
ENDROOT
BRANCH   3   7
ATOM      7  C   UNL     1       8.340  -7.669  -0.559  0.00  0.00    +0.042 C 
ATOM      8  C   UNL     1       9.864  -7.728  -0.441  0.00  0.00    +0.010 C 
ATOM      9  C   UNL     1       9.195  -7.904  -1.806  0.00  0.00    +0.010 C 
ENDBRANCH   3   7
BRANCH   1  10
ATOM     10  N   UNL     1       4.917  -4.034  -0.069  0.00  0.00    -0.280 N 
ATOM     11  H   UNL     1       4.091  -4.533   0.038  0.00  0.00    +0.155 HD
BRANCH  10  12
ATOM     12  C   UNL     1       4.891  -2.687  -0.100  0.00  0.00    +0.142 C 
ATOM     13  S   UNL     1       6.356  -1.804  -0.151  0.00  0.00    -0.018 S 
BRANCH  12  16
ATOM     14  C   UNL     1       3.685  -0.688  -0.122  0.00  0.00    +0.250 C 
ATOM     15  O   UNL     1       4.726  -0.061  -0.159  0.00  0.00    -0.270 OA
ATOM     16  N   UNL     1       3.711  -2.035  -0.091  0.00  0.00    -0.264 N 
ATOM     17  H   UNL     1       2.881  -2.536  -0.062  0.00  0.00    +0.157 HD
BRANCH  14  21
ATOM     18  C   UNL     1      -0.032   1.366  -0.095  0.00  0.00    +0.000 A 
ATOM     19  C   UNL     1       1.151   2.083  -0.136  0.00  0.00    +0.001 A 
ATOM     20  C   UNL     1       2.361   1.422  -0.145  0.00  0.00    +0.013 A 
ATOM     21  C   UNL     1       2.392   0.027  -0.113  0.00  0.00    +0.037 A 
ATOM     22  C   UNL     1       1.195  -0.691  -0.071  0.00  0.00    +0.013 A 
ATOM     23  C   UNL     1      -0.009  -0.017  -0.063  0.00  0.00    +0.001 A 
ENDBRANCH  14  21
ENDBRANCH  12  16
ENDBRANCH  10  12
ENDBRANCH   1  10
BRANCH   2  24
ATOM     24  N   UNL     1       5.307  -7.021  -0.342  0.00  0.00    -0.144 NA
ATOM     25  N   UNL     1       4.072  -6.662  -0.245  0.00  0.00    -0.149 NA
BRANCH  25  26
ATOM     26  C   UNL     1       3.081  -7.606  -0.272  0.00  0.00    +0.086 A 
ATOM     27  C   UNL     1       3.405  -8.959  -0.398  0.00  0.00    +0.032 A 
ATOM     28  C   UNL     1       2.402  -9.905  -0.424  0.00  0.00    +0.040 A 
ATOM     29  C   UNL     1       1.075  -9.516  -0.326  0.00  0.00    +0.124 A 
ATOM     30  C   UNL     1       0.748  -8.174  -0.201  0.00  0.00    +0.040 A 
ATOM     31  C   UNL     1       1.742  -7.220  -0.167  0.00  0.00    +0.032 A 
ATOM     32  F   UNL     1       0.097 -10.447  -0.353  0.00  0.00    -0.205 F 
ENDBRANCH  25  26
ENDBRANCH   2  24
TORSDOF 7
