REMARK  Name = ZINC32116595
REMARK  9 active torsions:
REMARK  status: ('A' for Active; 'I' for Inactive)
REMARK    1  A    between atoms: C_1  and  C_2
REMARK    2  A    between atoms: C_2  and  C_3
REMARK    3  A    between atoms: C_2  and  C_4
REMARK    4  A    between atoms: C_2  and  C_5
REMARK    5  A    between atoms: N_7  and  C_8
REMARK    6  A    between atoms: C_8  and  N_10
REMARK    7  A    between atoms: N_10  and  C_11
REMARK    8  A    between atoms: C_18  and  C_20
REMARK    9  A    between atoms: C_23  and  O_27
REMARK                            x       y       z     vdW  Elec       q    Type
REMARK                         _______ _______ _______ _____ _____    ______ ____
ROOT
ATOM      1  C   UNL     1       2.212  -4.107  -3.938  0.00  0.00    +0.035 A 
ATOM      2  C   UNL     1       2.776  -3.261  -4.889  0.00  0.00    +0.027 A 
ATOM      3  C   UNL     1       3.365  -3.778  -6.023  0.00  0.00    +0.050 A 
ATOM      4  C   UNL     1       3.398  -5.150  -6.222  0.00  0.00    +0.156 A 
ATOM      5  C   UNL     1       2.831  -6.011  -5.268  0.00  0.00    +0.112 A 
ATOM      6  C   UNL     1       2.242  -5.478  -4.119  0.00  0.00    +0.054 A 
ATOM      7  N   UNL     1       3.012  -7.276  -5.728  0.00  0.00    -0.209 NA
ATOM      8  C   UNL     1       3.639  -7.221  -6.875  0.00  0.00    +0.228 A 
ATOM      9  O   UNL     1       3.889  -5.940  -7.204  0.00  0.00    -0.435 OA
ENDROOT
BRANCH   8  10
ATOM     10  C   UNL     1       4.019  -8.394  -7.689  0.00  0.00    +0.038 A 
ATOM     11  C   UNL     1       3.704  -9.682  -7.251  0.00  0.00    +0.017 A 
ATOM     12  C   UNL     1       4.059 -10.774  -8.014  0.00  0.00    +0.047 A 
ATOM     13  C   UNL     1       4.730 -10.595  -9.217  0.00  0.00    +0.131 A 
ATOM     14  C   UNL     1       5.046  -9.315  -9.656  0.00  0.00    +0.060 A 
ATOM     15  C   UNL     1       4.688  -8.217  -8.902  0.00  0.00    +0.032 A 
ATOM     16 BR   UNL     1       5.960  -9.078 -11.295  0.00  0.00    -0.047 Br
BRANCH  13  17
ATOM     17  O   UNL     1       5.078 -11.673  -9.965  0.00  0.00    -0.506 OA
ATOM     18  H   UNL     1       4.406 -11.941 -10.606  0.00  0.00    +0.292 HD
ENDBRANCH  13  17
ENDBRANCH   8  10
BRANCH   1  19
ATOM     19  N   UNL     1       1.616  -3.569  -2.790  0.00  0.00    -0.297 N 
ATOM     20  H   UNL     1       1.806  -3.952  -1.920  0.00  0.00    +0.154 HD
BRANCH  19  21
ATOM     21  C   UNL     1       0.779  -2.518  -2.895  0.00  0.00    +0.141 C 
ATOM     22  S   UNL     1       0.528  -1.773  -4.416  0.00  0.00    -0.018 S 
BRANCH  21  25
ATOM     23  C   UNL     1      -0.697  -1.003  -1.909  0.00  0.00    +0.224 C 
ATOM     24  O   UNL     1      -0.875  -0.475  -2.986  0.00  0.00    -0.275 OA
ATOM     25  N   UNL     1       0.140  -2.054  -1.803  0.00  0.00    -0.267 N 
ATOM     26  H   UNL     1       0.283  -2.476  -0.942  0.00  0.00    +0.157 HD
BRANCH  23  28
ATOM     27  C   UNL     1      -2.293   0.704  -1.079  0.00  0.00    +0.020 C 
ATOM     28  C   UNL     1      -1.412  -0.483  -0.688  0.00  0.00    +0.039 C 
ATOM     29  C   UNL     1      -0.383  -0.034   0.353  0.00  0.00    +0.020 C 
ATOM     30  C   UNL     1      -2.284  -1.593  -0.097  0.00  0.00    +0.020 C 
ENDBRANCH  23  28
ENDBRANCH  21  25
ENDBRANCH  19  21
ENDBRANCH   1  19
TORSDOF 6
