REMARK  Name = ZINC36588495
REMARK  13 active torsions:
REMARK  status: ('A' for Active; 'I' for Inactive)
REMARK    1  A    between atoms: C_1  and  C_2
REMARK    2  A    between atoms: C_5  and  S_8
REMARK    3  A    between atoms: S_8  and  C_11
REMARK    4  A    between atoms: C_11  and  N_12
REMARK    5  A    between atoms: C_13  and  C_15
REMARK    6  A    between atoms: C_15  and  C_17
REMARK    7  A    between atoms: C_15  and  N_22
REMARK    8  A    between atoms: N_22  and  C_35
REMARK    9  A    between atoms: C_23  and  C_25
REMARK   10  A    between atoms: C_25  and  C_26
REMARK   11  A    between atoms: C_35  and  C_36
REMARK   12  A    between atoms: C_35  and  C_37
REMARK   13  A    between atoms: C_35  and  C_38
REMARK                            x       y       z     vdW  Elec       q    Type
REMARK                         _______ _______ _______ _____ _____    ______ ____
ROOT
ATOM      1  C   UNL     1       1.877  -4.619   3.900  0.00  0.00    +0.229 C 
ENDROOT
BRANCH   1   2
ATOM      2  C   UNL     1       0.982  -3.706   4.697  0.00  0.00    +0.134 A 
ATOM      3  C   UNL     1       0.733  -2.413   4.422  0.00  0.00    +0.047 A 
ATOM      4  C   UNL     1      -0.154  -1.945   5.419  0.00  0.00    +0.041 A 
ATOM      5  C   UNL     1      -0.393  -2.981   6.244  0.00  0.00    +0.195 A 
ATOM      6  O   UNL     1       0.293  -4.046   5.798  0.00  0.00    -0.465 OA
ENDBRANCH   1   2
BRANCH   1   8
ATOM      7  N   UNL     1      -0.097  -5.135   2.502  0.00  0.00    -0.294 N 
ATOM      8  C   UNL     1       1.033  -5.571   3.092  0.00  0.00    +0.242 C 
ATOM      9  O   UNL     1       1.370  -6.730   2.974  0.00  0.00    -0.273 OA
ATOM     10  H   UNL     1      -0.367  -4.208   2.596  0.00  0.00    +0.150 HD
BRANCH   7  11
ATOM     11  C   UNL     1      -0.918  -6.060   1.717  0.00  0.00    +0.278 C 
BRANCH  11  12
ATOM     12  S   UNL     1      -2.239  -6.732   2.762  0.00  0.00    +0.013 S 
ATOM     13  O   UNL     1      -1.706  -7.167   4.005  0.00  0.00    -0.168 OA
ATOM     14  O   UNL     1      -3.082  -7.584   1.998  0.00  0.00    -0.168 OA
BRANCH  12  19
ATOM     15  C   UNL     1      -5.695  -1.984   4.146  0.00  0.00    +0.044 C 
ATOM     16  C   UNL     1      -4.831  -3.170   3.801  0.00  0.00    -0.050 A 
ATOM     17  C   UNL     1      -5.102  -3.915   2.668  0.00  0.00    +0.005 A 
ATOM     18  C   UNL     1      -4.311  -5.003   2.351  0.00  0.00    +0.027 A 
ATOM     19  C   UNL     1      -3.248  -5.345   3.166  0.00  0.00    +0.090 A 
ATOM     20  C   UNL     1      -2.976  -4.599   4.298  0.00  0.00    +0.027 A 
ATOM     21  C   UNL     1      -3.765  -3.509   4.613  0.00  0.00    +0.005 A 
ENDBRANCH  12  19
ENDBRANCH  11  12
ENDBRANCH   7  11
ENDBRANCH   1   8
BRANCH   1  22
ATOM     22  N   UNL     1       2.734  -5.380   4.812  0.00  0.00    -0.278 N 
ATOM     23  C   UNL     1       4.075  -5.271   4.727  0.00  0.00    +0.221 C 
ATOM     24  O   UNL     1       4.573  -4.598   3.850  0.00  0.00    -0.275 OA
BRANCH  22  25
ATOM     25  C   UNL     1       2.134  -6.261   5.818  0.00  0.00    +0.030 C 
ATOM     26  C   UNL     1       0.670  -6.522   5.458  0.00  0.00    +0.031 C 
ATOM     27  C   UNL     1       2.895  -7.588   5.854  0.00  0.00    +0.031 C 
ATOM     28  C   UNL     1       2.210  -5.592   7.192  0.00  0.00    +0.031 C 
ENDBRANCH  22  25
BRANCH  23  29
ATOM     29  C   UNL     1       4.954  -5.984   5.721  0.00  0.00    +0.131 C 
BRANCH  29  30
ATOM     30  C   UNL     1       6.356  -5.437   5.636  0.00  0.00    -0.035 A 
ATOM     31  C   UNL     1       7.266  -6.005   4.764  0.00  0.00    +0.008 A 
ATOM     32  C   UNL     1       8.552  -5.506   4.681  0.00  0.00    +0.050 A 
ATOM     33  C   UNL     1       8.933  -4.436   5.473  0.00  0.00    +0.166 A 
ATOM     34  C   UNL     1       8.016  -3.864   6.352  0.00  0.00    +0.166 A 
ATOM     35  C   UNL     1       6.727  -4.365   6.425  0.00  0.00    +0.053 A 
ATOM     36  O   UNL     1       8.627  -2.837   7.012  0.00  0.00    -0.453 OA
ATOM     37  C   UNL     1      10.039  -3.047   6.827  0.00  0.00    +0.466 C 
ATOM     38  O   UNL     1      10.118  -3.767   5.583  0.00  0.00    -0.453 OA
ENDBRANCH  29  30
ENDBRANCH  23  29
ENDBRANCH   1  22
TORSDOF 9
