REMARK  Name = ZINC08187989
REMARK  7 active torsions:
REMARK  status: ('A' for Active; 'I' for Inactive)
REMARK    1  A    between atoms: C_1  and  C_2
REMARK    2  A    between atoms: C_5  and  C_8
REMARK    3  A    between atoms: C_8  and  C_20
REMARK    4  A    between atoms: N_11  and  C_15
REMARK    5  A    between atoms: C_15  and  C_16
REMARK    6  A    between atoms: N_18  and  C_19
REMARK    7  A    between atoms: C_23  and  C_26
REMARK                            x       y       z     vdW  Elec       q    Type
REMARK                         _______ _______ _______ _____ _____    ______ ____
ROOT
ATOM      1  C   UNL     1      -1.235   2.107   0.018  0.00  0.00    +0.164 C 
ATOM      2  C   UNL     1      -0.243   1.246  -0.738  0.00  0.00    +0.256 C 
ATOM      3  O   UNL     1      -0.473   0.213  -1.331  0.00  0.00    -0.272 OA
ATOM      4  N   UNL     1       0.946   1.869  -0.620  0.00  0.00    -0.215 N 
ATOM      5  C   UNL     1       0.845   2.991   0.103  0.00  0.00    +0.310 C 
ATOM      6  O   UNL     1       1.783   3.724   0.347  0.00  0.00    -0.252 OA
ATOM      7  N   UNL     1      -0.411   3.216   0.530  0.00  0.00    -0.278 N 
ATOM      8  H   UNL     1      -0.715   3.965   1.066  0.00  0.00    +0.152 HD
ENDROOT
BRANCH   1  13
ATOM      9  C   UNL     1      -5.338   4.083  -3.539  0.00  0.00    +0.044 C 
ATOM     10  C   UNL     1      -4.268   3.568  -2.611  0.00  0.00    -0.050 A 
ATOM     11  C   UNL     1      -3.612   4.439  -1.761  0.00  0.00    +0.004 A 
ATOM     12  C   UNL     1      -2.631   3.966  -0.910  0.00  0.00    +0.007 A 
ATOM     13  C   UNL     1      -2.305   2.623  -0.909  0.00  0.00    -0.011 A 
ATOM     14  C   UNL     1      -2.957   1.753  -1.763  0.00  0.00    +0.007 A 
ATOM     15  C   UNL     1      -3.942   2.224  -2.610  0.00  0.00    +0.004 A 
ENDBRANCH   1  13
BRANCH   1  16
ATOM     16  C   UNL     1      -1.846   1.335   1.159  0.00  0.00    -0.011 A 
ATOM     17  C   UNL     1      -2.405   0.091   0.930  0.00  0.00    +0.007 A 
ATOM     18  C   UNL     1      -2.961  -0.620   1.977  0.00  0.00    +0.004 A 
ATOM     19  C   UNL     1      -2.969  -0.082   3.251  0.00  0.00    -0.050 A 
ATOM     20  C   UNL     1      -2.415   1.164   3.478  0.00  0.00    +0.004 A 
ATOM     21  C   UNL     1      -1.854   1.872   2.432  0.00  0.00    +0.007 A 
ATOM     22  C   UNL     1      -3.581  -0.854   4.391  0.00  0.00    +0.044 C 
ENDBRANCH   1  16
BRANCH   4  23
ATOM     23  C   UNL     1       2.194   1.380  -1.210  0.00  0.00    +0.213 C 
BRANCH  23  24
ATOM     24  C   UNL     1       2.352   1.952  -2.595  0.00  0.00    +0.231 C 
ATOM     25  O   UNL     1       1.506   2.695  -3.045  0.00  0.00    -0.274 OA
ATOM     26  N   UNL     1       3.435   1.638  -3.335  0.00  0.00    -0.317 N 
ATOM     27  C   UNL     1       3.588   2.193  -4.681  0.00  0.00    +0.128 C 
ATOM     28  H   UNL     1       4.112   1.044  -2.975  0.00  0.00    +0.148 HD
ENDBRANCH  23  24
ENDBRANCH   4  23
TORSDOF 4
