REMARK  Name = ZINC05021075
REMARK  6 active torsions:
REMARK  status: ('A' for Active; 'I' for Inactive)
REMARK    1  A    between atoms: C_1  and  O_2
REMARK    2  A    between atoms: O_2  and  C_3
REMARK    3  A    between atoms: C_3  and  C_5
REMARK    4  A    between atoms: C_9  and  N_10
REMARK    5  A    between atoms: C_11  and  C_13
REMARK    6  A    between atoms: C_19  and  C_21
REMARK                            x       y       z     vdW  Elec       q    Type
REMARK                         _______ _______ _______ _____ _____    ______ ____
ROOT
ATOM      1  C   UNL     1      -1.470   3.433   2.545  0.00  0.00    +0.091 A 
ATOM      2  C   UNL     1      -0.736   3.720   3.766  0.00  0.00    -0.021 A 
ATOM      3  C   UNL     1      -1.476   4.222   4.778  0.00  0.00    -0.004 A 
ATOM      4  S   UNL     1      -3.124   4.306   4.136  0.00  0.00    -0.077 S 
ATOM      5  C   UNL     1      -2.835   3.690   2.543  0.00  0.00    +0.086 A 
ATOM      6  C   UNL     1      -0.995   4.611   6.142  0.00  0.00    +0.043 C 
ATOM      7  C   UNL     1       0.404   4.014   6.350  0.00  0.00    +0.005 C 
ATOM      8  C   UNL     1       1.260   4.320   5.117  0.00  0.00    +0.005 C 
ATOM      9  C   UNL     1       0.764   3.500   3.924  0.00  0.00    +0.037 C 
ENDROOT
BRANCH   5  10
ATOM     10  N   UNL     1      -3.745   3.499   1.515  0.00  0.00    -0.279 N 
ATOM     11  C   UNL     1      -5.044   3.809   1.699  0.00  0.00    +0.221 C 
ATOM     12  O   UNL     1      -5.416   4.254   2.764  0.00  0.00    -0.275 OA
ATOM     13  H   UNL     1      -3.448   3.143   0.663  0.00  0.00    +0.155 HD
BRANCH  11  14
ATOM     14  C   UNL     1      -6.034   3.602   0.582  0.00  0.00    +0.089 C 
ATOM     15  C   UNL     1      -5.621   4.444  -0.628  0.00  0.00    +0.013 C 
ATOM     16  C   UNL     1      -6.626   4.234  -1.762  0.00  0.00    +0.001 C 
ATOM     17  C   UNL     1      -8.019   4.660  -1.295  0.00  0.00    +0.001 C 
ATOM     18  C   UNL     1      -8.432   3.819  -0.086  0.00  0.00    +0.015 C 
ATOM     19  C   UNL     1      -7.427   4.029   1.049  0.00  0.00    +0.114 C 
BRANCH  19  20
ATOM     20  C   UNL     1      -7.833   3.200   2.240  0.00  0.00    +0.360 C 
ATOM     21  O   UNL     1      -7.086   2.355   2.671  0.00  0.00    -0.246 OA
ATOM     22  O   UNL     1      -9.026   3.401   2.822  0.00  0.00    -0.246 OA
ENDBRANCH  19  20
ENDBRANCH  11  14
ENDBRANCH   5  10
BRANCH   1  23
ATOM     23  C   UNL     1      -0.797   2.889   1.364  0.00  0.00    +0.342 C 
ATOM     24  O   UNL     1      -0.333   3.641   0.528  0.00  0.00    -0.245 OA
BRANCH  23  26
ATOM     25  C   UNL     1      -0.013   1.086   0.008  0.00  0.00    +0.280 C 
ATOM     26  O   UNL     1      -0.692   1.554   1.203  0.00  0.00    -0.464 OA
ENDBRANCH  23  26
ENDBRANCH   1  23
TORSDOF 5
