REMARK  Name = ZINC09092751
REMARK  6 active torsions:
REMARK  status: ('A' for Active; 'I' for Inactive)
REMARK    1  A    between atoms: C_1  and  C_2
REMARK    2  A    between atoms: C_6  and  C_14
REMARK    3  A    between atoms: C_12  and  C_13
REMARK    4  A    between atoms: C_14  and  N_15
REMARK    5  A    between atoms: C_18  and  C_22
REMARK    6  A    between atoms: C_18  and  C_23
REMARK                            x       y       z     vdW  Elec       q    Type
REMARK                         _______ _______ _______ _____ _____    ______ ____
ROOT
ATOM      1  N   UNL     1      -2.034  -1.948   1.830  0.00  0.00    -0.220 N 
ATOM      2  C   UNL     1      -1.173  -2.039   0.797  0.00  0.00    +0.251 C 
ATOM      3  O   UNL     1      -0.431  -2.963   0.542  0.00  0.00    -0.272 OA
ATOM      4  C   UNL     1      -1.327  -0.746   0.021  0.00  0.00    +0.135 C 
ATOM      5  N   UNL     1      -2.352  -0.007   0.777  0.00  0.00    -0.281 N 
ATOM      6  C   UNL     1      -2.703  -0.789   1.815  0.00  0.00    +0.310 C 
ATOM      7  O   UNL     1      -3.535  -0.478   2.644  0.00  0.00    -0.252 OA
ATOM      8  C   UNL     1      -1.806  -1.025  -1.405  0.00  0.00    +0.047 C 
ATOM      9  H   UNL     1      -2.706   0.872   0.569  0.00  0.00    +0.152 HD
ENDROOT
BRANCH   4  10
ATOM     10  C   UNL     1      -0.028   0.018   0.002  0.00  0.00    -0.012 A 
ATOM     11  C   UNL     1       1.173  -0.664  -0.038  0.00  0.00    +0.010 A 
ATOM     12  C   UNL     1       2.367   0.033  -0.056  0.00  0.00    +0.050 A 
ATOM     13  C   UNL     1       2.362   1.419  -0.034  0.00  0.00    +0.166 A 
ATOM     14  C   UNL     1       1.151   2.106   0.008  0.00  0.00    +0.167 A 
ATOM     15  C   UNL     1      -0.041   1.401   0.025  0.00  0.00    +0.055 A 
ATOM     16  O   UNL     1       1.410   3.446   0.024  0.00  0.00    -0.453 OA
ATOM     17  C   UNL     1       2.774   3.579  -0.420  0.00  0.00    +0.466 C 
ATOM     18  O   UNL     1       3.380   2.328  -0.044  0.00  0.00    -0.453 OA
ENDBRANCH   4  10
BRANCH   1  19
ATOM     19  C   UNL     1      -2.216  -2.989   2.845  0.00  0.00    +0.154 C 
BRANCH  19  25
ATOM     20  C   UNL     1      -5.303  -7.998   5.944  0.00  0.00    +0.044 C 
ATOM     21  C   UNL     1      -4.795  -6.917   5.025  0.00  0.00    -0.044 A 
ATOM     22  C   UNL     1      -3.734  -6.117   5.425  0.00  0.00    +0.004 A 
ATOM     23  C   UNL     1      -3.260  -5.132   4.605  0.00  0.00    +0.012 A 
ATOM     24  C   UNL     1      -3.850  -4.928   3.353  0.00  0.00    +0.023 A 
ATOM     25  C   UNL     1      -3.365  -3.880   2.450  0.00  0.00    -0.012 A 
ATOM     26  C   UNL     1      -3.985  -3.729   1.252  0.00  0.00    +0.098 A 
ATOM     27  C   UNL     1      -5.057  -4.580   0.905  0.00  0.00    +0.338 A 
ATOM     28  O   UNL     1      -5.601  -4.438  -0.175  0.00  0.00    -0.245 OA
ATOM     29  O   UNL     1      -5.495  -5.537   1.737  0.00  0.00    -0.422 OA
ATOM     30  C   UNL     1      -4.926  -5.736   2.945  0.00  0.00    +0.142 A 
ATOM     31  C   UNL     1      -5.391  -6.731   3.795  0.00  0.00    -0.005 A 
ATOM     32  C   UNL     1      -6.543  -7.607   3.373  0.00  0.00    +0.048 C 
ENDBRANCH  19  25
ENDBRANCH   1  19
TORSDOF 3
