REMARK  Name = ZINC59293323
REMARK  6 active torsions:
REMARK  status: ('A' for Active; 'I' for Inactive)
REMARK    1  A    between atoms: C_3  and  C_6
REMARK    2  A    between atoms: C_12  and  C_25
REMARK    3  A    between atoms: C_13  and  C_20
REMARK    4  A    between atoms: C_15  and  C_18
REMARK    5  A    between atoms: C_16  and  N_17
REMARK    6  A    between atoms: N_27  and  C_28
REMARK                            x       y       z     vdW  Elec       q    Type
REMARK                         _______ _______ _______ _____ _____    ______ ____
ROOT
ATOM      1  C   UNL     1       3.724   0.489  -1.427  0.00  0.00    +0.066 C 
ATOM      2  C   UNL     1       4.332  -0.691  -1.115  0.00  0.00    +0.082 A 
ATOM      3  C   UNL     1       5.739  -0.960  -0.816  0.00  0.00    +0.271 A 
ATOM      4  O   UNL     1       6.559  -0.060  -0.824  0.00  0.00    -0.266 OA
ATOM      5  N   UNL     1       6.107  -2.225  -0.532  0.00  0.00    -0.257 N 
ATOM      6  C   UNL     1       5.125  -3.194  -0.541  0.00  0.00    +0.099 A 
ATOM      7  C   UNL     1       5.347  -4.518  -0.273  0.00  0.00    +0.061 C 
ATOM      8  C   UNL     1       6.761  -4.955   0.055  0.00  0.00    +0.136 C 
ATOM      9  C   UNL     1       7.805  -3.857   0.052  0.00  0.00    +0.082 C 
ATOM     10  C   UNL     1       7.424  -2.593  -0.233  0.00  0.00    +0.119 C 
ATOM     11  S   UNL     1       3.626  -2.323  -0.953  0.00  0.00    -0.065 S 
ENDROOT
BRANCH   1  14
ATOM     12  C   UNL     1       0.264   1.208  -2.156  0.00  0.00    +0.042 A 
ATOM     13  C   UNL     1       1.590   1.641  -1.999  0.00  0.00    +0.049 A 
ATOM     14  C   UNL     1       2.332   0.523  -1.675  0.00  0.00    +0.129 A 
ATOM     15  O   UNL     1       1.492  -0.533  -1.638  0.00  0.00    -0.463 OA
ATOM     16  C   UNL     1       0.248  -0.123  -1.927  0.00  0.00    +0.195 A 
ENDBRANCH   1  14
BRANCH   8  17
ATOM     17  C   UNL     1       6.754  -5.590   1.421  0.00  0.00    +0.118 A 
ATOM     18  C   UNL     1       7.123  -6.852   1.704  0.00  0.00    +0.045 A 
ATOM     19  C   UNL     1       6.959  -7.024   3.098  0.00  0.00    +0.041 A 
ATOM     20  C   UNL     1       6.500  -5.857   3.583  0.00  0.00    +0.195 A 
ATOM     21  O   UNL     1       6.383  -4.990   2.564  0.00  0.00    -0.467 OA
ENDBRANCH   8  17
BRANCH   7  22
ATOM     22  C   UNL     1       4.295  -5.446  -0.301  0.00  0.00    +0.248 C 
ATOM     23  O   UNL     1       3.163  -5.076  -0.567  0.00  0.00    -0.270 OA
ATOM     24  N   UNL     1       4.534  -6.745  -0.035  0.00  0.00    -0.282 N 
ATOM     25  H   UNL     1       5.421  -7.029   0.238  0.00  0.00    +0.155 HD
BRANCH  24  26
ATOM     26  C   UNL     1       3.504  -7.684  -0.152  0.00  0.00    +0.034 A 
ATOM     27  C   UNL     1       3.781  -8.967  -0.607  0.00  0.00    +0.025 A 
ATOM     28  C   UNL     1       2.762  -9.893  -0.721  0.00  0.00    +0.022 A 
ATOM     29  C   UNL     1       1.467  -9.543  -0.382  0.00  0.00    +0.041 A 
ATOM     30  C   UNL     1       1.188  -8.265   0.071  0.00  0.00    +0.022 A 
ATOM     31  C   UNL     1       2.204  -7.338   0.192  0.00  0.00    +0.025 A 
ATOM     32 CL   UNL     1       0.189 -10.709  -0.526  0.00  0.00    -0.084 Cl
ENDBRANCH  24  26
ENDBRANCH   7  22
BRANCH  10  33
ATOM     33  N   UNL     1       8.385  -1.611  -0.231  0.00  0.00    -0.343 N 
ATOM     34  H   UNL     1       8.143  -0.696  -0.020  0.00  0.00    +0.144 HD
ATOM     35  H   UNL     1       9.306  -1.833  -0.440  0.00  0.00    +0.144 HD
ENDBRANCH  10  33
BRANCH   9  36
ATOM     36  C   UNL     1       9.175  -4.154   0.349  0.00  0.00    +0.099 C 
ATOM     37  N   UNL     1      10.261  -4.390   0.584  0.00  0.00    -0.191 NA
ENDBRANCH   9  36
TORSDOF 6
