REMARK  Name = ZINC09154395
REMARK  10 active torsions:
REMARK  status: ('A' for Active; 'I' for Inactive)
REMARK    1  A    between atoms: C_1  and  C_2
REMARK    2  A    between atoms: C_2  and  O_3
REMARK    3  A    between atoms: O_3  and  C_4
REMARK    4  A    between atoms: C_9  and  C_10
REMARK    5  A    between atoms: C_10  and  N_56
REMARK    6  A    between atoms: C_11  and  C_13
REMARK    7  A    between atoms: C_11  and  C_14
REMARK    8  A    between atoms: C_11  and  N_56
REMARK    9  A    between atoms: C_20  and  C_25
REMARK   10  A    between atoms: C_31  and  C_34
REMARK                            x       y       z     vdW  Elec       q    Type
REMARK                         _______ _______ _______ _____ _____    ______ ____
ROOT
ATOM      1  C   UNL     1       4.360   6.915  -0.273  0.00  0.00    -0.007 C 
ATOM      2  C   UNL     1       5.880   6.856  -0.113  0.00  0.00    -0.006 C 
ENDROOT
BRANCH   1   3
ATOM      3  C   UNL     1       4.008   7.870  -1.385  0.00  0.00    +0.097 A 
ATOM      4  N   UNL     1       4.473   9.145  -1.341  0.00  0.00    -0.312 N 
ATOM      5  H   UNL     1       5.025   9.425  -0.594  0.00  0.00    +0.170 HD
ATOM      6  C   UNL     1       4.182  10.029  -2.314  0.00  0.00    +0.260 A 
ATOM      7  O   UNL     1       4.606  11.170  -2.260  0.00  0.00    -0.267 OA
ATOM      8  C   UNL     1       3.367   9.608  -3.412  0.00  0.00    +0.083 A 
ATOM      9  C   UNL     1       2.918  10.369  -4.573  0.00  0.00    +0.039 A 
ATOM     10  C   UNL     1       2.141   9.750  -5.497  0.00  0.00    +0.059 A 
ATOM     11  S   UNL     1       1.970   8.097  -4.851  0.00  0.00    -0.076 S 
ATOM     12  C   UNL     1       2.934   8.273  -3.372  0.00  0.00    +0.116 A 
ATOM     13  N   UNL     1       3.267   7.455  -2.377  0.00  0.00    -0.228 NA
BRANCH   9  14
ATOM     14  C   UNL     1       3.302  11.786  -4.739  0.00  0.00    +0.136 A 
ATOM     15  C   UNL     1       3.843  12.341  -5.857  0.00  0.00    +0.050 A 
ATOM     16  C   UNL     1       4.046  13.707  -5.575  0.00  0.00    +0.042 A 
ATOM     17  C   UNL     1       3.631  13.915  -4.311  0.00  0.00    +0.196 A 
ATOM     18  O   UNL     1       3.182  12.752  -3.808  0.00  0.00    -0.463 OA
ENDBRANCH   9  14
ENDBRANCH   1   3
BRANCH   1  19
ATOM     19  N   UNL     1       3.848   5.573  -0.608  0.00  0.00    +0.388 N 
ATOM     20  H   UNL     1       2.959   5.666  -1.114  0.00  0.00    -0.084 HD
ATOM     21  H   UNL     1       4.531   5.088  -1.201  0.00  0.00    -0.084 HD
BRANCH  19  22
ATOM     22  C   UNL     1       3.628   4.788   0.622  0.00  0.00    -0.042 C 
BRANCH  22  28
ATOM     23  C   UNL     1       3.984   2.443  -0.185  0.00  0.00    +0.122 A 
ATOM     24  C   UNL     1       3.499   1.187  -0.523  0.00  0.00    +0.053 A 
ATOM     25  C   UNL     1       2.151   0.923  -0.427  0.00  0.00    +0.001 A 
ATOM     26  C   UNL     1       1.262   1.901   0.000  0.00  0.00    +0.125 A 
ATOM     27  C   UNL     1       1.755   3.157   0.342  0.00  0.00    +0.051 A 
ATOM     28  C   UNL     1       3.106   3.424   0.250  0.00  0.00    -0.019 A 
ATOM     29  O   UNL     1      -0.017   1.433   0.010  0.00  0.00    -0.488 OA
ATOM     30  C   UNL     1       0.002  -0.004   0.002  0.00  0.00    +0.175 C 
ATOM     31  C   UNL     1       1.337  -0.325  -0.711  0.00  0.00    +0.083 C 
ATOM     32  C   UNL     1      -1.183  -0.558  -0.792  0.00  0.00    +0.052 C 
BRANCH  23  33
ATOM     33  O   UNL     1       5.314   2.710  -0.278  0.00  0.00    -0.492 OA
BRANCH  33  35
ATOM     34  C   UNL     1       7.609   2.135  -0.772  0.00  0.00    +0.048 C 
ATOM     35  C   UNL     1       6.158   1.650  -0.733  0.00  0.00    +0.225 C 
ENDBRANCH  33  35
ENDBRANCH  23  33
ENDBRANCH  22  28
ENDBRANCH  19  22
ENDBRANCH   1  19
TORSDOF 7
