REMARK  Name = ZINC24633380
REMARK  7 active torsions:
REMARK  status: ('A' for Active; 'I' for Inactive)
REMARK    1  A    between atoms: C_3  and  C_6
REMARK    2  A    between atoms: C_9  and  C_28
REMARK    3  A    between atoms: C_12  and  C_14
REMARK    4  A    between atoms: C_14  and  O_15
REMARK    5  A    between atoms: O_15  and  C_16
REMARK    6  A    between atoms: C_16  and  C_18
REMARK    7  A    between atoms: C_21  and  N_24
REMARK                            x       y       z     vdW  Elec       q    Type
REMARK                         _______ _______ _______ _____ _____    ______ ____
ROOT
ATOM      1  C   UNL     1      -2.089  -4.429   0.545  0.00  0.00    +0.144 C 
ATOM      2  C   UNL     1      -3.567  -4.863   0.499  0.00  0.00    +0.088 C 
ATOM      3  C   UNL     1      -4.320  -3.570   0.284  0.00  0.00    +0.075 C 
ATOM      4  N   UNL     1      -3.483  -2.589   0.223  0.00  0.00    -0.180 NA
ATOM      5  N   UNL     1      -2.151  -2.970   0.366  0.00  0.00    -0.182 N 
ATOM      6  C   UNL     1      -1.090  -2.138   0.340  0.00  0.00    +0.273 C 
ATOM      7  O   UNL     1       0.031  -2.580   0.476  0.00  0.00    -0.270 OA
ENDROOT
BRANCH   1  10
ATOM      8  C   UNL     1      -0.192  -5.906   3.501  0.00  0.00    +0.008 A 
ATOM      9  C   UNL     1      -0.627  -5.780   2.195  0.00  0.00    +0.013 A 
ATOM     10  C   UNL     1      -1.480  -4.774   1.880  0.00  0.00    +0.013 A 
ATOM     11  S   UNL     1      -1.688  -3.960   3.455  0.00  0.00    -0.100 S 
ATOM     12  C   UNL     1      -0.632  -5.020   4.428  0.00  0.00    +0.045 A 
ENDBRANCH   1  10
BRANCH   3  13
ATOM     13  C   UNL     1      -5.777  -3.448   0.163  0.00  0.00    +0.035 A 
ATOM     14  C   UNL     1      -6.545  -2.314  -0.034  0.00  0.00    +0.017 A 
ATOM     15  C   UNL     1      -7.910  -2.455  -0.115  0.00  0.00    +0.008 A 
ATOM     16  C   UNL     1      -8.459  -3.692  -0.001  0.00  0.00    +0.046 A 
ATOM     17  S   UNL     1      -7.022  -4.727   0.224  0.00  0.00    -0.095 S 
ENDBRANCH   3  13
BRANCH   6  18
ATOM     18  C   UNL     1      -1.298  -0.659   0.142  0.00  0.00    +0.330 C 
BRANCH  18  19
ATOM     19  O   UNL     1      -0.012   0.016   0.151  0.00  0.00    -0.452 OA
BRANCH  19  20
ATOM     20  C   UNL     1      -0.022   1.353  -0.015  0.00  0.00    +0.340 C 
ATOM     21  O   UNL     1      -1.076   1.939  -0.169  0.00  0.00    -0.245 OA
BRANCH  20  22
ATOM     22  C   UNL     1       1.246   2.105  -0.017  0.00  0.00    +0.059 A 
ATOM     23  C   UNL     1       2.459   1.433   0.160  0.00  0.00    +0.017 A 
ATOM     24  C   UNL     1       3.642   2.138   0.152  0.00  0.00    +0.024 A 
ATOM     25  C   UNL     1       3.630   3.518  -0.020  0.00  0.00    +0.035 A 
ATOM     26  C   UNL     1       2.424   4.191  -0.190  0.00  0.00    +0.024 A 
ATOM     27  C   UNL     1       1.238   3.493  -0.189  0.00  0.00    +0.017 A 
BRANCH  25  28
ATOM     28  N   UNL     1       4.829   4.229  -0.022  0.00  0.00    -0.270 N 
ATOM     29  C   UNL     1       4.872   5.481   0.477  0.00  0.00    +0.301 C 
ATOM     30  O   UNL     1       3.890   5.954   1.017  0.00  0.00    -0.253 OA
ATOM     31  N   UNL     1       6.002   6.207   0.379  0.00  0.00    -0.313 N 
ATOM     32  H   UNL     1       5.740   3.769  -0.431  0.00  0.00    +0.156 HD
ATOM     33  H   UNL     1       6.037   7.229   0.786  0.00  0.00    +0.146 HD
ATOM     34  H   UNL     1       6.890   5.779  -0.109  0.00  0.00    +0.146 HD
ENDBRANCH  25  28
ENDBRANCH  20  22
ENDBRANCH  19  20
ENDBRANCH  18  19
ENDBRANCH   6  18
TORSDOF 7
