REMARK  Name = ZINC49510308
REMARK  3 active torsions:
REMARK  status: ('A' for Active; 'I' for Inactive)
REMARK    1  A    between atoms: C_1  and  C_2
REMARK    2  A    between atoms: C_2  and  C_4
REMARK    3  A    between atoms: C_2  and  N_11
REMARK                            x       y       z     vdW  Elec       q    Type
REMARK                         _______ _______ _______ _____ _____    ______ ____
ROOT
ATOM      1  N   UNL     1       0.832  -0.457   1.125  0.00  0.00    -0.305 N 
ATOM      2  C   UNL     1       1.462   0.351   2.057  0.00  0.00    +0.071 A 
ATOM      3  C   UNL     1       1.554   1.724   2.234  0.00  0.00    +0.029 A 
ATOM      4  C   UNL     1       2.279   2.233   3.292  0.00  0.00    +0.022 A 
ATOM      5  C   UNL     1       2.917   1.380   4.182  0.00  0.00    +0.043 A 
ATOM      6  C   UNL     1       2.836   0.014   4.021  0.00  0.00    +0.050 A 
ATOM      7  C   UNL     1       2.105  -0.516   2.955  0.00  0.00    +0.092 A 
ATOM      8  N   UNL     1       1.846  -1.785   2.540  0.00  0.00    -0.215 NA
ATOM      9  C   UNL     1       1.093  -1.752   1.469  0.00  0.00    +0.195 A 
ATOM     10  N   UNL     1       0.635  -2.860   0.788  0.00  0.00    -0.329 N 
ATOM     11 CL   UNL     1       3.825   2.039   5.507  0.00  0.00    -0.083 Cl
ATOM     12  H   UNL     1       0.016  -2.754   0.049  0.00  0.00    +0.145 HD
ATOM     13  H   UNL     1       0.933  -3.746   1.048  0.00  0.00    +0.145 HD
ENDROOT
BRANCH   1  15
ATOM     14  C   UNL     1      -0.160   1.511   0.063  0.00  0.00    +0.036 C 
ATOM     15  C   UNL     1       0.029  -0.005  -0.015  0.00  0.00    +0.119 C 
BRANCH  15  16
ATOM     16  C   UNL     1       0.736  -0.359  -1.298  0.00  0.00    -0.007 A 
ATOM     17  C   UNL     1       2.045   0.036  -1.498  0.00  0.00    +0.007 A 
ATOM     18  C   UNL     1       2.694  -0.288  -2.675  0.00  0.00    +0.000 A 
ATOM     19  C   UNL     1       2.033  -1.007  -3.653  0.00  0.00    +0.001 A 
ATOM     20  C   UNL     1       0.723  -1.402  -3.455  0.00  0.00    +0.020 A 
ATOM     21  C   UNL     1       0.076  -1.083  -2.275  0.00  0.00    +0.046 A 
ATOM     22 CL   UNL     1      -1.567  -1.585  -2.022  0.00  0.00    -0.083 Cl
ENDBRANCH  15  16
ENDBRANCH   1  15
TORSDOF 2
