REMARK  Name = ZINC41088132
REMARK  5 active torsions:
REMARK  status: ('A' for Active; 'I' for Inactive)
REMARK    1  A    between atoms: C_1  and  C_2
REMARK    2  A    between atoms: C_7  and  O_10
REMARK    3  A    between atoms: O_10  and  C_11
REMARK    4  A    between atoms: C_11  and  C_13
REMARK    5  A    between atoms: C_17  and  N_19
REMARK                            x       y       z     vdW  Elec       q    Type
REMARK                         _______ _______ _______ _____ _____    ______ ____
ROOT
ATOM      1  C   UNL     1       2.104  -3.689   2.277  0.00  0.00    +0.340 C 
ATOM      2  O   UNL     1       2.084  -4.295   1.225  0.00  0.00    -0.245 OA
ENDROOT
BRANCH   1   3
ATOM      3  C   UNL     1       2.840  -4.240   3.433  0.00  0.00    +0.061 A 
ATOM      4  C   UNL     1       2.859  -3.548   4.646  0.00  0.00    +0.016 A 
ATOM      5  C   UNL     1       3.547  -4.065   5.724  0.00  0.00    +0.018 A 
ATOM      6  C   UNL     1       4.220  -5.268   5.609  0.00  0.00    +0.039 A 
ATOM      7  C   UNL     1       4.208  -5.965   4.405  0.00  0.00    +0.039 A 
ATOM      8  C   UNL     1       3.514  -5.457   3.318  0.00  0.00    +0.038 A 
ATOM      9 BR   UNL     1       5.161  -5.968   7.093  0.00  0.00    -0.048 Br
BRANCH   7  10
ATOM     10  N   UNL     1       4.889  -7.179   4.294  0.00  0.00    -0.357 N 
ATOM     11  H   UNL     1       5.371  -7.537   5.056  0.00  0.00    +0.142 HD
ATOM     12  H   UNL     1       4.881  -7.665   3.454  0.00  0.00    +0.142 HD
ENDBRANCH   7  10
ENDBRANCH   1   3
BRANCH   1  13
ATOM     13  O   UNL     1       1.454  -2.514   2.391  0.00  0.00    -0.458 OA
BRANCH  13  19
ATOM     14  C   UNL     1      -0.019   1.526   0.010  0.00  0.00    +0.007 C 
ATOM     15  C   UNL     1       0.002  -0.004   0.002  0.00  0.00    -0.011 C 
ATOM     16  C   UNL     1      -1.433  -0.534   0.013  0.00  0.00    +0.003 C 
ATOM     17  C   UNL     1      -1.413  -2.063   0.004  0.00  0.00    +0.004 C 
ATOM     18  C   UNL     1      -0.673  -2.570   1.244  0.00  0.00    +0.045 C 
ATOM     19  C   UNL     1       0.763  -2.041   1.233  0.00  0.00    +0.177 C 
ATOM     20  C   UNL     1       0.742  -0.511   1.242  0.00  0.00    +0.048 C 
ENDBRANCH  13  19
ENDBRANCH   1  13
TORSDOF 4
