REMARK  Name = ZINC36249069
REMARK  11 active torsions:
REMARK  status: ('A' for Active; 'I' for Inactive)
REMARK    1  A    between atoms: C_1  and  C_2
REMARK    2  A    between atoms: C_5  and  N_8
REMARK    3  A    between atoms: N_11  and  C_12
REMARK    4  A    between atoms: N_11  and  C_17
REMARK    5  A    between atoms: C_12  and  C_13
REMARK    6  A    between atoms: C_13  and  N_14
REMARK    7  A    between atoms: N_14  and  C_15
REMARK    8  A    between atoms: N_14  and  C_16
REMARK    9  A    between atoms: C_17  and  C_18
REMARK   10  A    between atoms: C_19  and  C_33
REMARK   11  A    between atoms: C_22  and  N_23
REMARK                            x       y       z     vdW  Elec       q    Type
REMARK                         _______ _______ _______ _____ _____    ______ ____
ROOT
ATOM      1  C   UNL     1      -1.960  -7.412   3.155  0.00  0.00    +0.059 A 
ATOM      2  C   UNL     1      -2.522  -6.264   3.751  0.00  0.00    +0.120 A 
ATOM      3  N   UNL     1      -3.825  -6.420   3.781  0.00  0.00    -0.076 NA
ATOM      4  O   UNL     1      -4.129  -7.677   3.203  0.00  0.00    -0.339 OA
ATOM      5  C   UNL     1      -2.974  -8.253   2.829  0.00  0.00    +0.226 A 
ENDROOT
BRANCH   5   6
ATOM      6  N   UNL     1      -2.842  -9.487   2.219  0.00  0.00    -0.294 N 
ATOM      7  C   UNL     1      -2.305 -10.648   2.949  0.00  0.00    +0.113 C 
ATOM      8  C   UNL     1      -3.415 -11.694   3.047  0.00  0.00    +0.054 C 
ATOM      9  C   UNL     1      -4.076 -11.902   1.710  0.00  0.00    -0.041 A 
ATOM     10  C   UNL     1      -4.785 -13.082   1.518  0.00  0.00    +0.004 A 
ATOM     11  C   UNL     1      -5.422 -13.331   0.321  0.00  0.00    +0.000 A 
ATOM     12  C   UNL     1      -5.358 -12.399  -0.699  0.00  0.00    +0.000 A 
ATOM     13  C   UNL     1      -4.653 -11.228  -0.512  0.00  0.00    +0.005 A 
ATOM     14  C   UNL     1      -4.006 -10.979   0.691  0.00  0.00    -0.027 A 
ATOM     15  C   UNL     1      -3.236  -9.694   0.821  0.00  0.00    +0.143 C 
ENDBRANCH   5   6
BRANCH   2  16
ATOM     16  C   UNL     1      -1.772  -5.086   4.255  0.00  0.00    +0.004 A 
ATOM     17  C   UNL     1      -0.590  -5.263   4.969  0.00  0.00    +0.010 A 
ATOM     18  C   UNL     1       0.104  -4.164   5.434  0.00  0.00    +0.001 A 
ATOM     19  C   UNL     1      -0.374  -2.889   5.193  0.00  0.00    +0.000 A 
ATOM     20  C   UNL     1      -1.548  -2.707   4.485  0.00  0.00    +0.001 A 
ATOM     21  C   UNL     1      -2.246  -3.799   4.010  0.00  0.00    +0.010 A 
ENDBRANCH   2  16
BRANCH   1  22
ATOM     22  C   UNL     1      -0.493  -7.659   2.917  0.00  0.00    +0.151 C 
BRANCH  22  26
ATOM     23  N   UNL     1       0.838  -5.253   0.476  0.00  0.00    -0.269 N 
ATOM     24  C   UNL     1       0.471  -5.820   1.643  0.00  0.00    +0.307 C 
ATOM     25  O   UNL     1       0.648  -5.226   2.689  0.00  0.00    -0.252 OA
ATOM     26  N   UNL     1      -0.093  -7.044   1.649  0.00  0.00    -0.283 N 
ATOM     27  H   UNL     1       0.645  -5.701  -0.363  0.00  0.00    +0.156 HD
BRANCH  23  32
ATOM     28  C   UNL     1       3.519  -0.254   0.469  0.00  0.00    +0.044 C 
ATOM     29  C   UNL     1       2.807  -1.582   0.471  0.00  0.00    -0.050 A 
ATOM     30  C   UNL     1       3.077  -2.508   1.462  0.00  0.00    +0.005 A 
ATOM     31  C   UNL     1       2.426  -3.726   1.466  0.00  0.00    +0.023 A 
ATOM     32  C   UNL     1       1.499  -4.020   0.474  0.00  0.00    +0.035 A 
ATOM     33  C   UNL     1       1.231  -3.088  -0.519  0.00  0.00    +0.023 A 
ATOM     34  C   UNL     1       1.881  -1.869  -0.515  0.00  0.00    +0.005 A 
ENDBRANCH  23  32
BRANCH  26  35
ATOM     35  C   UNL     1      -0.306  -7.759   0.389  0.00  0.00    +0.091 C 
BRANCH  35  36
ATOM     36  C   UNL     1       0.897  -8.661   0.104  0.00  0.00    -0.060 C 
BRANCH  36  37
ATOM     37  N   UNL     1       0.713  -9.328  -1.192  0.00  0.00    +0.377 N 
ATOM     38  C   UNL     1       0.746  -8.327  -2.267  0.00  0.00    -0.097 C 
ATOM     39  C   UNL     1       1.792 -10.303  -1.398  0.00  0.00    -0.097 C 
ATOM     40  H   UNL     1      -0.177  -9.803  -1.202  0.00  0.00    -0.083 HD
ENDBRANCH  36  37
ENDBRANCH  35  36
ENDBRANCH  26  35
ENDBRANCH  22  26
ENDBRANCH   1  22
TORSDOF 8
