REMARK  Name = ZINC14060053
REMARK  5 active torsions:
REMARK  status: ('A' for Active; 'I' for Inactive)
REMARK    1  A    between atoms: C_4  and  N_22
REMARK    2  A    between atoms: C_5  and  C_7
REMARK    3  A    between atoms: C_7  and  O_9
REMARK    4  A    between atoms: O_9  and  C_10
REMARK    5  A    between atoms: C_10  and  C_11
REMARK                            x       y       z     vdW  Elec       q    Type
REMARK                         _______ _______ _______ _____ _____    ______ ____
ROOT
ATOM      1  O   UNL     1       3.808   3.249   0.105  0.00  0.00    -0.455 OA
ENDROOT
BRANCH   1   2
ATOM      2  C   UNL     1       3.685   1.911  -0.005  0.00  0.00    +0.361 C 
ATOM      3  O   UNL     1       4.676   1.216  -0.104  0.00  0.00    -0.243 OA
BRANCH   2   8
ATOM      4  C   UNL     1       0.062   1.497  -0.008  0.00  0.00    +0.131 A 
ATOM      5  C   UNL     1      -0.067   0.115  -0.004  0.00  0.00    +0.132 A 
ATOM      6  N   UNL     1       1.005  -0.655  -0.001  0.00  0.00    -0.237 NA
ATOM      7  C   UNL     1       2.216  -0.108  -0.001  0.00  0.00    +0.149 A 
ATOM      8  C   UNL     1       2.346   1.291  -0.005  0.00  0.00    +0.187 A 
ATOM      9  N   UNL     1       1.255   2.054  -0.008  0.00  0.00    -0.244 NA
BRANCH   7  10
ATOM     10  N   UNL     1       3.341  -0.910   0.003  0.00  0.00    -0.341 N 
ATOM     11  H   UNL     1       3.251  -1.872   0.085  0.00  0.00    +0.144 HD
ATOM     12  H   UNL     1       4.222  -0.511  -0.076  0.00  0.00    +0.144 HD
ENDBRANCH   7  10
ENDBRANCH   2   8
ENDBRANCH   1   2
BRANCH   1  13
ATOM     13  C   UNL     1       5.155   3.789   0.098  0.00  0.00    +0.269 C 
BRANCH  13  14
ATOM     14  C   UNL     1       5.095   5.290   0.230  0.00  0.00    +0.007 A 
ATOM     15  C   UNL     1       3.872   5.925   0.333  0.00  0.00    +0.057 A 
ATOM     16  C   UNL     1       3.814   7.305   0.455  0.00  0.00    +0.163 A 
ATOM     17  C   UNL     1       4.988   8.048   0.475  0.00  0.00    +0.163 A 
ATOM     18  C   UNL     1       6.213   7.405   0.369  0.00  0.00    +0.065 A 
ATOM     19  C   UNL     1       6.264   6.028   0.253  0.00  0.00    +0.028 A 
ATOM     20 BR   UNL     1       7.936   5.154   0.117  0.00  0.00    -0.050 Br
ATOM     21  O   UNL     1       4.954   9.403   0.598  0.00  0.00    -0.485 OA
ATOM     22  C   UNL     1       3.702  10.042   0.324  0.00  0.00    +0.270 C 
ATOM     23  C   UNL     1       2.596   9.260   1.046  0.00  0.00    +0.270 C 
ATOM     24  O   UNL     1       2.601   7.916   0.552  0.00  0.00    -0.485 OA
ENDBRANCH  13  14
ENDBRANCH   1  13
TORSDOF 5
