REMARK  Name = ZINC03373647
REMARK  7 active torsions:
REMARK  status: ('A' for Active; 'I' for Inactive)
REMARK    1  A    between atoms: C_1  and  C_2
REMARK    2  A    between atoms: C_2  and  N_3
REMARK    3  A    between atoms: C_7  and  C_9
REMARK    4  A    between atoms: C_9  and  C_11
REMARK    5  A    between atoms: C_9  and  S_12
REMARK    6  A    between atoms: S_12  and  C_13
REMARK    7  A    between atoms: N_25  and  C_26
REMARK                            x       y       z     vdW  Elec       q    Type
REMARK                         _______ _______ _______ _____ _____    ______ ____
ROOT
ATOM      1  C   UNL     1       1.108   2.013   0.002  0.00  0.00    +0.173 A 
ATOM      2  N   UNL     1      -0.016   1.324   0.009  0.00  0.00    -0.216 NA
ATOM      3  C   UNL     1       0.002  -0.004   0.002  0.00  0.00    +0.117 A 
ATOM      4  C   UNL     1       1.200  -0.733  -0.014  0.00  0.00    +0.076 A 
ATOM      5  C   UNL     1       1.063  -2.199  -0.022  0.00  0.00    -0.023 A 
ATOM      6  C   UNL     1      -0.185  -2.693  -0.010  0.00  0.00    -0.004 A 
ATOM      7  S   UNL     1      -1.245  -1.265   0.008  0.00  0.00    -0.073 S 
ATOM      8  C   UNL     1      -0.202  -4.198  -0.016  0.00  0.00    +0.043 C 
ATOM      9  C   UNL     1       1.229  -4.603   0.402  0.00  0.00    +0.010 C 
ATOM     10  C   UNL     1       2.045  -3.374  -0.046  0.00  0.00    +0.037 C 
ATOM     11  C   UNL     1       2.404   0.038  -0.021  0.00  0.00    +0.263 A 
ATOM     12  O   UNL     1       3.492  -0.513  -0.034  0.00  0.00    -0.267 OA
ATOM     13  N   UNL     1       2.318   1.381  -0.011  0.00  0.00    -0.290 N 
ATOM     14  C   UNL     1       3.546   2.181  -0.018  0.00  0.00    +0.154 C 
ENDROOT
BRANCH   1  15
ATOM     15  S   UNL     1       1.047   3.774   0.012  0.00  0.00    -0.075 S 
BRANCH  15  16
ATOM     16  C   UNL     1      -0.745   4.026   0.031  0.00  0.00    +0.137 C 
ATOM     17  C   UNL     1      -1.322   3.487   1.341  0.00  0.00    +0.029 C 
BRANCH  16  22
ATOM     18  N   UNL     1      -3.750   7.635  -0.998  0.00  0.00    -0.299 N 
ATOM     19  C   UNL     1      -2.532   7.225  -0.590  0.00  0.00    +0.306 C 
ATOM     20  O   UNL     1      -1.677   8.043  -0.314  0.00  0.00    -0.252 OA
ATOM     21  N   UNL     1      -2.263   5.908  -0.489  0.00  0.00    -0.239 N 
ATOM     22  C   UNL     1      -1.046   5.499  -0.082  0.00  0.00    +0.233 C 
ATOM     23  O   UNL     1      -0.192   6.315   0.194  0.00  0.00    -0.274 OA
ATOM     24  H   UNL     1      -4.433   6.982  -1.218  0.00  0.00    +0.150 HD
ATOM     25  H   UNL     1      -2.946   5.256  -0.710  0.00  0.00    +0.159 HD
BRANCH  18  27
ATOM     26  C   UNL     1      -5.483   9.257  -1.587  0.00  0.00    +0.024 C 
ATOM     27  C   UNL     1      -4.042   9.066  -1.107  0.00  0.00    +0.102 C 
ENDBRANCH  18  27
ENDBRANCH  16  22
ENDBRANCH  15  16
ENDBRANCH   1  15
TORSDOF 4
