REMARK  Name = ZINC66249841
REMARK  6 active torsions:
REMARK  status: ('A' for Active; 'I' for Inactive)
REMARK    1  A    between atoms: C_1  and  C_2
REMARK    2  A    between atoms: C_5  and  C_25
REMARK    3  A    between atoms: N_11  and  S_12
REMARK    4  A    between atoms: S_12  and  C_15
REMARK    5  A    between atoms: C_19  and  S_21
REMARK    6  A    between atoms: S_21  and  C_24
REMARK                            x       y       z     vdW  Elec       q    Type
REMARK                         _______ _______ _______ _____ _____    ______ ____
ROOT
ATOM      1  C   UNL     1      -0.018   1.503   0.010  0.00  0.00    +0.046 C 
ATOM      2  C   UNL     1       0.002  -0.004   0.002  0.00  0.00    -0.026 A 
ATOM      3  C   UNL     1       0.006  -0.676  -1.198  0.00  0.00    +0.006 A 
ATOM      4  C   UNL     1       0.025  -2.058  -1.246  0.00  0.00    +0.005 A 
ATOM      5  C   UNL     1       0.040  -2.774  -0.061  0.00  0.00    -0.035 A 
ATOM      6  C   UNL     1       0.037  -2.103   1.138  0.00  0.00    +0.042 A 
ATOM      7  C   UNL     1       0.023  -0.703   1.220  0.00  0.00    +0.058 A 
ATOM      8  N   UNL     1       0.028  -0.168   2.499  0.00  0.00    -0.332 N 
ATOM      9  C   UNL     1       0.049  -1.000   3.591  0.00  0.00    +0.192 A 
ATOM     10  S   UNL     1       0.051  -2.619   2.838  0.00  0.00    -0.048 S 
ATOM     11  N   UNL     1       0.057  -0.687   4.859  0.00  0.00    -0.103 NA
ATOM     12  C   UNL     1       0.061  -4.280  -0.085  0.00  0.00    +0.045 C 
ATOM     13  H   UNL     1       0.016   0.794   2.622  0.00  0.00    +0.168 HD
ENDROOT
BRANCH  11  14
ATOM     14  S   UNL     1       0.040   0.904   5.320  0.00  0.00    +0.101 S 
ATOM     15  O   UNL     1       1.274   1.464   4.892  0.00  0.00    -0.146 OA
ATOM     16  O   UNL     1      -1.217   1.430   4.915  0.00  0.00    -0.146 OA
BRANCH  14  17
ATOM     17  C   UNL     1       0.056   0.936   7.081  0.00  0.00    +0.114 A 
ATOM     18  C   UNL     1      -1.135   0.927   7.784  0.00  0.00    +0.029 A 
ATOM     19  C   UNL     1      -1.122   0.953   9.166  0.00  0.00    +0.004 A 
ATOM     20  C   UNL     1       0.082   0.987   9.845  0.00  0.00    +0.027 A 
ATOM     21  C   UNL     1       1.272   0.996   9.143  0.00  0.00    +0.090 A 
ATOM     22  C   UNL     1       1.259   0.966   7.761  0.00  0.00    +0.056 A 
BRANCH  21  23
ATOM     23  S   UNL     1       2.806   1.040  10.009  0.00  0.00    -0.006 S 
ATOM     24  O   UNL     1       3.718   1.643   9.101  0.00  0.00    -0.170 OA
ATOM     25  O   UNL     1       2.503   1.661  11.251  0.00  0.00    -0.170 OA
ATOM     26  C   UNL     1       3.244  -0.701  10.272  0.00  0.00    +0.200 C 
ENDBRANCH  21  23
ENDBRANCH  14  17
ENDBRANCH  11  14
TORSDOF 3
