REMARK  Name = ZINC10293486
REMARK  6 active torsions:
REMARK  status: ('A' for Active; 'I' for Inactive)
REMARK    1  A    between atoms: C_3  and  C_6
REMARK    2  A    between atoms: C_6  and  C_8
REMARK    3  A    between atoms: C_6  and  N_15
REMARK    4  A    between atoms: C_16  and  C_18
REMARK    5  A    between atoms: C_18  and  C_19
REMARK    6  A    between atoms: C_28  and  O_31
REMARK                            x       y       z     vdW  Elec       q    Type
REMARK                         _______ _______ _______ _____ _____    ______ ____
ROOT
ATOM      1  N   UNL     1       2.070   5.276  -0.878  0.00  0.00    -0.304 N 
ATOM      2  C   UNL     1       1.878   5.482  -2.196  0.00  0.00    +0.214 C 
ATOM      3  O   UNL     1       0.753   5.570  -2.639  0.00  0.00    -0.276 OA
ATOM      4  H   UNL     1       2.970   5.206  -0.524  0.00  0.00    +0.150 HD
ENDROOT
BRANCH   1   5
ATOM      5  C   UNL     1       0.918   5.160   0.020  0.00  0.00    +0.140 C 
BRANCH   5   6
ATOM      6  C   UNL     1       1.329   5.546   1.417  0.00  0.00    -0.022 A 
ATOM      7  C   UNL     1       2.558   5.147   1.911  0.00  0.00    +0.008 A 
ATOM      8  C   UNL     1       2.938   5.505   3.190  0.00  0.00    +0.038 A 
ATOM      9  C   UNL     1       2.084   6.255   3.981  0.00  0.00    +0.123 A 
ATOM     10  C   UNL     1       0.853   6.649   3.488  0.00  0.00    +0.038 A 
ATOM     11  C   UNL     1       0.476   6.295   2.206  0.00  0.00    +0.008 A 
ATOM     12  F   UNL     1       2.453   6.600   5.234  0.00  0.00    -0.205 F 
ENDBRANCH   5   6
BRANCH   5  15
ATOM     13  C   UNL     1      -1.077   1.915   0.017  0.00  0.00    +0.008 A 
ATOM     14  C   UNL     1      -0.855   3.279   0.027  0.00  0.00    +0.013 A 
ATOM     15  C   UNL     1       0.421   3.738   0.017  0.00  0.00    +0.014 A 
ATOM     16  S   UNL     1       1.359   2.219   0.001  0.00  0.00    -0.099 S 
ATOM     17  C   UNL     1      -0.013   1.076   0.008  0.00  0.00    +0.045 A 
ENDBRANCH   5  15
ENDBRANCH   1   5
BRANCH   2  18
ATOM     18  C   UNL     1       3.063   5.601  -3.120  0.00  0.00    +0.102 C 
BRANCH  18  19
ATOM     19  C   UNL     1       2.573   5.829  -4.551  0.00  0.00    -0.018 C 
ATOM     20  C   UNL     1       1.704   4.648  -4.987  0.00  0.00    +0.011 C 
ATOM     21  C   UNL     1       1.214   4.876  -6.418  0.00  0.00    -0.007 C 
ATOM     22  C   UNL     1       0.390   6.164  -6.476  0.00  0.00    +0.007 C 
ATOM     23  C   UNL     1       1.259   7.345  -6.041  0.00  0.00    -0.007 C 
ATOM     24  C   UNL     1       1.749   7.117  -4.609  0.00  0.00    +0.011 C 
ATOM     25  C   UNL     1       2.462   7.466  -6.979  0.00  0.00    +0.038 C 
ATOM     26  C   UNL     1       3.286   6.178  -6.921  0.00  0.00    +0.067 C 
ATOM     27  C   UNL     1       2.416   4.997  -7.356  0.00  0.00    +0.038 C 
ATOM     28  C   UNL     1       3.776   5.950  -5.489  0.00  0.00    +0.042 C 
BRANCH  26  29
ATOM     29  O   UNL     1       4.409   6.292  -7.796  0.00  0.00    -0.389 OA
ATOM     30  H   UNL     1       4.173   6.438  -8.723  0.00  0.00    +0.210 HD
ENDBRANCH  26  29
ENDBRANCH  18  19
ENDBRANCH   2  18
TORSDOF 6
