REMARK  Name = ZINC08646422
REMARK  8 active torsions:
REMARK  status: ('A' for Active; 'I' for Inactive)
REMARK    1  A    between atoms: C_1  and  C_2
REMARK    2  A    between atoms: C_2  and  C_4
REMARK    3  A    between atoms: C_2  and  N_11
REMARK    4  A    between atoms: C_12  and  C_14
REMARK    5  A    between atoms: C_14  and  N_15
REMARK    6  A    between atoms: C_18  and  C_22
REMARK    7  A    between atoms: C_18  and  C_23
REMARK    8  A    between atoms: C_26  and  N_29
REMARK                            x       y       z     vdW  Elec       q    Type
REMARK                         _______ _______ _______ _____ _____    ______ ____
ROOT
ATOM      1  N   UNL     1       1.304  -0.351  -0.012  0.00  0.00    -0.215 N 
ATOM      2  C   UNL     1       0.002  -0.004   0.002  0.00  0.00    +0.251 C 
ATOM      3  O   UNL     1      -0.954  -0.749   0.008  0.00  0.00    -0.272 OA
ATOM      4  C   UNL     1      -0.018   1.512   0.010  0.00  0.00    +0.135 C 
ATOM      5  N   UNL     1       1.409   1.877  -0.001  0.00  0.00    -0.281 N 
ATOM      6  C   UNL     1       2.101   0.724  -0.014  0.00  0.00    +0.310 C 
ATOM      7  O   UNL     1       3.315   0.665  -0.026  0.00  0.00    -0.252 OA
ATOM      8  C   UNL     1      -0.698   2.034   1.278  0.00  0.00    +0.047 C 
ATOM      9  H   UNL     1       1.777   2.775  -0.000  0.00  0.00    +0.152 HD
ENDROOT
BRANCH   4  10
ATOM     10  C   UNL     1      -0.711   2.039  -1.220  0.00  0.00    -0.015 A 
ATOM     11  C   UNL     1      -1.712   1.299  -1.820  0.00  0.00    +0.008 A 
ATOM     12  C   UNL     1      -2.351   1.785  -2.946  0.00  0.00    +0.033 A 
ATOM     13  C   UNL     1      -1.981   3.007  -3.477  0.00  0.00    +0.126 A 
ATOM     14  C   UNL     1      -0.977   3.745  -2.879  0.00  0.00    +0.033 A 
ATOM     15  C   UNL     1      -0.342   3.261  -1.750  0.00  0.00    +0.008 A 
BRANCH  13  16
ATOM     16  N   UNL     1      -2.661   3.525  -4.685  0.00  0.00    +0.056 N 
ATOM     17  O   UNL     1      -2.335   4.601  -5.153  0.00  0.00    -0.126 OA
ATOM     18  O   UNL     1      -3.546   2.874  -5.212  0.00  0.00    -0.126 OA
ENDBRANCH  13  16
ENDBRANCH   4  10
BRANCH   1  19
ATOM     19  C   UNL     1       1.788  -1.734  -0.025  0.00  0.00    +0.213 C 
BRANCH  19  21
ATOM     20  N   UNL     1       2.375  -3.449  -1.708  0.00  0.00    -0.307 N 
ATOM     21  C   UNL     1       1.940  -2.199  -1.450  0.00  0.00    +0.231 C 
ATOM     22  O   UNL     1       1.671  -1.450  -2.365  0.00  0.00    -0.274 OA
ATOM     23  H   UNL     1       2.590  -4.048  -0.976  0.00  0.00    +0.149 HD
BRANCH  20  25
ATOM     24  C   UNL     1       3.892  -3.473  -3.627  0.00  0.00    +0.033 C 
ATOM     25  C   UNL     1       2.523  -3.901  -3.093  0.00  0.00    +0.100 C 
BRANCH  25  26
ATOM     26  C   UNL     1       2.412  -5.403  -3.146  0.00  0.00    -0.027 A 
ATOM     27  C   UNL     1       3.004  -6.174  -2.163  0.00  0.00    +0.008 A 
ATOM     28  C   UNL     1       2.899  -7.552  -2.207  0.00  0.00    +0.038 A 
ATOM     29  C   UNL     1       2.208  -8.160  -3.242  0.00  0.00    +0.123 A 
ATOM     30  C   UNL     1       1.620  -7.386  -4.229  0.00  0.00    +0.038 A 
ATOM     31  C   UNL     1       1.723  -6.009  -4.180  0.00  0.00    +0.008 A 
ATOM     32  F   UNL     1       2.109  -9.506  -3.289  0.00  0.00    -0.205 F 
ENDBRANCH  25  26
ENDBRANCH  20  25
ENDBRANCH  19  21
ENDBRANCH   1  19
TORSDOF 6
