REMARK  Name = ZINC05548960
REMARK  6 active torsions:
REMARK  status: ('A' for Active; 'I' for Inactive)
REMARK    1  A    between atoms: C_1  and  C_2
REMARK    2  A    between atoms: C_7  and  C_8
REMARK    3  A    between atoms: N_9  and  N_10
REMARK    4  A    between atoms: C_11  and  C_13
REMARK    5  A    between atoms: C_13  and  N_14
REMARK    6  A    between atoms: C_16  and  C_19
REMARK                            x       y       z     vdW  Elec       q    Type
REMARK                         _______ _______ _______ _____ _____    ______ ____
ROOT
ATOM      1  N   UNL     1       5.617   7.005  -1.802  0.00  0.00    -0.205 N 
ATOM      2  C   UNL     1       5.080   5.789  -1.580  0.00  0.00    +0.255 C 
ATOM      3  O   UNL     1       4.955   5.004  -2.497  0.00  0.00    -0.272 OA
ATOM      4  H   UNL     1       5.717   7.632  -1.069  0.00  0.00    +0.177 HD
ENDROOT
BRANCH   1   6
ATOM      5  C   UNL     1       6.548   8.534  -3.306  0.00  0.00    +0.138 C 
ATOM      6  N   UNL     1       6.031   7.363  -3.092  0.00  0.00    -0.188 NA
BRANCH   5  13
ATOM      7  C   UNL     1       6.455   6.573  -5.431  0.00  0.00    +0.044 C 
ATOM      8  C   UNL     1       6.944   7.973  -5.699  0.00  0.00    -0.042 A 
ATOM      9  C   UNL     1       7.352   8.333  -6.966  0.00  0.00    +0.004 A 
ATOM     10  C   UNL     1       7.801   9.618  -7.214  0.00  0.00    +0.000 A 
ATOM     11  C   UNL     1       7.844  10.552  -6.193  0.00  0.00    +0.001 A 
ATOM     12  C   UNL     1       7.433  10.208  -4.922  0.00  0.00    +0.010 A 
ATOM     13  C   UNL     1       6.984   8.910  -4.664  0.00  0.00    -0.003 A 
ENDBRANCH   5  13
ENDBRANCH   1   6
BRANCH   2  14
ATOM     14  C   UNL     1       4.635   5.404  -0.193  0.00  0.00    +0.265 C 
BRANCH  14  15
ATOM     15  N   UNL     1       4.091   4.044  -0.214  0.00  0.00    -0.154 N 
ATOM     16  N   UNL     1       2.858   3.737  -0.431  0.00  0.00    -0.130 NA
ATOM     17  C   UNL     1       2.752   2.425  -0.368  0.00  0.00    +0.205 A 
ATOM     18  N   UNL     1       3.979   1.952  -0.112  0.00  0.00    -0.108 NA
ATOM     19  N   UNL     1       4.771   2.967  -0.025  0.00  0.00    -0.045 NA
BRANCH  17  20
ATOM     20  C   UNL     1       1.514   1.626  -0.551  0.00  0.00    +0.023 A 
ATOM     21  C   UNL     1       0.303   2.264  -0.812  0.00  0.00    +0.012 A 
ATOM     22  C   UNL     1      -0.845   1.516  -0.981  0.00  0.00    +0.001 A 
ATOM     23  C   UNL     1      -0.795   0.137  -0.891  0.00  0.00    +0.000 A 
ATOM     24  C   UNL     1       0.405  -0.501  -0.630  0.00  0.00    +0.001 A 
ATOM     25  C   UNL     1       1.559   0.237  -0.460  0.00  0.00    +0.012 A 
ENDBRANCH  17  20
ENDBRANCH  14  15
ENDBRANCH   2  14
TORSDOF 5
