REMARK  Name = ZINC38709239
REMARK  3 active torsions:
REMARK  status: ('A' for Active; 'I' for Inactive)
REMARK    1  A    between atoms: C_10  and  C_12
REMARK    2  A    between atoms: N_14  and  C_15
REMARK    3  A    between atoms: C_24  and  C_26
REMARK                            x       y       z     vdW  Elec       q    Type
REMARK                         _______ _______ _______ _____ _____    ______ ____
ROOT
ATOM      1  C   UNL     1       7.392  -2.170   0.855  0.00  0.00    +0.036 A 
ATOM      2  C   UNL     1       7.574  -3.515   1.152  0.00  0.00    +0.024 A 
ATOM      3  C   UNL     1       8.828  -3.976   1.503  0.00  0.00    +0.007 A 
ATOM      4  C   UNL     1       9.899  -3.105   1.559  0.00  0.00    -0.024 A 
ATOM      5  C   UNL     1       9.732  -1.760   1.265  0.00  0.00    +0.042 A 
ATOM      6  C   UNL     1       8.466  -1.297   0.905  0.00  0.00    +0.047 A 
ATOM      7  N   UNL     1      10.932  -1.054   1.380  0.00  0.00    -0.264 N 
ATOM      8  C   UNL     1      12.012  -1.960   1.780  0.00  0.00    +0.119 C 
ATOM      9  C   UNL     1      11.351  -3.343   1.908  0.00  0.00    +0.056 C 
ATOM     10  C   UNL     1      11.076   0.267   1.155  0.00  0.00    +0.286 C 
ATOM     11  O   UNL     1      10.115   0.936   0.825  0.00  0.00    -0.266 OA
ENDROOT
BRANCH  10  12
ATOM     12  C   UNL     1      12.391   0.898   1.308  0.00  0.00    +0.190 A 
ATOM     13  C   UNL     1      12.673   2.220   1.118  0.00  0.00    +0.054 A 
ATOM     14  C   UNL     1      14.044   2.380   1.371  0.00  0.00    +0.042 A 
ATOM     15  C   UNL     1      14.533   1.164   1.701  0.00  0.00    +0.196 A 
ATOM     16  O   UNL     1      13.532   0.275   1.667  0.00  0.00    -0.458 OA
ENDBRANCH  10  12
BRANCH   1  19
ATOM     17  C   UNL     1       5.025  -2.225   1.073  0.00  0.00    +0.284 C 
ATOM     18  O   UNL     1       5.128  -3.166   1.836  0.00  0.00    -0.266 OA
ATOM     19  N   UNL     1       6.125  -1.699   0.499  0.00  0.00    -0.279 N 
ATOM     20  H   UNL     1       6.037  -0.993  -0.160  0.00  0.00    +0.155 HD
BRANCH  17  30
ATOM     21  C   UNL     1       0.186   1.673  -0.332  0.00  0.00    +0.001 A 
ATOM     22  C   UNL     1       1.379   2.132  -0.871  0.00  0.00    +0.004 A 
ATOM     23  C   UNL     1       2.528   1.376  -0.788  0.00  0.00    +0.047 A 
ATOM     24  C   UNL     1       2.498   0.137  -0.155  0.00  0.00    +0.139 A 
ATOM     25  C   UNL     1       1.286  -0.317   0.394  0.00  0.00    +0.064 A 
ATOM     26  C   UNL     1       0.132   0.459   0.296  0.00  0.00    +0.015 A 
ATOM     27  C   UNL     1       1.280  -1.627   1.076  0.00  0.00    +0.193 A 
ATOM     28  O   UNL     1       0.245  -2.192   1.380  0.00  0.00    -0.287 OA
ATOM     29  C   UNL     1       2.602  -2.209   1.366  0.00  0.00    +0.103 A 
ATOM     30  C   UNL     1       3.689  -1.658   0.774  0.00  0.00    +0.194 A 
ATOM     31  O   UNL     1       3.607  -0.621  -0.071  0.00  0.00    -0.450 OA
ENDBRANCH  17  30
ENDBRANCH   1  19
TORSDOF 3
