REMARK  Name = ZINC59564766
REMARK  6 active torsions:
REMARK  status: ('A' for Active; 'I' for Inactive)
REMARK    1  A    between atoms: C_4  and  N_7
REMARK    2  A    between atoms: C_8  and  S_17
REMARK    3  A    between atoms: S_17  and  C_18
REMARK    4  A    between atoms: C_18  and  C_19
REMARK    5  A    between atoms: N_21  and  C_22
REMARK    6  A    between atoms: N_21  and  C_28
REMARK                            x       y       z     vdW  Elec       q    Type
REMARK                         _______ _______ _______ _____ _____    ______ ____
ROOT
ATOM      1  N   UNL     1       3.990  -1.046  -1.232  0.00  0.00    -0.213 N 
ATOM      2  C   UNL     1       5.141  -0.342  -0.989  0.00  0.00    +0.151 C 
ATOM      3  N   UNL     1       6.084  -1.099  -0.509  0.00  0.00    -0.347 N 
ATOM      4  C   UNL     1       5.547  -2.460  -0.404  0.00  0.00    +0.107 C 
ATOM      5  N   UNL     1       4.161  -2.360  -0.891  0.00  0.00    -0.209 NA
ATOM      6  C   UNL     1       6.352  -3.417  -1.279  0.00  0.00    +0.045 C 
ATOM      7  C   UNL     1       7.794  -3.484  -0.771  0.00  0.00    +0.004 C 
ATOM      8  C   UNL     1       7.800  -3.970   0.680  0.00  0.00    +0.000 C 
ATOM      9  C   UNL     1       7.005  -2.995   1.550  0.00  0.00    +0.004 C 
ATOM     10  C   UNL     1       5.561  -2.926   1.049  0.00  0.00    +0.045 C 
ATOM     11  H   UNL     1       4.014  -2.962  -1.687  0.00  0.00    +0.147 HD
ATOM     12  H   UNL     1       6.979  -0.815  -0.265  0.00  0.00    +0.163 HD
ENDROOT
BRANCH   1  16
ATOM     13  C   UNL     1       0.478   0.584  -2.768  0.00  0.00    +0.000 A 
ATOM     14  C   UNL     1       0.426  -0.257  -1.672  0.00  0.00    +0.002 A 
ATOM     15  C   UNL     1       1.589  -0.799  -1.160  0.00  0.00    +0.025 A 
ATOM     16  C   UNL     1       2.811  -0.499  -1.748  0.00  0.00    +0.052 A 
ATOM     17  C   UNL     1       2.859   0.346  -2.850  0.00  0.00    +0.025 A 
ATOM     18  C   UNL     1       1.693   0.885  -3.356  0.00  0.00    +0.002 A 
ENDBRANCH   1  16
BRANCH   2  19
ATOM     19  S   UNL     1       5.322   1.385  -1.292  0.00  0.00    -0.082 S 
BRANCH  19  20
ATOM     20  C   UNL     1       7.028   1.742  -0.787  0.00  0.00    +0.173 C 
BRANCH  20  21
ATOM     21  C   UNL     1       7.318   3.206  -0.998  0.00  0.00    +0.234 C 
ATOM     22  O   UNL     1       6.463   3.933  -1.458  0.00  0.00    -0.274 OA
ATOM     23  N   UNL     1       8.526   3.707  -0.673  0.00  0.00    -0.240 N 
BRANCH  23  24
ATOM     24  C   UNL     1       8.761   5.084  -0.767  0.00  0.00    +0.041 A 
ATOM     25  C   UNL     1       8.415   5.922   0.284  0.00  0.00    +0.024 A 
ATOM     26  C   UNL     1       8.648   7.280   0.188  0.00  0.00    +0.002 A 
ATOM     27  C   UNL     1       9.225   7.805  -0.953  0.00  0.00    +0.000 A 
ATOM     28  C   UNL     1       9.571   6.973  -2.002  0.00  0.00    +0.002 A 
ATOM     29  C   UNL     1       9.346   5.613  -1.910  0.00  0.00    +0.024 A 
ENDBRANCH  23  24
BRANCH  23  30
ATOM     30  C   UNL     1       9.546   2.850  -0.242  0.00  0.00    +0.041 A 
ATOM     31  C   UNL     1      10.113   1.942  -1.127  0.00  0.00    +0.024 A 
ATOM     32  C   UNL     1      11.119   1.098  -0.700  0.00  0.00    +0.002 A 
ATOM     33  C   UNL     1      11.562   1.157   0.609  0.00  0.00    +0.000 A 
ATOM     34  C   UNL     1      11.001   2.060   1.493  0.00  0.00    +0.002 A 
ATOM     35  C   UNL     1       9.998   2.910   1.069  0.00  0.00    +0.024 A 
ENDBRANCH  23  30
ENDBRANCH  20  21
ENDBRANCH  19  20
ENDBRANCH   2  19
TORSDOF 6
