REMARK  Name = ZINC39491747
REMARK  13 active torsions:
REMARK  status: ('A' for Active; 'I' for Inactive)
REMARK    1  A    between atoms: C_1  and  N_2
REMARK    2  A    between atoms: N_2  and  C_3
REMARK    3  A    between atoms: C_3  and  C_4
REMARK    4  A    between atoms: N_6  and  C_17
REMARK    5  A    between atoms: C_10  and  C_13
REMARK    6  A    between atoms: C_13  and  O_15
REMARK    7  A    between atoms: O_15  and  C_16
REMARK    8  A    between atoms: C_17  and  C_18
REMARK    9  A    between atoms: C_18  and  C_20
REMARK   10  A    between atoms: C_18  and  S_27
REMARK   11  A    between atoms: C_25  and  O_26
REMARK   12  A    between atoms: S_27  and  O_30
REMARK   13  A    between atoms: O_30  and  C_31
REMARK                            x       y       z     vdW  Elec       q    Type
REMARK                         _______ _______ _______ _____ _____    ______ ____
ROOT
ATOM      1  C   UNL     1      -1.758  -5.646  -1.701  0.00  0.00    +0.156 C 
ENDROOT
BRANCH   1   4
ATOM      2  C   UNL     1      -0.509  -2.695   0.002  0.00  0.00    -0.039 A 
ATOM      3  C   UNL     1      -1.133  -3.310  -1.014  0.00  0.00    +0.088 A 
ATOM      4  N   UNL     1      -1.156  -4.662  -0.798  0.00  0.00    -0.344 N 
ATOM      5  C   UNL     1      -0.532  -4.958   0.389  0.00  0.00    +0.049 A 
ATOM      6  C   UNL     1      -0.092  -3.739   0.942  0.00  0.00    +0.002 A 
ATOM      7  C   UNL     1       0.587  -3.731   2.157  0.00  0.00    +0.025 A 
ATOM      8  C   UNL     1       0.828  -4.934   2.814  0.00  0.00    +0.060 A 
ATOM      9  C   UNL     1       0.388  -6.141   2.251  0.00  0.00    +0.017 A 
ATOM     10  C   UNL     1      -0.285  -6.151   1.065  0.00  0.00    +0.027 A 
BRANCH   8  11
ATOM     11  C   UNL     1       1.547  -4.941   4.102  0.00  0.00    +0.339 C 
ATOM     12  O   UNL     1       1.928  -3.895   4.590  0.00  0.00    -0.245 OA
BRANCH  11  13
ATOM     13  O   UNL     1       1.780  -6.105   4.738  0.00  0.00    -0.464 OA
ATOM     14  C   UNL     1       2.482  -6.037   5.981  0.00  0.00    +0.280 C 
ENDBRANCH  11  13
ENDBRANCH   8  11
BRANCH   2  15
ATOM     15  C   UNL     1      -0.275  -1.213   0.145  0.00  0.00    -0.045 C 
BRANCH  15  17
ATOM     16  C   UNL     1       1.329   0.551  -0.122  0.00  0.00    -0.100 C 
ATOM     17  N   UNL     1       1.100  -0.893  -0.262  0.00  0.00    +0.380 N 
ATOM     18  H   UNL     1       1.238  -1.164  -1.224  0.00  0.00    -0.086 HD
ATOM     19  H   UNL     1       1.750  -1.395   0.325  0.00  0.00    -0.086 HD
ENDBRANCH  15  17
ENDBRANCH   2  15
ENDBRANCH   1   4
BRANCH   1  20
ATOM     20  C   UNL     1      -3.271  -5.689  -1.474  0.00  0.00    +0.224 C 
BRANCH  20  21
ATOM     21  C   UNL     1      -3.910  -6.574  -2.513  0.00  0.00    +0.023 A 
ATOM     22  C   UNL     1      -4.176  -7.898  -2.224  0.00  0.00    +0.009 A 
ATOM     23  C   UNL     1      -4.763  -8.710  -3.177  0.00  0.00    +0.001 A 
ATOM     24  C   UNL     1      -5.083  -8.199  -4.421  0.00  0.00    +0.004 A 
ATOM     25  C   UNL     1      -4.819  -6.876  -4.715  0.00  0.00    +0.046 A 
ATOM     26  C   UNL     1      -4.236  -6.057  -3.758  0.00  0.00    +0.122 A 
BRANCH  26  27
ATOM     27  O   UNL     1      -3.980  -4.753  -4.043  0.00  0.00    -0.506 OA
ATOM     28  H   UNL     1      -3.106  -4.599  -4.427  0.00  0.00    +0.292 HD
ENDBRANCH  26  27
ENDBRANCH  20  21
BRANCH  20  29
ATOM     29  S   UNL     1      -3.615  -6.352   0.179  0.00  0.00    +0.130 S 
ATOM     30  O   UNL     1      -5.018  -6.465   0.379  0.00  0.00    -0.136 OA
ATOM     31  O   UNL     1      -2.753  -7.447   0.457  0.00  0.00    -0.136 OA
BRANCH  29  32
ATOM     32  O   UNL     1      -3.174  -5.257   1.140  0.00  0.00    -0.346 OA
BRANCH  32  33
ATOM     33  C   UNL     1      -4.058  -4.230   1.251  0.00  0.00    +0.156 A 
ATOM     34  C   UNL     1      -4.037  -3.193   0.330  0.00  0.00    +0.048 A 
ATOM     35  C   UNL     1      -4.937  -2.151   0.444  0.00  0.00    +0.004 A 
ATOM     36  C   UNL     1      -5.857  -2.140   1.477  0.00  0.00    +0.000 A 
ATOM     37  C   UNL     1      -5.879  -3.173   2.396  0.00  0.00    +0.004 A 
ATOM     38  C   UNL     1      -4.985  -4.220   2.282  0.00  0.00    +0.048 A 
ENDBRANCH  32  33
ENDBRANCH  29  32
ENDBRANCH  20  29
ENDBRANCH   1  20
TORSDOF 11
