REMARK  Name = ZINC39687848
REMARK  7 active torsions:
REMARK  status: ('A' for Active; 'I' for Inactive)
REMARK    1  A    between atoms: C_1  and  C_2
REMARK    2  A    between atoms: C_2  and  C_3
REMARK    3  A    between atoms: C_3  and  C_5
REMARK    4  A    between atoms: C_3  and  C_6
REMARK    5  A    between atoms: C_6  and  C_7
REMARK    6  A    between atoms: C_11  and  C_20
REMARK    7  A    between atoms: N_22  and  C_23
REMARK                            x       y       z     vdW  Elec       q    Type
REMARK                         _______ _______ _______ _____ _____    ______ ____
ROOT
ATOM      1  C   UNL     1       1.149  -2.483  -2.276  0.00  0.00    +0.216 C 
ATOM      2  O   UNL     1       1.615  -1.624  -2.995  0.00  0.00    -0.276 OA
ATOM      3  N   UNL     1       1.209  -3.777  -2.648  0.00  0.00    -0.300 N 
ATOM      4  C   UNL     1       0.695  -4.957  -1.913  0.00  0.00    +0.121 C 
ATOM      5  C   UNL     1       0.102  -5.871  -3.009  0.00  0.00    +0.100 C 
ATOM      6  C   UNL     1       0.835  -5.464  -4.299  0.00  0.00    -0.004 C 
ATOM      7  C   UNL     1       1.798  -4.341  -3.886  0.00  0.00    +0.115 C 
ATOM      8  C   UNL     1       1.614  -6.649  -4.861  0.00  0.00    -0.010 C 
ATOM      9  C   UNL     1       2.286  -6.236  -6.173  0.00  0.00    -0.082 C 
ATOM     10  N   UNL     1       1.265  -5.796  -7.132  0.00  0.00    +0.379 N 
ATOM     11  C   UNL     1       0.583  -4.599  -6.624  0.00  0.00    -0.082 C 
ATOM     12  C   UNL     1      -0.161  -4.944  -5.331  0.00  0.00    -0.010 C 
ATOM     13  H   UNL     1       1.704  -5.583  -8.015  0.00  0.00    -0.086 HD
ATOM     14  H   UNL     1       0.590  -6.535  -7.264  0.00  0.00    -0.086 HD
ENDROOT
BRANCH   5  15
ATOM     15  C   UNL     1      -1.379  -5.632  -3.147  0.00  0.00    +0.218 C 
ATOM     16  O   UNL     1      -1.841  -4.535  -2.911  0.00  0.00    -0.275 OA
ATOM     17  N   UNL     1      -2.191  -6.636  -3.533  0.00  0.00    -0.312 N 
ATOM     18  H   UNL     1      -1.821  -7.513  -3.721  0.00  0.00    +0.149 HD
BRANCH  17  19
ATOM     19  C   UNL     1      -3.631  -6.404  -3.666  0.00  0.00    +0.076 C 
ATOM     20  C   UNL     1      -4.304  -6.577  -2.303  0.00  0.00    +0.041 C 
ATOM     21  C   UNL     1      -5.805  -6.299  -2.440  0.00  0.00    +0.108 C 
ATOM     22  N   UNL     1      -6.351  -7.162  -3.497  0.00  0.00    -0.314 N 
ATOM     23  C   UNL     1      -5.719  -7.141  -4.823  0.00  0.00    +0.108 C 
ATOM     24  C   UNL     1      -4.220  -7.409  -4.659  0.00  0.00    +0.041 C 
ATOM     25  C   UNL     1      -7.444  -7.983  -3.246  0.00  0.00    +0.140 A 
ATOM     26  C   UNL     1      -8.729  -7.527  -3.527  0.00  0.00    +0.081 A 
ATOM     27  C   UNL     1      -9.808  -8.355  -3.273  0.00  0.00    +0.025 A 
ATOM     28  C   UNL     1      -9.565  -9.616  -2.744  0.00  0.00    +0.021 A 
ATOM     29  C   UNL     1      -8.265 -10.004  -2.490  0.00  0.00    +0.113 A 
ATOM     30  N   UNL     1      -7.255  -9.195  -2.747  0.00  0.00    -0.239 NA
ATOM     31 CL   UNL     1      -8.975  -5.940  -4.187  0.00  0.00    -0.080 Cl
ENDBRANCH  17  19
ENDBRANCH   5  15
BRANCH   1  32
ATOM     32  C   UNL     1       0.505  -2.103  -0.968  0.00  0.00    +0.099 C 
BRANCH  32  33
ATOM     33  C   UNL     1       0.569  -0.585  -0.790  0.00  0.00    -0.006 C 
ATOM     34  C   UNL     1       2.030  -0.148  -0.663  0.00  0.00    +0.008 C 
BRANCH  33  36
ATOM     35  C   UNL     1      -0.236   1.338   0.588  0.00  0.00    +0.004 C 
ATOM     36  C   UNL     1      -0.194  -0.187   0.475  0.00  0.00    +0.000 C 
ENDBRANCH  33  36
ENDBRANCH  32  33
ENDBRANCH   1  32
TORSDOF 5
