REMARK  Name = ZINC28120702
REMARK  14 active torsions:
REMARK  status: ('A' for Active; 'I' for Inactive)
REMARK    1  A    between atoms: C_1  and  C_2
REMARK    2  A    between atoms: C_2  and  C_3
REMARK    3  A    between atoms: C_8  and  C_25
REMARK    4  A    between atoms: C_9  and  C_23
REMARK    5  A    between atoms: C_12  and  C_15
REMARK    6  A    between atoms: C_13  and  O_14
REMARK    7  A    between atoms: C_15  and  N_16
REMARK    8  A    between atoms: N_16  and  C_17
REMARK    9  A    between atoms: N_16  and  C_20
REMARK   10  A    between atoms: C_17  and  C_18
REMARK   11  A    between atoms: C_18  and  O_19
REMARK   12  A    between atoms: C_20  and  C_21
REMARK   13  A    between atoms: C_21  and  O_22
REMARK   14  A    between atoms: C_23  and  C_24
REMARK                            x       y       z     vdW  Elec       q    Type
REMARK                         _______ _______ _______ _____ _____    ______ ____
ROOT
ATOM      1  C   UNL     1       4.740   1.416  -0.079  0.00  0.00    -0.005 A 
ATOM      2  C   UNL     1       3.606   2.177  -0.127  0.00  0.00    +0.022 A 
ATOM      3  C   UNL     1       2.356   1.558  -0.119  0.00  0.00    +0.065 A 
ATOM      4  C   UNL     1       1.112   2.348  -0.169  0.00  0.00    +0.202 A 
ATOM      5  O   UNL     1       1.129   3.566  -0.220  0.00  0.00    -0.286 OA
ATOM      6  C   UNL     1      -0.154   1.593  -0.156  0.00  0.00    +0.092 A 
ATOM      7  C   UNL     1      -0.103   0.233  -0.099  0.00  0.00    +0.119 A 
ATOM      8  O   UNL     1       1.048  -0.440  -0.055  0.00  0.00    -0.458 OA
ATOM      9  C   UNL     1       2.256   0.157  -0.062  0.00  0.00    +0.144 A 
ATOM     10  C   UNL     1       3.418  -0.602  -0.015  0.00  0.00    +0.021 A 
ATOM     11  C   UNL     1       4.652   0.027  -0.024  0.00  0.00    +0.125 A 
ENDROOT
BRANCH   6  12
ATOM     12  C   UNL     1      -1.451   2.296  -0.210  0.00  0.00    +0.116 A 
ATOM     13  N   UNL     1      -2.666   1.789  -0.218  0.00  0.00    -0.239 NA
ATOM     14  C   UNL     1      -3.771   2.559  -0.267  0.00  0.00    +0.079 A 
ATOM     15  C   UNL     1      -5.125   2.145  -0.277  0.00  0.00    +0.029 A 
ATOM     16  C   UNL     1      -6.132   3.057  -0.335  0.00  0.00    +0.002 A 
ATOM     17  C   UNL     1      -5.878   4.420  -0.386  0.00  0.00    +0.001 A 
ATOM     18  C   UNL     1      -4.569   4.867  -0.378  0.00  0.00    +0.017 A 
ATOM     19  C   UNL     1      -3.545   3.954  -0.320  0.00  0.00    +0.040 A 
ATOM     20  S   UNL     1      -1.772   4.053  -0.289  0.00  0.00    -0.067 S 
ENDBRANCH   6  12
BRANCH   1  22
ATOM     21  C   UNL     1       6.625   2.136  -1.521  0.00  0.00    +0.009 C 
ATOM     22  C   UNL     1       6.091   2.082  -0.088  0.00  0.00    +0.035 C 
ENDBRANCH   1  22
BRANCH  11  23
ATOM     23  O   UNL     1       5.786  -0.717   0.022  0.00  0.00    -0.506 OA
ATOM     24  H   UNL     1       5.722  -1.815   0.067  0.00  0.00    +0.292 HD
ENDBRANCH  11  23
BRANCH   7  25
ATOM     25  C   UNL     1      -1.396  -0.541  -0.085  0.00  0.00    +0.072 C 
ATOM     26  C   UNL     1      -1.813  -0.863  -1.522  0.00  0.00    +0.012 C 
ENDBRANCH   7  25
BRANCH  10  27
ATOM     27  C   UNL     1       3.336  -2.105   0.046  0.00  0.00    -0.035 C 
BRANCH  27  28
ATOM     28  N   UNL     1       3.328  -2.651  -1.318  0.00  0.00    +0.385 N 
ATOM     29  H   UNL     1       2.539  -2.135  -1.884  0.00  0.00    -0.081 HD
BRANCH  28  30
ATOM     30  C   UNL     1       4.608  -2.398  -1.994  0.00  0.00    -0.050 C 
BRANCH  30  31
ATOM     31  C   UNL     1       4.450  -2.648  -3.494  0.00  0.00    +0.137 C 
BRANCH  31  32
ATOM     32  O   UNL     1       3.527  -1.704  -4.041  0.00  0.00    -0.397 OA
ATOM     33  H   UNL     1       3.286  -1.728  -5.114  0.00  0.00    +0.209 HD
ENDBRANCH  31  32
ENDBRANCH  30  31
ENDBRANCH  28  30
BRANCH  28  34
ATOM     34  C   UNL     1       3.013  -4.086  -1.308  0.00  0.00    -0.050 C 
BRANCH  34  35
ATOM     35  C   UNL     1       1.515  -4.277  -1.063  0.00  0.00    +0.137 C 
BRANCH  35  36
ATOM     36  O   UNL     1       0.779  -3.744  -2.166  0.00  0.00    -0.397 OA
ATOM     37  H   UNL     1      -0.320  -3.791  -2.169  0.00  0.00    +0.209 HD
ENDBRANCH  35  36
ENDBRANCH  34  35
ENDBRANCH  28  34
ENDBRANCH  27  28
ENDBRANCH  10  27
TORSDOF 12
