REMARK  Name = ZINC43607513
REMARK  10 active torsions:
REMARK  status: ('A' for Active; 'I' for Inactive)
REMARK    1  A    between atoms: C_1  and  N_2
REMARK    2  A    between atoms: N_2  and  C_3
REMARK    3  A    between atoms: N_2  and  C_4
REMARK    4  A    between atoms: C_4  and  C_5
REMARK    5  A    between atoms: C_5  and  N_6
REMARK    6  A    between atoms: C_9  and  C_13
REMARK    7  A    between atoms: C_9  and  C_21
REMARK    8  A    between atoms: C_13  and  C_14
REMARK    9  A    between atoms: C_14  and  C_15
REMARK   10  A    between atoms: C_27  and  C_29
REMARK                            x       y       z     vdW  Elec       q    Type
REMARK                         _______ _______ _______ _____ _____    ______ ____
ROOT
ATOM      1  N   UNL     1       0.637  -0.589   3.635  0.00  0.00    -0.226 N 
ATOM      2  C   UNL     1       0.443  -1.802   4.189  0.00  0.00    +0.247 C 
ATOM      3  O   UNL     1      -0.321  -2.664   3.814  0.00  0.00    -0.273 OA
ATOM      4  C   UNL     1       1.381  -1.863   5.379  0.00  0.00    +0.116 C 
ATOM      5  N   UNL     1       2.058  -0.555   5.354  0.00  0.00    -0.285 N 
ATOM      6  C   UNL     1       1.561   0.115   4.299  0.00  0.00    +0.309 C 
ATOM      7  O   UNL     1       1.910   1.237   3.986  0.00  0.00    -0.252 OA
ATOM      8  H   UNL     1       2.732  -0.240   5.976  0.00  0.00    +0.151 HD
ENDROOT
BRANCH   4   9
ATOM      9  C   UNL     1       2.394  -2.997   5.207  0.00  0.00    +0.024 C 
ATOM     10  C   UNL     1       3.336  -3.026   6.413  0.00  0.00    +0.025 C 
ATOM     11  C   UNL     1       4.327  -4.183   6.255  0.00  0.00    +0.108 C 
ATOM     12  N   UNL     1       5.008  -4.049   4.960  0.00  0.00    -0.301 N 
ATOM     13  C   UNL     1       4.194  -3.922   3.743  0.00  0.00    +0.108 C 
ATOM     14  C   UNL     1       3.205  -2.767   3.930  0.00  0.00    +0.025 C 
ATOM     15  C   UNL     1       6.354  -4.041   4.890  0.00  0.00    +0.219 C 
ATOM     16  O   UNL     1       7.015  -4.146   5.902  0.00  0.00    -0.275 OA
BRANCH  15  17
ATOM     17  C   UNL     1       7.038  -3.903   3.554  0.00  0.00    +0.083 C 
ATOM     18  C   UNL     1       6.709  -5.112   2.646  0.00  0.00    +0.021 C 
ATOM     19  C   UNL     1       8.103  -5.765   2.379  0.00  0.00    +0.013 C 
ATOM     20  C   UNL     1       8.794  -5.536   3.773  0.00  0.00    +0.016 C 
ATOM     21  C   UNL     1       8.589  -3.973   3.722  0.00  0.00    +0.024 C 
ATOM     22  C   UNL     1       9.130  -3.686   2.316  0.00  0.00    -0.027 C 
ATOM     23  C   UNL     1       8.842  -4.729   1.524  0.00  0.00    -0.027 C 
ENDBRANCH  15  17
ENDBRANCH   4   9
BRANCH   1  24
ATOM     24  C   UNL     1      -0.071  -0.103   2.448  0.00  0.00    +0.099 C 
BRANCH  24  25
ATOM     25  C   UNL     1       0.713  -0.491   1.192  0.00  0.00    -0.060 C 
BRANCH  25  27
ATOM     26  C   UNL     1      -0.018   1.465   0.010  0.00  0.00    -0.097 C 
ATOM     27  N   UNL     1       0.002  -0.004   0.002  0.00  0.00    +0.377 N 
ATOM     28  C   UNL     1       0.690  -0.478  -1.207  0.00  0.00    -0.097 C 
ATOM     29  H   UNL     1      -0.945  -0.353   0.009  0.00  0.00    -0.083 HD
ENDBRANCH  25  27
ENDBRANCH  24  25
ENDBRANCH   1  24
BRANCH   4  30
ATOM     30  C   UNL     1       0.592  -2.037   6.678  0.00  0.00    +0.040 C 
BRANCH  30  31
ATOM     31  C   UNL     1      -0.373  -0.862   6.849  0.00  0.00    +0.038 C 
BRANCH  31  32
ATOM     32  C   UNL     1      -1.151  -1.032   8.129  0.00  0.00    -0.047 A 
ATOM     33  C   UNL     1      -2.349  -1.722   8.123  0.00  0.00    +0.003 A 
ATOM     34  C   UNL     1      -3.062  -1.878   9.296  0.00  0.00    +0.000 A 
ATOM     35  C   UNL     1      -2.577  -1.346  10.476  0.00  0.00    +0.000 A 
ATOM     36  C   UNL     1      -1.378  -0.657  10.482  0.00  0.00    +0.000 A 
ATOM     37  C   UNL     1      -0.663  -0.504   9.309  0.00  0.00    +0.003 A 
ENDBRANCH  31  32
ENDBRANCH  30  31
ENDBRANCH   4  30
TORSDOF 8
