REMARK  Name = ZINC08791578
REMARK  7 active torsions:
REMARK  status: ('A' for Active; 'I' for Inactive)
REMARK    1  A    between atoms: C_1  and  N_2
REMARK    2  A    between atoms: C_5  and  C_19
REMARK    3  A    between atoms: C_6  and  O_18
REMARK    4  A    between atoms: N_7  and  C_10
REMARK    5  A    between atoms: C_13  and  O_16
REMARK    6  A    between atoms: O_16  and  C_17
REMARK    7  A    between atoms: C_33  and  N_56
REMARK                            x       y       z     vdW  Elec       q    Type
REMARK                         _______ _______ _______ _____ _____    ______ ____
ROOT
ATOM      1  C   UNL     1       3.252   1.987   1.421  0.00  0.00    +0.157 C 
ATOM      2  N   UNL     1       2.178   1.320   0.681  0.00  0.00    -0.263 N 
ATOM      3  C   UNL     1       1.192   2.053   0.128  0.00  0.00    +0.262 A 
ATOM      4  O   UNL     1       1.191   3.266   0.242  0.00  0.00    -0.267 OA
ATOM      5  C   UNL     1       0.163   1.408  -0.581  0.00  0.00    +0.069 A 
ATOM      6  C   UNL     1       0.186   0.049  -0.694  0.00  0.00    +0.208 A 
ATOM      7  N   UNL     1       1.211  -0.659  -0.115  0.00  0.00    -0.232 N 
ATOM      8  C   UNL     1       2.184  -0.020   0.559  0.00  0.00    +0.339 A 
ATOM      9  O   UNL     1       3.083  -0.663   1.066  0.00  0.00    -0.246 OA
ENDROOT
BRANCH   5  10
ATOM     10  C   UNL     1      -0.947   2.208  -1.213  0.00  0.00    +0.020 C 
ATOM     11  C   UNL     1      -0.378   3.104  -2.287  0.00  0.00    +0.011 A 
ATOM     12  C   UNL     1      -0.747   4.397  -2.439  0.00  0.00    -0.022 A 
ATOM     13  C   UNL     1       0.003   4.926  -3.556  0.00  0.00    +0.003 A 
ATOM     14  C   UNL     1       0.038   6.184  -4.166  0.00  0.00    +0.010 A 
ATOM     15  C   UNL     1       0.891   6.334  -5.232  0.00  0.00    +0.001 A 
ATOM     16  C   UNL     1       1.683   5.295  -5.692  0.00  0.00    +0.002 A 
ATOM     17  C   UNL     1       1.666   4.039  -5.110  0.00  0.00    +0.026 A 
ATOM     18  C   UNL     1       0.811   3.858  -4.024  0.00  0.00    +0.047 A 
ATOM     19  N   UNL     1       0.554   2.775  -3.233  0.00  0.00    -0.359 N 
ATOM     20  H   UNL     1       0.970   1.904  -3.327  0.00  0.00    +0.166 HD
ATOM     21  C   UNL     1      -1.763   5.081  -1.560  0.00  0.00    +0.019 C 
ATOM     22  C   UNL     1      -2.539   3.997  -0.800  0.00  0.00    -0.073 C 
ATOM     23  C   UNL     1      -2.250   2.229   0.831  0.00  0.00    -0.095 C 
ATOM     24  N   UNL     1      -1.569   3.067  -0.178  0.00  0.00    +0.387 N 
ATOM     25  H   UNL     1      -0.834   3.615   0.285  0.00  0.00    -0.081 HD
ENDBRANCH   5  10
BRANCH   7  26
ATOM     26  C   UNL     1       1.241  -2.057  -0.226  0.00  0.00    +0.054 A 
ATOM     27  C   UNL     1       1.894  -2.654  -1.296  0.00  0.00    +0.030 A 
ATOM     28  C   UNL     1       1.929  -4.030  -1.402  0.00  0.00    +0.047 A 
ATOM     29  C   UNL     1       1.302  -4.816  -0.446  0.00  0.00    +0.120 A 
ATOM     30  C   UNL     1       0.645  -4.220   0.620  0.00  0.00    +0.047 A 
ATOM     31  C   UNL     1       0.614  -2.844   0.731  0.00  0.00    +0.030 A 
BRANCH  29  32
ATOM     32  O   UNL     1       1.333  -6.171  -0.554  0.00  0.00    -0.495 OA
ATOM     33  C   UNL     1       2.028  -6.717  -1.677  0.00  0.00    +0.277 C 
ENDBRANCH  29  32
ENDBRANCH   7  26
BRANCH   6  34
ATOM     34  O   UNL     1      -0.789  -0.594  -1.370  0.00  0.00    -0.493 OA
ATOM     35  H   UNL     1      -0.672  -1.554  -1.411  0.00  0.00    +0.294 HD
ENDBRANCH   6  34
TORSDOF 4
