REMARK  Name = ZINC12821348
REMARK  9 active torsions:
REMARK  status: ('A' for Active; 'I' for Inactive)
REMARK    1  A    between atoms: C_1  and  C_2
REMARK    2  A    between atoms: C_2  and  N_3
REMARK    3  A    between atoms: C_7  and  C_29
REMARK    4  A    between atoms: C_12  and  S_13
REMARK    5  A    between atoms: S_13  and  C_14
REMARK    6  A    between atoms: C_14  and  C_16
REMARK    7  A    between atoms: C_14  and  C_17
REMARK    8  A    between atoms: C_21  and  C_28
REMARK    9  A    between atoms: C_24  and  C_27
REMARK                            x       y       z     vdW  Elec       q    Type
REMARK                         _______ _______ _______ _____ _____    ______ ____
ROOT
ATOM      1  N   UNL     1      -1.383  -0.481   0.013  0.00  0.00    -0.288 N 
ATOM      2  C   UNL     1      -1.994  -0.709   1.190  0.00  0.00    +0.264 A 
ATOM      3  O   UNL     1      -1.413  -0.489   2.240  0.00  0.00    -0.267 OA
ATOM      4  C   UNL     1      -3.330  -1.212   1.195  0.00  0.00    +0.080 A 
ATOM      5  C   UNL     1      -4.191  -1.533   2.331  0.00  0.00    +0.010 A 
ATOM      6  C   UNL     1      -5.439  -2.002   2.090  0.00  0.00    +0.057 A 
ATOM      7  S   UNL     1      -5.531  -2.040   0.311  0.00  0.00    -0.076 S 
ATOM      8  C   UNL     1      -3.908  -1.431  -0.068  0.00  0.00    +0.117 A 
ATOM      9  N   UNL     1      -3.249  -1.187  -1.195  0.00  0.00    -0.216 NA
ATOM     10  C   UNL     1      -2.019  -0.717  -1.171  0.00  0.00    +0.173 A 
ENDROOT
BRANCH   5  11
ATOM     11  C   UNL     1      -3.709  -1.349   3.716  0.00  0.00    +0.021 A 
ATOM     12  C   UNL     1      -4.316  -0.710   4.763  0.00  0.00    +0.016 A 
ATOM     13  C   UNL     1      -3.666  -0.666   5.979  0.00  0.00    +0.008 A 
ATOM     14  C   UNL     1      -2.451  -1.257   6.101  0.00  0.00    +0.046 A 
ATOM     15  S   UNL     1      -2.187  -1.912   4.461  0.00  0.00    -0.097 S 
ENDBRANCH   5  11
BRANCH   1  17
ATOM     16  C   UNL     1      -0.042   1.565   0.004  0.00  0.00    +0.027 C 
ATOM     17  C   UNL     1      -0.011   0.035   0.003  0.00  0.00    +0.124 C 
ENDBRANCH   1  17
BRANCH  10  18
ATOM     18  S   UNL     1      -1.180  -0.397  -2.687  0.00  0.00    -0.075 S 
BRANCH  18  19
ATOM     19  C   UNL     1      -2.390  -0.848  -3.962  0.00  0.00    +0.137 C 
ATOM     20  C   UNL     1      -2.670  -2.350  -3.890  0.00  0.00    +0.029 C 
BRANCH  19  21
ATOM     21  C   UNL     1      -1.839  -0.504  -5.322  0.00  0.00    +0.229 C 
ATOM     22  O   UNL     1      -0.645  -0.362  -5.474  0.00  0.00    -0.274 OA
ATOM     23  N   UNL     1      -2.675  -0.354  -6.369  0.00  0.00    -0.300 N 
ATOM     24  C   UNL     1      -2.147  -0.130  -7.721  0.00  0.00    +0.111 C 
ATOM     25  C   UNL     1      -2.751  -1.174  -8.665  0.00  0.00    +0.004 C 
ATOM     26  C   UNL     1      -4.277  -1.120  -8.570  0.00  0.00    +0.009 C 
ATOM     27  C   UNL     1      -4.713  -1.452  -7.141  0.00  0.00    +0.004 C 
ATOM     28  C   UNL     1      -4.130  -0.417  -6.180  0.00  0.00    +0.111 C 
ATOM     29  C   UNL     1      -6.240  -1.431  -7.054  0.00  0.00    +0.009 C 
ATOM     30  C   UNL     1      -2.318  -0.874 -10.102  0.00  0.00    +0.009 C 
ENDBRANCH  19  21
ENDBRANCH  18  19
ENDBRANCH  10  18
TORSDOF 5
