REMARK  Name = ZINC39688763
REMARK  8 active torsions:
REMARK  status: ('A' for Active; 'I' for Inactive)
REMARK    1  A    between atoms: C_1  and  C_2
REMARK    2  A    between atoms: C_3  and  C_8
REMARK    3  A    between atoms: C_4  and  C_7
REMARK    4  A    between atoms: C_12  and  C_21
REMARK    5  A    between atoms: N_23  and  C_24
REMARK    6  A    between atoms: C_24  and  C_26
REMARK    7  A    between atoms: C_24  and  C_27
REMARK    8  A    between atoms: C_27  and  C_28
REMARK                            x       y       z     vdW  Elec       q    Type
REMARK                         _______ _______ _______ _____ _____    ______ ____
ROOT
ATOM      1  C   UNL     1       0.008  -0.307  -2.267  0.00  0.00    +0.252 C 
ATOM      2  O   UNL     1       0.957  -0.218  -3.022  0.00  0.00    -0.270 OA
ATOM      3  N   UNL     1      -1.245  -0.141  -2.736  0.00  0.00    -0.296 N 
ATOM      4  C   UNL     1      -2.508  -0.104  -1.961  0.00  0.00    +0.121 C 
ATOM      5  C   UNL     1      -3.348   1.002  -2.636  0.00  0.00    +0.100 C 
ATOM      6  C   UNL     1      -2.795   1.096  -4.068  0.00  0.00    -0.004 C 
ATOM      7  C   UNL     1      -1.670   0.054  -4.143  0.00  0.00    +0.115 C 
ATOM      8  C   UNL     1      -2.233   2.491  -4.327  0.00  0.00    -0.010 C 
ATOM      9  C   UNL     1      -1.741   2.577  -5.775  0.00  0.00    -0.082 C 
ATOM     10  N   UNL     1      -2.856   2.299  -6.689  0.00  0.00    +0.379 N 
ATOM     11  C   UNL     1      -3.330   0.923  -6.497  0.00  0.00    -0.082 C 
ATOM     12  C   UNL     1      -3.889   0.767  -5.080  0.00  0.00    -0.010 C 
ATOM     13  H   UNL     1      -3.610   2.942  -6.503  0.00  0.00    -0.086 HD
ATOM     14  H   UNL     1      -2.545   2.416  -7.642  0.00  0.00    -0.086 HD
ENDROOT
BRANCH   1  17
ATOM     15  C   UNL     1       0.748   1.854   0.028  0.00  0.00    +0.070 C 
ATOM     16  C   UNL     1       0.561   0.369   0.208  0.00  0.00    +0.093 A 
ATOM     17  C   UNL     1       0.227  -0.598  -0.838  0.00  0.00    +0.101 A 
ATOM     18  C   UNL     1       0.157  -1.822  -0.236  0.00  0.00    +0.147 A 
ATOM     19  O   UNL     1       0.419  -1.660   1.063  0.00  0.00    -0.359 OA
ATOM     20  N   UNL     1       0.673  -0.293   1.321  0.00  0.00    -0.083 NA
ATOM     21  C   UNL     1      -0.161  -3.127  -0.919  0.00  0.00    +0.090 C 
ENDBRANCH   1  17
BRANCH   5  22
ATOM     22  C   UNL     1      -3.167   2.313  -1.915  0.00  0.00    +0.218 C 
ATOM     23  O   UNL     1      -2.152   2.524  -1.286  0.00  0.00    -0.275 OA
ATOM     24  N   UNL     1      -4.134   3.251  -1.968  0.00  0.00    -0.312 N 
ATOM     25  H   UNL     1      -4.975   3.056  -2.410  0.00  0.00    +0.149 HD
BRANCH  24  26
ATOM     26  C   UNL     1      -3.915   4.564  -1.358  0.00  0.00    +0.074 C 
ATOM     27  C   UNL     1      -3.257   5.497  -2.377  0.00  0.00    +0.028 C 
BRANCH  26  28
ATOM     28  C   UNL     1      -5.257   5.154  -0.919  0.00  0.00    +0.057 C 
BRANCH  28  29
ATOM     29  C   UNL     1      -5.857   4.288   0.158  0.00  0.00    -0.045 A 
ATOM     30  C   UNL     1      -6.623   3.189  -0.185  0.00  0.00    +0.006 A 
ATOM     31  C   UNL     1      -7.174   2.395   0.802  0.00  0.00    +0.038 A 
ATOM     32  C   UNL     1      -6.958   2.699   2.136  0.00  0.00    +0.123 A 
ATOM     33  C   UNL     1      -6.191   3.799   2.478  0.00  0.00    +0.038 A 
ATOM     34  C   UNL     1      -5.637   4.590   1.489  0.00  0.00    +0.006 A 
ATOM     35  F   UNL     1      -7.496   1.923   3.102  0.00  0.00    -0.205 F 
ENDBRANCH  28  29
ENDBRANCH  26  28
ENDBRANCH  24  26
ENDBRANCH   5  22
TORSDOF 5
