REMARK  Name = ZINC16666717
REMARK  3 active torsions:
REMARK  status: ('A' for Active; 'I' for Inactive)
REMARK    1  A    between atoms: C_1  and  N_2
REMARK    2  A    between atoms: C_4  and  C_11
REMARK    3  A    between atoms: N_17  and  C_18
REMARK                            x       y       z     vdW  Elec       q    Type
REMARK                         _______ _______ _______ _____ _____    ______ ____
ROOT
ATOM      1  C   UNL     1       0.040  -3.240  -1.678  0.00  0.00    +0.030 C 
ATOM      2  C   UNL     1      -0.071  -3.046  -3.020  0.00  0.00    +0.078 C 
ATOM      3  C   UNL     1      -0.184  -4.009  -4.066  0.00  0.00    +0.256 C 
ATOM      4  O   UNL     1      -0.191  -5.201  -3.818  0.00  0.00    -0.269 OA
ATOM      5  N   UNL     1      -0.281  -3.575  -5.311  0.00  0.00    -0.260 N 
ATOM      6  C   UNL     1      -0.272  -2.220  -5.575  0.00  0.00    +0.166 C 
ATOM      7  N   UNL     1      -0.357  -1.605  -6.734  0.00  0.00    -0.226 NA
ATOM      8  S   UNL     1      -0.122  -1.515  -3.941  0.00  0.00    -0.049 S 
ATOM      9  H   UNL     1      -0.358  -4.210  -6.040  0.00  0.00    +0.157 HD
ENDROOT
BRANCH   1  13
ATOM     10  C   UNL     1       0.016   1.447   0.049  0.00  0.00    +0.149 C 
ATOM     11  N   UNL     1       0.175  -0.009   0.006  0.00  0.00    -0.349 N 
ATOM     12  C   UNL     1      -0.069  -0.783  -1.082  0.00  0.00    +0.094 A 
ATOM     13  C   UNL     1       0.180  -2.093  -0.781  0.00  0.00    +0.001 A 
ATOM     14  C   UNL     1       0.619  -2.121   0.627  0.00  0.00    +0.007 A 
ATOM     15  C   UNL     1       0.601  -0.786   1.064  0.00  0.00    +0.049 A 
ATOM     16  C   UNL     1       0.976  -0.490   2.370  0.00  0.00    +0.026 A 
ATOM     17  C   UNL     1       1.364  -1.504   3.220  0.00  0.00    +0.002 A 
ATOM     18  C   UNL     1       1.385  -2.821   2.786  0.00  0.00    +0.001 A 
ATOM     19  C   UNL     1       1.009  -3.135   1.498  0.00  0.00    +0.010 A 
ENDBRANCH   1  13
BRANCH   7  20
ATOM     20  C   UNL     1      -0.329  -0.238  -6.787  0.00  0.00    +0.067 A 
ATOM     21  C   UNL     1      -1.087   0.514  -5.887  0.00  0.00    +0.028 A 
ATOM     22  C   UNL     1      -1.054   1.892  -5.946  0.00  0.00    +0.002 A 
ATOM     23  C   UNL     1      -0.273   2.529  -6.894  0.00  0.00    +0.000 A 
ATOM     24  C   UNL     1       0.480   1.789  -7.789  0.00  0.00    +0.002 A 
ATOM     25  C   UNL     1       0.461   0.411  -7.738  0.00  0.00    +0.028 A 
ENDBRANCH   7  20
TORSDOF 2
