REMARK  Name = ZINC40080926
REMARK  11 active torsions:
REMARK  status: ('A' for Active; 'I' for Inactive)
REMARK    1  A    between atoms: C_1  and  C_2
REMARK    2  A    between atoms: C_4  and  C_8
REMARK    3  A    between atoms: C_5  and  C_7
REMARK    4  A    between atoms: C_8  and  C_10
REMARK    5  A    between atoms: C_8  and  N_11
REMARK    6  A    between atoms: C_12  and  C_14
REMARK    7  A    between atoms: C_14  and  C_16
REMARK    8  A    between atoms: C_14  and  N_19
REMARK    9  A    between atoms: C_16  and  C_17
REMARK   10  A    between atoms: C_16  and  C_18
REMARK   11  A    between atoms: C_20  and  C_22
REMARK                            x       y       z     vdW  Elec       q    Type
REMARK                         _______ _______ _______ _____ _____    ______ ____
ROOT
ATOM      1  C   UNL     1      -5.390  -2.746  -1.640  0.00  0.00    +0.161 C 
ENDROOT
BRANCH   1   3
ATOM      2  N   UNL     1      -3.417  -2.720  -0.148  0.00  0.00    -0.307 N 
ATOM      3  C   UNL     1      -4.122  -3.358  -1.103  0.00  0.00    +0.234 C 
ATOM      4  O   UNL     1      -3.736  -4.426  -1.530  0.00  0.00    -0.274 OA
ATOM      5  H   UNL     1      -3.684  -1.833   0.141  0.00  0.00    +0.149 HD
BRANCH   2   6
ATOM      6  C   UNL     1      -2.247  -3.365   0.453  0.00  0.00    +0.101 C 
ATOM      7  C   UNL     1      -2.699  -4.272   1.600  0.00  0.00    +0.033 C 
BRANCH   6  11
ATOM      8  C   UNL     1      -1.189   1.273   2.269  0.00  0.00    +0.051 C 
ATOM      9  C   UNL     1      -0.919  -0.139   1.819  0.00  0.00    -0.013 A 
ATOM     10  C   UNL     1      -1.788  -1.064   1.343  0.00  0.00    +0.016 A 
ATOM     11  C   UNL     1      -1.311  -2.311   0.986  0.00  0.00    -0.017 A 
ATOM     12  C   UNL     1       0.012  -2.572   1.122  0.00  0.00    -0.008 A 
ATOM     13  S   UNL     1       0.629  -1.026   1.766  0.00  0.00    -0.098 S 
ATOM     14  C   UNL     1       0.767  -3.838   0.807  0.00  0.00    +0.052 C 
ENDBRANCH   6  11
ENDBRANCH   2   6
ENDBRANCH   1   3
BRANCH   1  15
ATOM     15  N   UNL     1      -6.296  -3.808  -2.083  0.00  0.00    -0.304 N 
ATOM     16  C   UNL     1      -7.625  -3.588  -2.123  0.00  0.00    +0.217 C 
ATOM     17  O   UNL     1      -8.070  -2.510  -1.792  0.00  0.00    -0.275 OA
ATOM     18  H   UNL     1      -5.939  -4.671  -2.348  0.00  0.00    +0.149 HD
BRANCH  16  19
ATOM     19  C   UNL     1      -8.557  -4.681  -2.579  0.00  0.00    +0.075 C 
ATOM     20  C   UNL     1      -8.206  -5.085  -4.012  0.00  0.00    +0.013 C 
ATOM     21  C   UNL     1      -9.152  -6.195  -4.475  0.00  0.00    +0.001 C 
ATOM     22  C   UNL     1     -10.595  -5.688  -4.427  0.00  0.00    +0.000 C 
ATOM     23  C   UNL     1     -10.946  -5.283  -2.994  0.00  0.00    +0.001 C 
ATOM     24  C   UNL     1      -9.999  -4.174  -2.531  0.00  0.00    +0.013 C 
ENDBRANCH  16  19
ENDBRANCH   1  15
BRANCH   1  25
ATOM     25  C   UNL     1      -5.055  -1.835  -2.823  0.00  0.00    +0.012 C 
ATOM     26  C   UNL     1      -6.328  -1.137  -3.305  0.00  0.00    +0.009 C 
ATOM     27  C   UNL     1      -4.032  -0.785  -2.384  0.00  0.00    +0.009 C 
ENDBRANCH   1  25
TORSDOF 6
