REMARK  Name = ZINC44755985
REMARK  10 active torsions:
REMARK  status: ('A' for Active; 'I' for Inactive)
REMARK    1  A    between atoms: C_1  and  C_2
REMARK    2  A    between atoms: C_2  and  C_3
REMARK    3  A    between atoms: C_3  and  C_4
REMARK    4  A    between atoms: C_4  and  N_5
REMARK    5  A    between atoms: C_6  and  C_28
REMARK    6  A    between atoms: C_8  and  C_11
REMARK    7  A    between atoms: C_9  and  C_10
REMARK    8  A    between atoms: C_12  and  C_13
REMARK    9  A    between atoms: C_12  and  C_15
REMARK   10  A    between atoms: N_17  and  C_18
REMARK                            x       y       z     vdW  Elec       q    Type
REMARK                         _______ _______ _______ _____ _____    ______ ____
ROOT
ATOM      1  C   UNL     1      -5.893  -3.383  -1.675  0.00  0.00    +0.033 C 
ATOM      2  C   UNL     1      -7.153  -3.485  -1.120  0.00  0.00    +0.114 C 
ENDROOT
BRANCH   1   6
ATOM      3  N   UNL     1      -2.778  -2.403  -0.187  0.00  0.00    -0.348 N 
ATOM      4  C   UNL     1      -3.477  -2.703   0.947  0.00  0.00    +0.016 A 
ATOM      5  C   UNL     1      -4.714  -3.107   0.610  0.00  0.00    +0.030 A 
ATOM      6  C   UNL     1      -4.783  -3.050  -0.857  0.00  0.00    -0.003 A 
ATOM      7  C   UNL     1      -3.542  -2.598  -1.277  0.00  0.00    +0.023 A 
ATOM      8  C   UNL     1      -3.122  -2.367  -2.705  0.00  0.00    +0.064 C 
ATOM      9  C   UNL     1      -2.946  -2.599   2.353  0.00  0.00    +0.063 C 
BRANCH   3  10
ATOM     10  C   UNL     1      -1.392  -1.929  -0.212  0.00  0.00    +0.122 C 
BRANCH  10  11
ATOM     11  C   UNL     1      -1.374  -0.401  -0.139  0.00  0.00    +0.021 C 
BRANCH  11  13
ATOM     12  C   UNL     1       0.091   1.622  -0.091  0.00  0.00    +0.004 C 
ATOM     13  C   UNL     1       0.073   0.094  -0.165  0.00  0.00    -0.002 C 
ENDBRANCH  11  13
ENDBRANCH  10  11
ENDBRANCH   3  10
ENDBRANCH   1   6
BRANCH   2  14
ATOM     14  C   UNL     1      -8.273  -3.986  -1.928  0.00  0.00    +0.259 C 
ATOM     15  O   UNL     1      -8.091  -4.310  -3.086  0.00  0.00    -0.269 OA
ATOM     16  N   UNL     1      -9.504  -4.085  -1.386  0.00  0.00    -0.281 N 
ATOM     17  H   UNL     1      -9.667  -3.755  -0.489  0.00  0.00    +0.155 HD
BRANCH  16  18
ATOM     18  C   UNL     1     -10.546  -4.667  -2.118  0.00  0.00    +0.036 A 
ATOM     19  C   UNL     1     -10.278  -5.716  -2.994  0.00  0.00    +0.027 A 
ATOM     20  C   UNL     1     -11.296  -6.296  -3.720  0.00  0.00    +0.050 A 
ATOM     21  C   UNL     1     -12.596  -5.837  -3.580  0.00  0.00    +0.159 A 
ATOM     22  C   UNL     1     -12.874  -4.780  -2.699  0.00  0.00    +0.115 A 
ATOM     23  C   UNL     1     -11.840  -4.201  -1.964  0.00  0.00    +0.055 A 
ATOM     24  N   UNL     1     -14.215  -4.553  -2.775  0.00  0.00    -0.172 NA
ATOM     25  C   UNL     1     -14.735  -5.394  -3.629  0.00  0.00    +0.441 A 
ATOM     26  O   UNL     1     -16.046  -5.455  -3.954  0.00  0.00    -0.221 OA
ATOM     27  O   UNL     1     -13.778  -6.189  -4.137  0.00  0.00    -0.406 OA
ENDBRANCH  16  18
ENDBRANCH   2  14
BRANCH   2  28
ATOM     28  C   UNL     1      -7.368  -3.104   0.244  0.00  0.00    +0.104 C 
ATOM     29  N   UNL     1      -7.539  -2.801   1.325  0.00  0.00    -0.191 NA
ENDBRANCH   2  28
TORSDOF 7
