REMARK  Name = ZINC18008356
REMARK  7 active torsions:
REMARK  status: ('A' for Active; 'I' for Inactive)
REMARK    1  A    between atoms: C_3  and  C_6
REMARK    2  A    between atoms: C_6  and  C_8
REMARK    3  A    between atoms: C_6  and  N_62
REMARK    4  A    between atoms: C_8  and  N_9
REMARK    5  A    between atoms: C_10  and  C_12
REMARK    6  A    between atoms: N_15  and  S_18
REMARK    7  A    between atoms: S_18  and  C_21
REMARK                            x       y       z     vdW  Elec       q    Type
REMARK                         _______ _______ _______ _____ _____    ______ ____
ROOT
ATOM      1  N   UNL     1       0.191   3.393   6.575  0.00  0.00    -0.316 N 
ATOM      2  C   UNL     1       1.206   3.278   5.696  0.00  0.00    +0.216 C 
ATOM      3  O   UNL     1       2.161   2.579   5.960  0.00  0.00    -0.276 OA
ATOM      4  H   UNL     1      -0.572   3.953   6.364  0.00  0.00    +0.149 HD
ENDROOT
BRANCH   2   5
ATOM      5  C   UNL     1       1.154   4.019   4.385  0.00  0.00    +0.077 C 
ATOM      6  C   UNL     1       2.420   3.718   3.578  0.00  0.00    +0.030 C 
ATOM      7  C   UNL     1       2.379   4.500   2.261  0.00  0.00    +0.110 C 
ATOM      8  N   UNL     1       1.128   4.182   1.561  0.00  0.00    -0.177 NA
ATOM      9  C   UNL     1      -0.145   4.355   2.275  0.00  0.00    +0.110 C 
ATOM     10  C   UNL     1      -0.076   3.569   3.593  0.00  0.00    +0.030 C 
BRANCH   8  11
ATOM     11  S   UNL     1       1.151   3.646  -0.006  0.00  0.00    +0.061 S 
ATOM     12  O   UNL     1       2.367   4.109  -0.576  0.00  0.00    -0.153 OA
ATOM     13  O   UNL     1      -0.119   3.960  -0.561  0.00  0.00    -0.153 OA
BRANCH  11  14
ATOM     14  C   UNL     1       1.256   1.888   0.047  0.00  0.00    +0.106 A 
ATOM     15  C   UNL     1       0.102   1.127   0.074  0.00  0.00    +0.030 A 
ATOM     16  C   UNL     1       0.185  -0.252   0.115  0.00  0.00    +0.022 A 
ATOM     17  C   UNL     1       1.422  -0.871   0.128  0.00  0.00    +0.041 A 
ATOM     18  C   UNL     1       2.576  -0.109   0.101  0.00  0.00    +0.022 A 
ATOM     19  C   UNL     1       2.493   1.270   0.060  0.00  0.00    +0.030 A 
ATOM     20 CL   UNL     1       1.526  -2.603   0.180  0.00  0.00    -0.084 Cl
ENDBRANCH  11  14
ENDBRANCH   8  11
ENDBRANCH   2   5
BRANCH   1  21
ATOM     21  C   UNL     1       0.242   2.673   7.850  0.00  0.00    +0.096 C 
BRANCH  21  22
ATOM     22  C   UNL     1      -1.023   2.974   8.656  0.00  0.00    +0.016 C 
BRANCH  22  28
ATOM     23  C   UNL     1       0.016   5.013   9.443  0.00  0.00    -0.078 C 
ATOM     24  C   UNL     1      -0.111   6.538   9.455  0.00  0.00    -0.019 C 
ATOM     25  C   UNL     1      -1.372   6.935  10.228  0.00  0.00    -0.004 C 
ATOM     26  C   UNL     1      -2.589   6.272   9.577  0.00  0.00    -0.019 C 
ATOM     27  C   UNL     1      -2.390   4.755   9.562  0.00  0.00    -0.078 C 
ATOM     28  N   UNL     1      -1.175   4.438   8.782  0.00  0.00    +0.387 N 
ATOM     29  H   UNL     1      -1.265   4.846   7.844  0.00  0.00    -0.081 HD
ENDBRANCH  22  28
BRANCH  22  32
ATOM     30  C   UNL     1      -1.196   0.998  11.763  0.00  0.00    +0.041 A 
ATOM     31  C   UNL     1      -1.603   1.254  10.433  0.00  0.00    +0.043 A 
ATOM     32  C   UNL     1      -0.917   2.333  10.016  0.00  0.00    +0.093 A 
ATOM     33  O   UNL     1      -0.116   2.739  11.015  0.00  0.00    -0.469 OA
ATOM     34  C   UNL     1      -0.286   1.937  12.079  0.00  0.00    +0.195 A 
ENDBRANCH  22  32
ENDBRANCH  21  22
ENDBRANCH   1  21
TORSDOF 7
