REMARK  Name = ZINC64151851
REMARK  6 active torsions:
REMARK  status: ('A' for Active; 'I' for Inactive)
REMARK    1  A    between atoms: C_1  and  C_2
REMARK    2  A    between atoms: C_2  and  C_3
REMARK    3  A    between atoms: C_2  and  C_4
REMARK    4  A    between atoms: N_18  and  C_19
REMARK    5  A    between atoms: C_19  and  C_20
REMARK    6  A    between atoms: C_22  and  C_25
REMARK                            x       y       z     vdW  Elec       q    Type
REMARK                         _______ _______ _______ _____ _____    ______ ____
ROOT
ATOM      1  C   UNL     1      -1.516  -0.495  -0.721  0.00  0.00    -0.038 C 
ATOM      2  C   UNL     1      -2.507   0.212   0.206  0.00  0.00    +0.093 C 
ATOM      3  C   UNL     1      -2.012  -0.038   1.627  0.00  0.00    -0.042 C 
ATOM      4  C   UNL     1      -1.905   1.151   2.201  0.00  0.00    -0.001 A 
ATOM      5  C   UNL     1      -1.565   1.551   3.576  0.00  0.00    +0.010 A 
ATOM      6  C   UNL     1      -1.532   2.887   3.822  0.00  0.00    +0.001 A 
ATOM      7  C   UNL     1      -1.800   3.855   2.849  0.00  0.00    +0.002 A 
ATOM      8  C   UNL     1      -2.127   3.578   1.562  0.00  0.00    +0.026 A 
ATOM      9  C   UNL     1      -2.199   2.206   1.183  0.00  0.00    +0.043 A 
ATOM     10  N   UNL     1      -2.516   1.662   0.025  0.00  0.00    -0.379 N 
ATOM     11  C   UNL     1      -1.655  -1.425   2.103  0.00  0.00    +0.015 C 
ATOM     12  C   UNL     1      -0.768  -2.039   1.005  0.00  0.00    -0.073 C 
ATOM     13  N   UNL     1      -1.413  -1.902  -0.304  0.00  0.00    +0.389 N 
ATOM     14  H   UNL     1      -2.715   2.130  -0.802  0.00  0.00    +0.160 HD
ATOM     15  H   UNL     1      -2.339  -2.299  -0.257  0.00  0.00    -0.081 HD
ENDROOT
BRANCH   1  17
ATOM     16  C   UNL     1       0.837  -0.522  -1.561  0.00  0.00    +0.005 C 
ATOM     17  C   UNL     1      -0.144   0.175  -0.616  0.00  0.00    -0.029 C 
ATOM     18  C   UNL     1      -0.266   1.650  -1.004  0.00  0.00    +0.005 C 
ENDBRANCH   1  17
BRANCH  13  19
ATOM     19  C   UNL     1      -0.630  -2.641  -1.304  0.00  0.00    +0.022 C 
BRANCH  19  20
ATOM     20  C   UNL     1      -0.782  -4.121  -1.068  0.00  0.00    +0.211 A 
ATOM     21  N   UNL     1      -1.694  -4.886  -1.597  0.00  0.00    -0.192 NA
ATOM     22  C   UNL     1      -1.538  -6.152  -1.171  0.00  0.00    +0.222 A 
ATOM     23  N   UNL     1      -0.511  -6.196  -0.358  0.00  0.00    -0.055 NA
ATOM     24  O   UNL     1      -0.000  -4.874  -0.284  0.00  0.00    -0.340 OA
BRANCH  22  25
ATOM     25  C   UNL     1      -2.387  -7.307  -1.557  0.00  0.00    +0.129 A 
ATOM     26  C   UNL     1      -2.122  -8.574  -1.039  0.00  0.00    +0.142 A 
ATOM     27  N   UNL     1      -2.880  -9.598  -1.385  0.00  0.00    -0.260 NA
ATOM     28  C   UNL     1      -3.888  -9.423  -2.222  0.00  0.00    +0.130 A 
ATOM     29  C   UNL     1      -4.154  -8.166  -2.739  0.00  0.00    +0.131 A 
ATOM     30  N   UNL     1      -3.405  -7.136  -2.394  0.00  0.00    -0.249 NA
ENDBRANCH  22  25
ENDBRANCH  19  20
ENDBRANCH  13  19
TORSDOF 4
