REMARK  Name = ZINC38598975
REMARK  3 active torsions:
REMARK  status: ('A' for Active; 'I' for Inactive)
REMARK    1  A    between atoms: C_1  and  C_2
REMARK    2  A    between atoms: C_4  and  C_24
REMARK    3  A    between atoms: C_28  and  C_30
REMARK                            x       y       z     vdW  Elec       q    Type
REMARK                         _______ _______ _______ _____ _____    ______ ____
ROOT
ATOM      1  C   UNL     1      -0.074   1.444  -0.630  0.00  0.00    +0.062 C 
ATOM      2  C   UNL     1      -0.082  -0.063  -0.601  0.00  0.00    +0.022 C 
ATOM      3  C   UNL     1      -1.103  -0.785  -0.239  0.00  0.00    -0.004 C 
ATOM      4  C   UNL     1      -2.525  -0.387   0.080  0.00  0.00    +0.059 C 
ATOM      5  C   UNL     1      -3.413  -1.102  -0.949  0.00  0.00    +0.108 C 
ATOM      6  C   UNL     1      -2.917  -2.480  -1.248  0.00  0.00    +0.216 C 
ATOM      7  O   UNL     1      -3.722  -3.247  -1.733  0.00  0.00    -0.276 OA
ATOM      8  N   UNL     1      -1.691  -2.963  -1.043  0.00  0.00    -0.292 N 
ATOM      9  C   UNL     1      -0.680  -2.245  -0.279  0.00  0.00    +0.210 C 
ATOM     10  N   UNL     1       0.628  -2.214  -0.935  0.00  0.00    -0.213 N 
ATOM     11  N   UNL     1       0.997  -0.857  -0.963  0.00  0.00    -0.265 N 
ATOM     12  C   UNL     1       1.329  -3.262  -1.415  0.00  0.00    +0.150 C 
ATOM     13  N   UNL     1       0.860  -4.494  -1.333  0.00  0.00    -0.221 NA
ATOM     14  C   UNL     1       1.534  -5.569  -1.730  0.00  0.00    +0.225 C 
ATOM     15  N   UNL     1       2.844  -5.549  -1.946  0.00  0.00    -0.218 NA
ATOM     16  C   UNL     1       3.439  -4.369  -1.809  0.00  0.00    +0.164 C 
ATOM     17  N   UNL     1       4.619  -3.985  -1.424  0.00  0.00    -0.219 NA
ATOM     18  C   UNL     1       4.630  -2.683  -1.110  0.00  0.00    +0.218 C 
ATOM     19  N   UNL     1       3.519  -2.073  -1.416  0.00  0.00    -0.253 NA
ATOM     20  C   UNL     1       2.670  -3.071  -2.069  0.00  0.00    +0.239 C 
ATOM     21  H   UNL     1      -1.464  -3.829  -1.418  0.00  0.00    +0.151 HD
ATOM     22  H   UNL     1       1.877  -0.524  -1.200  0.00  0.00    +0.170 HD
ENDROOT
BRANCH   4  23
ATOM     23  C   UNL     1      -2.684   1.106  -0.045  0.00  0.00    -0.039 A 
ATOM     24  C   UNL     1      -2.637   1.903   1.084  0.00  0.00    +0.004 A 
ATOM     25  C   UNL     1      -2.783   3.272   0.970  0.00  0.00    +0.001 A 
ATOM     26  C   UNL     1      -2.976   3.846  -0.273  0.00  0.00    +0.012 A 
ATOM     27  C   UNL     1      -3.023   3.049  -1.402  0.00  0.00    +0.055 A 
ATOM     28  C   UNL     1      -2.872   1.680  -1.288  0.00  0.00    +0.016 A 
BRANCH  27  29
ATOM     29  C   UNL     1      -3.234   3.675  -2.756  0.00  0.00    +0.417 C 
ATOM     30  F   UNL     1      -3.354   5.061  -2.617  0.00  0.00    -0.166 F 
ATOM     31  F   UNL     1      -2.141   3.382  -3.580  0.00  0.00    -0.166 F 
ATOM     32  F   UNL     1      -4.401   3.160  -3.330  0.00  0.00    -0.166 F 
ENDBRANCH  27  29
ENDBRANCH   4  23
TORSDOF 2
