REMARK  Name = ZINC34785988
REMARK  6 active torsions:
REMARK  status: ('A' for Active; 'I' for Inactive)
REMARK    1  A    between atoms: C_1  and  C_2
REMARK    2  A    between atoms: C_3  and  C_26
REMARK    3  A    between atoms: C_5  and  N_10
REMARK    4  A    between atoms: C_6  and  C_7
REMARK    5  A    between atoms: N_16  and  C_19
REMARK    6  A    between atoms: C_19  and  C_20
REMARK                            x       y       z     vdW  Elec       q    Type
REMARK                         _______ _______ _______ _____ _____    ______ ____
ROOT
ATOM      1  N   UNL     1       0.055  -3.117   2.082  0.00  0.00    -0.263 N 
ATOM      2  C   UNL     1       0.071  -4.426   1.761  0.00  0.00    +0.307 C 
ATOM      3  O   UNL     1      -0.021  -4.768   0.598  0.00  0.00    -0.252 OA
ATOM      4  N   UNL     1       0.190  -5.356   2.730  0.00  0.00    -0.283 N 
ATOM      5  C   UNL     1       0.187  -4.972   4.150  0.00  0.00    +0.124 C 
ATOM      6  C   UNL     1       1.407  -5.605   4.828  0.00  0.00    +0.104 C 
ATOM      7  N   UNL     1       1.407  -7.052   4.576  0.00  0.00    -0.295 NA
ATOM      8  C   UNL     1       1.541  -7.343   3.142  0.00  0.00    +0.104 C 
ATOM      9  C   UNL     1       0.320  -6.782   2.395  0.00  0.00    +0.124 C 
ATOM     10  H   UNL     1       0.053  -2.846   3.014  0.00  0.00    +0.157 HD
ENDROOT
BRANCH   1  15
ATOM     11  C   UNL     1      -0.011   1.503   0.010  0.00  0.00    +0.045 C 
ATOM     12  C   UNL     1       0.009  -0.004   0.002  0.00  0.00    -0.027 A 
ATOM     13  C   UNL     1       0.016  -0.712  -1.142  0.00  0.00    -0.008 A 
ATOM     14  S   UNL     1       0.039  -2.400  -0.579  0.00  0.00    -0.078 S 
ATOM     15  C   UNL     1       0.040  -2.158   1.081  0.00  0.00    +0.086 A 
ATOM     16  C   UNL     1       0.028  -0.778   1.222  0.00  0.00    +0.068 A 
ATOM     17  C   UNL     1       0.006  -0.200  -2.559  0.00  0.00    +0.052 C 
BRANCH  16  18
ATOM     18  C   UNL     1       0.028  -0.138   2.541  0.00  0.00    +0.244 C 
ATOM     19  O   UNL     1      -1.025   0.114   3.096  0.00  0.00    -0.270 OA
ATOM     20  N   UNL     1       1.196   0.172   3.139  0.00  0.00    -0.325 N 
ATOM     21  H   UNL     1       2.035  -0.029   2.697  0.00  0.00    +0.145 HD
ATOM     22  H   UNL     1       1.196   0.595   4.012  0.00  0.00    +0.145 HD
ENDBRANCH  16  18
ENDBRANCH   1  15
BRANCH   7  23
ATOM     23  C   UNL     1       2.462  -7.721   5.349  0.00  0.00    +0.119 C 
BRANCH  23  24
ATOM     24  C   UNL     1       2.279  -9.214   5.261  0.00  0.00    -0.033 A 
ATOM     25  C   UNL     1       1.495  -9.871   6.190  0.00  0.00    +0.005 A 
ATOM     26  C   UNL     1       1.327 -11.241   6.109  0.00  0.00    +0.000 A 
ATOM     27  C   UNL     1       1.944 -11.954   5.098  0.00  0.00    +0.000 A 
ATOM     28  C   UNL     1       2.728 -11.297   4.168  0.00  0.00    +0.000 A 
ATOM     29  C   UNL     1       2.892  -9.927   4.247  0.00  0.00    +0.005 A 
ENDBRANCH  23  24
ENDBRANCH   7  23
TORSDOF 4
