REMARK  Name = ZINC00819141
REMARK  5 active torsions:
REMARK  status: ('A' for Active; 'I' for Inactive)
REMARK    1  A    between atoms: C_1  and  N_2
REMARK    2  A    between atoms: C_3  and  C_17
REMARK    3  A    between atoms: N_7  and  C_8
REMARK    4  A    between atoms: C_8  and  C_9
REMARK    5  A    between atoms: C_14  and  O_15
REMARK                            x       y       z     vdW  Elec       q    Type
REMARK                         _______ _______ _______ _____ _____    ______ ____
ROOT
ATOM      1  C   UNL     1      -0.218   0.510   0.213  0.00  0.00    +0.152 C 
ATOM      2  N   UNL     1      -0.789   1.304   1.304  0.00  0.00    -0.315 N 
ATOM      3  C   UNL     1      -2.033   1.911   1.318  0.00  0.00    +0.070 A 
ATOM      4  C   UNL     1      -2.148   2.533   2.520  0.00  0.00    +0.140 A 
ATOM      5  N   UNL     1      -1.018   2.324   3.209  0.00  0.00    -0.222 NA
ATOM      6  C   UNL     1      -0.196   1.590   2.495  0.00  0.00    +0.196 A 
ATOM      7  N   UNL     1       1.064   1.176   2.888  0.00  0.00    -0.311 N 
ATOM      8  H   UNL     1       1.604   0.633   2.292  0.00  0.00    +0.149 HD
ENDROOT
BRANCH   3   9
ATOM      9  C   UNL     1      -3.040   1.885   0.237  0.00  0.00    +0.004 A 
ATOM     10  C   UNL     1      -4.050   2.848   0.197  0.00  0.00    +0.014 A 
ATOM     11  C   UNL     1      -4.986   2.825  -0.816  0.00  0.00    +0.050 A 
ATOM     12  C   UNL     1      -4.935   1.841  -1.791  0.00  0.00    +0.166 A 
ATOM     13  C   UNL     1      -3.933   0.872  -1.754  0.00  0.00    +0.167 A 
ATOM     14  C   UNL     1      -2.989   0.893  -0.744  0.00  0.00    +0.059 A 
ATOM     15  O   UNL     1      -4.104   0.028  -2.813  0.00  0.00    -0.453 OA
ATOM     16  C   UNL     1      -4.970   0.727  -3.727  0.00  0.00    +0.466 C 
ATOM     17  O   UNL     1      -5.732   1.601  -2.874  0.00  0.00    -0.453 OA
ENDBRANCH   3   9
BRANCH   7  18
ATOM     18  C   UNL     1       1.583   1.558   4.204  0.00  0.00    +0.143 C 
BRANCH  18  19
ATOM     19  C   UNL     1       2.965   0.984   4.384  0.00  0.00    +0.012 A 
ATOM     20  C   UNL     1       3.144  -0.166   5.128  0.00  0.00    +0.028 A 
ATOM     21  C   UNL     1       4.412  -0.696   5.291  0.00  0.00    +0.042 A 
ATOM     22  C   UNL     1       5.504  -0.069   4.717  0.00  0.00    +0.023 A 
ATOM     23  C   UNL     1       5.330   1.084   3.977  0.00  0.00    +0.047 A 
ATOM     24  C   UNL     1       4.059   1.614   3.809  0.00  0.00    +0.122 A 
ATOM     25 CL   UNL     1       4.633  -2.145   6.220  0.00  0.00    -0.084 Cl
BRANCH  24  26
ATOM     26  O   UNL     1       3.885   2.748   3.080  0.00  0.00    -0.506 OA
ATOM     27  H   UNL     1       3.941   3.562   3.600  0.00  0.00    +0.292 HD
ENDBRANCH  24  26
ENDBRANCH  18  19
ENDBRANCH   7  18
TORSDOF 4
