REMARK  Name = ZINC01054629
REMARK  6 active torsions:
REMARK  status: ('A' for Active; 'I' for Inactive)
REMARK    1  A    between atoms: C_1  and  C_2
REMARK    2  A    between atoms: C_2  and  N_51
REMARK    3  A    between atoms: C_5  and  C_6
REMARK    4  A    between atoms: C_15  and  C_23
REMARK    5  A    between atoms: C_17  and  C_21
REMARK    6  A    between atoms: C_18  and  N_20
REMARK                            x       y       z     vdW  Elec       q    Type
REMARK                         _______ _______ _______ _____ _____    ______ ____
ROOT
ATOM      1  C   UNL     1      -5.005   0.932   0.290  0.00  0.00    -0.039 C 
ATOM      2  C   UNL     1      -3.687   1.668   0.171  0.00  0.00    -0.021 C 
ATOM      3  C   UNL     1      -2.522   1.002   0.078  0.00  0.00    +0.013 C 
ATOM      4  C   UNL     1      -3.727   3.145   0.167  0.00  0.00    +0.130 C 
ATOM      5  C   UNL     1      -4.899   3.773   0.046  0.00  0.00    -0.031 C 
ATOM      6  C   UNL     1      -6.193   3.007  -0.065  0.00  0.00    -0.042 C 
ATOM      7  C   UNL     1      -4.957   5.281   0.025  0.00  0.00    +0.092 C 
ATOM      8  C   UNL     1      -3.687   5.860   0.597  0.00  0.00    +0.098 C 
ATOM      9  C   UNL     1      -2.564   5.105   0.690  0.00  0.00    +0.199 C 
ATOM     10  O   UNL     1      -2.559   3.824   0.283  0.00  0.00    -0.441 OA
ATOM     11  N   UNL     1      -5.961   1.650  -0.584  0.00  0.00    +0.385 N 
ATOM     12  H   UNL     1      -5.564   1.716  -1.528  0.00  0.00    -0.081 HD
ENDROOT
BRANCH   3  13
ATOM     13  C   UNL     1      -1.289   1.722  -0.287  0.00  0.00    -0.025 A 
ATOM     14  C   UNL     1      -1.294   2.629  -1.350  0.00  0.00    +0.008 A 
ATOM     15  C   UNL     1      -0.137   3.303  -1.681  0.00  0.00    +0.001 A 
ATOM     16  C   UNL     1       1.027   3.078  -0.968  0.00  0.00    +0.000 A 
ATOM     17  C   UNL     1       1.041   2.177   0.082  0.00  0.00    +0.001 A 
ATOM     18  C   UNL     1      -0.108   1.496   0.425  0.00  0.00    +0.008 A 
ENDBRANCH   3  13
BRANCH   7  19
ATOM     19  C   UNL     1      -5.142   5.753  -1.394  0.00  0.00    -0.035 A 
ATOM     20  C   UNL     1      -4.196   5.444  -2.354  0.00  0.00    +0.004 A 
ATOM     21  C   UNL     1      -4.368   5.873  -3.657  0.00  0.00    +0.000 A 
ATOM     22  C   UNL     1      -5.481   6.620  -3.998  0.00  0.00    +0.000 A 
ATOM     23  C   UNL     1      -6.424   6.933  -3.037  0.00  0.00    +0.000 A 
ATOM     24  C   UNL     1      -6.254   6.500  -1.735  0.00  0.00    +0.004 A 
ENDBRANCH   7  19
BRANCH   9  25
ATOM     25  N   UNL     1      -1.418   5.656   1.207  0.00  0.00    -0.328 N 
ATOM     26  H   UNL     1      -0.590   5.151   1.197  0.00  0.00    +0.145 HD
ATOM     27  H   UNL     1      -1.436   6.551   1.582  0.00  0.00    +0.145 HD
ENDBRANCH   9  25
BRANCH  11  29
ATOM     28  C   UNL     1      -7.913   0.883   0.725  0.00  0.00    -0.017 C 
ATOM     29  C   UNL     1      -7.241   0.909  -0.649  0.00  0.00    -0.081 C 
ENDBRANCH  11  29
BRANCH   8  30
ATOM     30  C   UNL     1      -3.664   7.223   1.037  0.00  0.00    +0.101 C 
ATOM     31  N   UNL     1      -3.645   8.304   1.387  0.00  0.00    -0.191 NA
ENDBRANCH   8  30
TORSDOF 5
