REMARK  Name = ZINC39228040
REMARK  2 active torsions:
REMARK  status: ('A' for Active; 'I' for Inactive)
REMARK    1  A    between atoms: C_11  and  C_13
REMARK    2  A    between atoms: C_15  and  O_40
REMARK                            x       y       z     vdW  Elec       q    Type
REMARK                         _______ _______ _______ _____ _____    ______ ____
ROOT
ATOM      1  C   UNL     1       5.582  -2.099   1.683  0.00  0.00    +0.107 C 
ATOM      2  C   UNL     1       5.106  -0.988   2.622  0.00  0.00    +0.127 C 
ATOM      3  C   UNL     1       6.311  -0.316   3.281  0.00  0.00    +0.032 C 
ATOM      4  C   UNL     1       7.113  -1.352   4.072  0.00  0.00    +0.004 C 
ATOM      5  C   UNL     1       7.589  -2.451   3.122  0.00  0.00    -0.024 C 
ATOM      6  C   UNL     1       6.374  -3.131   2.487  0.00  0.00    +0.004 C 
ATOM      7  C   UNL     1       6.848  -4.263   1.572  0.00  0.00    -0.005 C 
ATOM      8  C   UNL     1       7.695  -5.236   2.396  0.00  0.00    -0.020 C 
ATOM      9  C   UNL     1       8.179  -6.366   1.524  0.00  0.00    +0.006 A 
ATOM     10  H   UNL     1       6.550  -6.874   0.331  0.00  0.00    +0.166 HD
ATOM     11  C   UNL     1       9.439  -6.857   1.598  0.00  0.00    -0.022 A 
ATOM     12  C   UNL     1       9.541  -7.920   0.624  0.00  0.00    +0.003 A 
ATOM     13  C   UNL     1      10.583  -8.776   0.256  0.00  0.00    +0.010 A 
ATOM     14  C   UNL     1      10.317  -9.690  -0.734  0.00  0.00    +0.001 A 
ATOM     15  C   UNL     1       9.078  -9.770  -1.347  0.00  0.00    +0.002 A 
ATOM     16  C   UNL     1       8.028  -8.936  -1.003  0.00  0.00    +0.026 A 
ATOM     17  C   UNL     1       8.269  -7.999  -0.001  0.00  0.00    +0.047 A 
ATOM     18  N   UNL     1       7.474  -7.045   0.569  0.00  0.00    -0.359 N 
ATOM     19  C   UNL     1      10.478  -6.331   2.556  0.00  0.00    +0.019 C 
ATOM     20  C   UNL     1       9.764  -5.472   3.610  0.00  0.00    -0.073 C 
ATOM     21  N   UNL     1       8.860  -4.528   2.944  0.00  0.00    +0.386 N 
ATOM     22  C   UNL     1       8.407  -3.494   3.886  0.00  0.00    -0.074 C 
ATOM     23  H   UNL     1       9.356  -4.081   2.188  0.00  0.00    -0.081 HD
ENDROOT
BRANCH   1  34
ATOM     24  C   UNL     1       1.594   1.323  -2.575  0.00  0.00    +0.000 A 
ATOM     25  C   UNL     1       2.907   1.743  -2.474  0.00  0.00    +0.000 A 
ATOM     26  C   UNL     1       3.851   0.909  -1.911  0.00  0.00    +0.005 A 
ATOM     27  C   UNL     1       3.490  -0.347  -1.441  0.00  0.00    -0.027 A 
ATOM     28  C   UNL     1       2.181  -0.763  -1.532  0.00  0.00    -0.041 A 
ATOM     29  C   UNL     1       1.234   0.077  -2.107  0.00  0.00    +0.004 A 
ATOM     30  C   UNL     1       1.710  -2.097  -1.017  0.00  0.00    +0.054 C 
ATOM     31  C   UNL     1       2.880  -3.069  -0.872  0.00  0.00    +0.113 C 
ATOM     32  N   UNL     1       3.968  -2.366  -0.172  0.00  0.00    -0.297 N 
ATOM     33  C   UNL     1       4.573  -1.215  -0.850  0.00  0.00    +0.143 C 
ATOM     34  C   UNL     1       4.391  -2.765   1.044  0.00  0.00    +0.222 C 
ATOM     35  O   UNL     1       3.812  -3.659   1.624  0.00  0.00    -0.275 OA
ENDBRANCH   1  34
BRANCH   2  36
ATOM     36  O   UNL     1       4.264  -1.547   3.632  0.00  0.00    -0.391 OA
ATOM     37  H   UNL     1       3.924  -0.899   4.264  0.00  0.00    +0.210 HD
ENDBRANCH   2  36
TORSDOF 2
