REMARK  Name = ZINC33042554
REMARK  6 active torsions:
REMARK  status: ('A' for Active; 'I' for Inactive)
REMARK    1  A    between atoms: C_4  and  C_7
REMARK    2  A    between atoms: N_11  and  N_12
REMARK    3  A    between atoms: N_12  and  C_13
REMARK    4  A    between atoms: C_16  and  S_22
REMARK    5  A    between atoms: C_18  and  N_19
REMARK    6  A    between atoms: S_22  and  N_25
REMARK                            x       y       z     vdW  Elec       q    Type
REMARK                         _______ _______ _______ _____ _____    ______ ____
ROOT
ATOM      1  C   UNL     1      -6.039   5.524   1.141  0.00  0.00    +0.209 C 
ATOM      2  C   UNL     1      -4.949   5.087   0.152  0.00  0.00    +0.107 C 
ATOM      3  C   UNL     1      -4.825   3.577   0.262  0.00  0.00    +0.074 C 
ATOM      4  N   UNL     1      -3.671   2.982   0.229  0.00  0.00    -0.186 NA
ATOM      5  C   UNL     1      -6.088   2.820   0.403  0.00  0.00    +0.040 A 
ATOM      6  C   UNL     1      -6.106   1.434   0.276  0.00  0.00    +0.013 A 
ATOM      7  C   UNL     1      -7.296   0.750   0.422  0.00  0.00    +0.001 A 
ATOM      8  C   UNL     1      -8.464   1.440   0.699  0.00  0.00    +0.004 A 
ATOM      9  C   UNL     1      -8.455   2.815   0.831  0.00  0.00    +0.046 A 
ATOM     10  C   UNL     1      -7.270   3.520   0.687  0.00  0.00    +0.130 A 
ATOM     11  O   UNL     1      -7.265   4.870   0.814  0.00  0.00    -0.483 OA
ENDROOT
BRANCH   1  15
ATOM     12  C   UNL     1      -6.572   9.755   0.894  0.00  0.00    +0.000 A 
ATOM     13  C   UNL     1      -5.732   9.219   1.852  0.00  0.00    +0.000 A 
ATOM     14  C   UNL     1      -5.560   7.850   1.932  0.00  0.00    +0.007 A 
ATOM     15  C   UNL     1      -6.227   7.017   1.054  0.00  0.00    -0.007 A 
ATOM     16  C   UNL     1      -7.063   7.553   0.092  0.00  0.00    +0.007 A 
ATOM     17  C   UNL     1      -7.240   8.922   0.015  0.00  0.00    +0.000 A 
ENDBRANCH   1  15
BRANCH   4  18
ATOM     18  N   UNL     1      -2.498   3.735   0.087  0.00  0.00    -0.235 N 
ATOM     19  H   UNL     1      -2.554   4.830   0.005  0.00  0.00    +0.174 HD
BRANCH  18  20
ATOM     20  C   UNL     1      -1.259   3.095   0.051  0.00  0.00    +0.079 A 
ATOM     21  C   UNL     1      -1.176   1.724   0.267  0.00  0.00    +0.029 A 
ATOM     22  C   UNL     1       0.053   1.096   0.236  0.00  0.00    +0.030 A 
ATOM     23  C   UNL     1       1.199   1.826  -0.021  0.00  0.00    +0.107 A 
ATOM     24  C   UNL     1       1.120   3.189  -0.241  0.00  0.00    +0.063 A 
ATOM     25  C   UNL     1      -0.105   3.826  -0.205  0.00  0.00    +0.150 A 
BRANCH  25  26
ATOM     26  N   UNL     1      -0.189   5.285  -0.441  0.00  0.00    +0.058 N 
ATOM     27  O   UNL     1      -1.138   5.751  -1.046  0.00  0.00    -0.126 OA
ATOM     28  O   UNL     1       0.691   6.020  -0.029  0.00  0.00    -0.126 OA
ENDBRANCH  25  26
BRANCH  23  29
ATOM     29  S   UNL     1       2.765   1.018  -0.066  0.00  0.00    +0.056 S 
ATOM     30  O   UNL     1       3.742   2.011   0.215  0.00  0.00    -0.153 OA
ATOM     31  O   UNL     1       2.634  -0.164   0.711  0.00  0.00    -0.153 OA
BRANCH  29  32
ATOM     32  N   UNL     1       3.020   0.533  -1.629  0.00  0.00    -0.204 NA
ATOM     33  H   UNL     1       3.991   0.022  -1.700  0.00  0.00    +0.144 HD
ATOM     34  H   UNL     1       3.018   1.411  -2.291  0.00  0.00    +0.144 HD
ENDBRANCH  29  32
ENDBRANCH  23  29
ENDBRANCH  18  20
ENDBRANCH   4  18
TORSDOF 6
