REMARK  Name = ZINC12529612
REMARK  6 active torsions:
REMARK  status: ('A' for Active; 'I' for Inactive)
REMARK    1  A    between atoms: C_4  and  O_29
REMARK    2  A    between atoms: C_5  and  C_7
REMARK    3  A    between atoms: C_7  and  N_8
REMARK    4  A    between atoms: N_8  and  C_9
REMARK    5  A    between atoms: C_18  and  N_23
REMARK    6  A    between atoms: C_20  and  O_22
REMARK                            x       y       z     vdW  Elec       q    Type
REMARK                         _______ _______ _______ _____ _____    ______ ____
ROOT
ATOM      1  C   UNL     1       1.642  -4.149   1.364  0.00  0.00    +0.112 C 
ATOM      2  C   UNL     1       0.201  -4.678   1.452  0.00  0.00    +0.166 C 
ATOM      3  C   UNL     1       0.272  -6.171   1.849  0.00  0.00    +0.196 C 
ATOM      4  O   UNL     1       0.239  -6.174   3.288  0.00  0.00    -0.350 OA
ATOM      5  C   UNL     1       0.196  -4.798   3.709  0.00  0.00    +0.240 C 
ATOM      6  O   UNL     1      -0.413  -4.054   2.607  0.00  0.00    -0.346 OA
ATOM      7  C   UNL     1       1.640  -4.303   3.881  0.00  0.00    +0.019 C 
ATOM      8  C   UNL     1       2.418  -4.630   2.595  0.00  0.00    +0.125 C 
ENDROOT
BRANCH   7   9
ATOM      9  N   UNL     1       1.641  -2.847   4.076  0.00  0.00    +0.387 N 
ATOM     10  C   UNL     1       3.019  -2.384   4.280  0.00  0.00    -0.078 C 
ATOM     11  C   UNL     1       3.035  -0.859   4.403  0.00  0.00    -0.019 C 
ATOM     12  C   UNL     1       2.171  -0.439   5.596  0.00  0.00    -0.004 C 
ATOM     13  C   UNL     1       0.755  -0.991   5.408  0.00  0.00    -0.019 C 
ATOM     14  C   UNL     1       0.824  -2.511   5.248  0.00  0.00    -0.078 C 
ATOM     15  H   UNL     1       1.256  -2.399   3.258  0.00  0.00    -0.081 HD
ENDBRANCH   7   9
BRANCH   1  16
ATOM     16  N   UNL     1       1.627  -2.680   1.333  0.00  0.00    -0.305 NA
ATOM     17  H   UNL     1       2.468  -2.301   1.742  0.00  0.00    +0.123 HD
BRANCH  16  18
ATOM     18  C   UNL     1       1.439  -2.185  -0.037  0.00  0.00    +0.120 C 
BRANCH  18  23
ATOM     19  C   UNL     1       0.219   1.389  -0.068  0.00  0.00    +0.001 A 
ATOM     20  C   UNL     1       1.409   2.090  -0.016  0.00  0.00    +0.004 A 
ATOM     21  C   UNL     1       2.611   1.411   0.029  0.00  0.00    +0.046 A 
ATOM     22  C   UNL     1       2.624   0.024   0.023  0.00  0.00    +0.121 A 
ATOM     23  C   UNL     1       1.429  -0.678  -0.029  0.00  0.00    +0.008 A 
ATOM     24  C   UNL     1       0.229   0.006  -0.075  0.00  0.00    +0.008 A 
BRANCH  22  25
ATOM     25  O   UNL     1       3.805  -0.646   0.067  0.00  0.00    -0.506 OA
ATOM     26  H   UNL     1       4.112  -0.845   0.962  0.00  0.00    +0.292 HD
ENDBRANCH  22  25
ENDBRANCH  18  23
ENDBRANCH  16  18
ENDBRANCH   1  16
BRANCH   8  27
ATOM     27  O   UNL     1       2.585  -6.048   2.530  0.00  0.00    -0.392 OA
ATOM     28  H   UNL     1       3.070  -6.351   1.750  0.00  0.00    +0.210 HD
ENDBRANCH   8  27
TORSDOF 6
