REMARK  Name = ZINC05336169
REMARK  5 active torsions:
REMARK  status: ('A' for Active; 'I' for Inactive)
REMARK    1  A    between atoms: C_4  and  N_20
REMARK    2  A    between atoms: C_6  and  S_7
REMARK    3  A    between atoms: S_7  and  N_10
REMARK    4  A    between atoms: N_10  and  C_11
REMARK    5  A    between atoms: C_14  and  N_18
REMARK                            x       y       z     vdW  Elec       q    Type
REMARK                         _______ _______ _______ _____ _____    ______ ____
ROOT
ATOM      1  S   UNL     1       3.981   2.425   0.008  0.00  0.00    +0.092 S 
ATOM      2  O   UNL     1       3.937   3.777   0.440  0.00  0.00    -0.148 OA
ATOM      3  O   UNL     1       4.832   1.459   0.611  0.00  0.00    -0.148 OA
ENDROOT
BRANCH   1   9
ATOM      4  C   UNL     1       1.272   2.675   0.218  0.00  0.00    +0.030 A 
ATOM      5  C   UNL     1      -0.017   2.186   0.321  0.00  0.00    +0.024 A 
ATOM      6  C   UNL     1      -0.239   0.821   0.344  0.00  0.00    +0.071 A 
ATOM      7  C   UNL     1       0.830  -0.054   0.264  0.00  0.00    +0.146 A 
ATOM      8  C   UNL     1       2.118   0.436   0.161  0.00  0.00    +0.063 A 
ATOM      9  C   UNL     1       2.339   1.800   0.138  0.00  0.00    +0.113 A 
ATOM     10 CL   UNL     1      -1.857   0.206   0.472  0.00  0.00    -0.081 Cl
BRANCH   7  11
ATOM     11  N   UNL     1       0.593  -1.515   0.289  0.00  0.00    +0.058 N 
ATOM     12  O   UNL     1       1.534  -2.286   0.219  0.00  0.00    -0.126 OA
ATOM     13  O   UNL     1      -0.542  -1.947   0.380  0.00  0.00    -0.126 OA
ENDBRANCH   7  11
ENDBRANCH   1   9
BRANCH   1  14
ATOM     14  N   UNL     1       4.367   2.454  -1.603  0.00  0.00    -0.098 NA
BRANCH  14  15
ATOM     15  C   UNL     1       3.650   3.278  -2.479  0.00  0.00    +0.077 A 
ATOM     16  C   UNL     1       2.736   2.721  -3.363  0.00  0.00    +0.048 A 
ATOM     17  C   UNL     1       2.024   3.535  -4.224  0.00  0.00    +0.065 A 
ATOM     18  C   UNL     1       2.232   4.908  -4.213  0.00  0.00    +0.062 A 
ATOM     19  C   UNL     1       3.152   5.464  -3.333  0.00  0.00    +0.065 A 
ATOM     20  C   UNL     1       3.859   4.651  -2.468  0.00  0.00    +0.048 A 
ATOM     21 CL   UNL     1       3.412   7.180  -3.319  0.00  0.00    -0.082 Cl
ATOM     22 CL   UNL     1       0.874   2.839  -5.324  0.00  0.00    -0.082 Cl
BRANCH  18  23
ATOM     23  N   UNL     1       1.514   5.732  -5.090  0.00  0.00    -0.356 N 
ATOM     24  H   UNL     1       1.679   6.820  -5.082  0.00  0.00    +0.142 HD
ATOM     25  H   UNL     1       0.786   5.292  -5.787  0.00  0.00    +0.142 HD
ENDBRANCH  18  23
ENDBRANCH  14  15
ENDBRANCH   1  14
TORSDOF 5
