REMARK  Name = ZINC13440915
REMARK  6 active torsions:
REMARK  status: ('A' for Active; 'I' for Inactive)
REMARK    1  A    between atoms: C_1  and  C_2
REMARK    2  A    between atoms: C_3  and  C_27
REMARK    3  A    between atoms: C_4  and  N_13
REMARK    4  A    between atoms: N_5  and  C_7
REMARK    5  A    between atoms: N_16  and  S_17
REMARK    6  A    between atoms: S_17  and  C_20
REMARK                            x       y       z     vdW  Elec       q    Type
REMARK                         _______ _______ _______ _____ _____    ______ ____
ROOT
ATOM      1  N   UNL     1       0.232  -3.327  -1.436  0.00  0.00    -0.248 N 
ATOM      2  C   UNL     1       0.693  -3.244  -2.730  0.00  0.00    +0.357 C 
ATOM      3  O   UNL     1       1.131  -2.063  -3.217  0.00  0.00    -0.246 OA
ATOM      4  N   UNL     1       0.707  -4.304  -3.484  0.00  0.00    -0.072 NA
ATOM      5  H   UNL     1      -0.154  -4.155  -1.110  0.00  0.00    +0.158 HD
ENDROOT
BRANCH   1   9
ATOM      6  C   UNL     1      -0.904   0.811   1.162  0.00  0.00    +0.069 C 
ATOM      7  C   UNL     1      -0.164  -0.366   0.581  0.00  0.00    +0.080 A 
ATOM      8  C   UNL     1      -0.697  -1.319  -0.318  0.00  0.00    +0.114 A 
ATOM      9  C   UNL     1       0.319  -2.227  -0.598  0.00  0.00    +0.148 A 
ATOM     10  N   UNL     1       1.408  -1.835   0.101  0.00  0.00    -0.217 N 
ATOM     11  N   UNL     1       1.080  -0.678   0.817  0.00  0.00    -0.169 NA
BRANCH  10  12
ATOM     12  C   UNL     1       2.654  -2.475   0.105  0.00  0.00    +0.067 A 
ATOM     13  C   UNL     1       2.727  -3.856  -0.018  0.00  0.00    +0.028 A 
ATOM     14  C   UNL     1       3.957  -4.485  -0.014  0.00  0.00    +0.002 A 
ATOM     15  C   UNL     1       5.115  -3.740   0.112  0.00  0.00    +0.000 A 
ATOM     16  C   UNL     1       5.046  -2.364   0.234  0.00  0.00    +0.002 A 
ATOM     17  C   UNL     1       3.819  -1.729   0.225  0.00  0.00    +0.028 A 
ENDBRANCH  10  12
BRANCH   8  18
ATOM     18  C   UNL     1      -2.030  -1.344  -0.841  0.00  0.00    +0.104 C 
ATOM     19  N   UNL     1      -3.087  -1.364  -1.255  0.00  0.00    -0.191 NA
ENDBRANCH   8  18
ENDBRANCH   1   9
BRANCH   4  20
ATOM     20  S   UNL     1       1.262  -4.205  -5.041  0.00  0.00    +0.103 S 
ATOM     21  O   UNL     1       0.346  -3.379  -5.747  0.00  0.00    -0.146 OA
ATOM     22  O   UNL     1       2.649  -3.908  -4.960  0.00  0.00    -0.146 OA
BRANCH  20  23
ATOM     23  C   UNL     1       1.132  -5.816  -5.744  0.00  0.00    +0.113 A 
ATOM     24  C   UNL     1       2.186  -6.704  -5.636  0.00  0.00    +0.030 A 
ATOM     25  C   UNL     1       2.084  -7.967  -6.188  0.00  0.00    +0.022 A 
ATOM     26  C   UNL     1       0.928  -8.343  -6.847  0.00  0.00    +0.041 A 
ATOM     27  C   UNL     1      -0.127  -7.454  -6.954  0.00  0.00    +0.022 A 
ATOM     28  C   UNL     1      -0.026  -6.193  -6.398  0.00  0.00    +0.030 A 
ATOM     29 CL   UNL     1       0.800  -9.930  -7.540  0.00  0.00    -0.084 Cl
ENDBRANCH  20  23
ENDBRANCH   4  20
TORSDOF 5
