REMARK  Name = ZINC08546559
REMARK  5 active torsions:
REMARK  status: ('A' for Active; 'I' for Inactive)
REMARK    1  A    between atoms: C_1  and  C_2
REMARK    2  A    between atoms: C_2  and  C_20
REMARK    3  A    between atoms: N_5  and  C_9
REMARK    4  A    between atoms: C_9  and  C_10
REMARK    5  A    between atoms: C_12  and  C_15
REMARK                            x       y       z     vdW  Elec       q    Type
REMARK                         _______ _______ _______ _____ _____    ______ ____
ROOT
ATOM      1  C   UNL     1      -1.244   4.073  -1.222  0.00  0.00    +0.050 C 
ATOM      2  C   UNL     1      -0.727   3.357   0.027  0.00  0.00    +0.168 C 
ATOM      3  C   UNL     1       0.787   3.284   0.012  0.00  0.00    +0.254 C 
ATOM      4  O   UNL     1       1.565   4.213   0.010  0.00  0.00    -0.272 OA
ATOM      5  N   UNL     1       1.087   1.970   0.002  0.00  0.00    -0.215 N 
ATOM      6  C   UNL     1      -0.014   1.211   0.009  0.00  0.00    +0.310 C 
ATOM      7  O   UNL     1       0.002  -0.004   0.002  0.00  0.00    -0.252 OA
ATOM      8  N   UNL     1      -1.143   1.944   0.018  0.00  0.00    -0.279 N 
ATOM      9  H   UNL     1      -2.052   1.607   0.019  0.00  0.00    +0.152 HD
ENDROOT
BRANCH   2  10
ATOM     10  C   UNL     1      -1.212   4.049   1.275  0.00  0.00    +0.137 A 
ATOM     11  C   UNL     1      -2.380   3.816   1.900  0.00  0.00    +0.047 A 
ATOM     12  C   UNL     1      -2.426   4.680   3.018  0.00  0.00    +0.041 A 
ATOM     13  C   UNL     1      -1.283   5.389   3.010  0.00  0.00    +0.195 A 
ATOM     14  O   UNL     1      -0.549   4.999   1.954  0.00  0.00    -0.465 OA
ENDBRANCH   2  10
BRANCH   5  15
ATOM     15  C   UNL     1       2.453   1.438  -0.014  0.00  0.00    +0.216 C 
BRANCH  15  16
ATOM     16  C   UNL     1       2.906   1.264  -1.441  0.00  0.00    +0.246 A 
ATOM     17  N   UNL     1       3.523   2.156  -2.175  0.00  0.00    -0.190 NA
ATOM     18  C   UNL     1       3.730   1.561  -3.373  0.00  0.00    +0.209 A 
ATOM     19  N   UNL     1       3.230   0.352  -3.294  0.00  0.00    -0.055 NA
ATOM     20  O   UNL     1       2.760   0.168  -2.192  0.00  0.00    -0.336 OA
BRANCH  18  21
ATOM     21  C   UNL     1       4.394   2.161  -4.548  0.00  0.00    +0.060 A 
ATOM     22  C   UNL     1       4.631   1.611  -5.780  0.00  0.00    +0.019 A 
ATOM     23  C   UNL     1       5.274   2.370  -6.731  0.00  0.00    +0.008 A 
ATOM     24  C   UNL     1       5.654   3.638  -6.421  0.00  0.00    +0.046 A 
ATOM     25  S   UNL     1       5.090   3.795  -4.735  0.00  0.00    -0.093 S 
ENDBRANCH  18  21
ENDBRANCH  15  16
ENDBRANCH   5  15
TORSDOF 4
