REMARK  Name = ZINC67304992
REMARK  9 active torsions:
REMARK  status: ('A' for Active; 'I' for Inactive)
REMARK    1  A    between atoms: C_1  and  C_2
REMARK    2  A    between atoms: C_3  and  C_9
REMARK    3  A    between atoms: C_4  and  C_8
REMARK    4  A    between atoms: N_5  and  C_7
REMARK    5  A    between atoms: C_9  and  C_11
REMARK    6  A    between atoms: C_9  and  N_12
REMARK    7  A    between atoms: C_13  and  C_15
REMARK    8  A    between atoms: C_15  and  N_16
REMARK    9  A    between atoms: N_25  and  C_28
REMARK                            x       y       z     vdW  Elec       q    Type
REMARK                         _______ _______ _______ _____ _____    ______ ____
ROOT
ATOM      1  N   UNL     1       0.926   0.490  -2.856  0.00  0.00    -0.307 N 
ATOM      2  C   UNL     1       1.491   0.811  -4.037  0.00  0.00    +0.231 C 
ATOM      3  O   UNL     1       1.269   0.135  -5.019  0.00  0.00    -0.274 OA
ATOM      4  H   UNL     1       1.103   1.031  -2.071  0.00  0.00    +0.149 HD
ENDROOT
BRANCH   1   5
ATOM      5  C   UNL     1       0.044  -0.676  -2.759  0.00  0.00    +0.104 C 
ATOM      6  C   UNL     1      -1.377  -0.276  -3.163  0.00  0.00    +0.033 C 
BRANCH   5   9
ATOM      7  C   UNL     1      -0.205   1.099  -0.145  0.00  0.00    +0.068 C 
ATOM      8  C   UNL     1      -0.072  -0.402  -0.186  0.00  0.00    +0.065 A 
ATOM      9  C   UNL     1       0.038  -1.184  -1.340  0.00  0.00    +0.016 A 
ATOM     10  C   UNL     1       0.138  -2.478  -0.958  0.00  0.00    +0.041 A 
ATOM     11  N   UNL     1       0.092  -2.514   0.390  0.00  0.00    -0.271 N 
ATOM     12  N   UNL     1      -0.035  -1.197   0.852  0.00  0.00    -0.176 NA
ATOM     13  C   UNL     1       0.168  -3.716   1.224  0.00  0.00    +0.172 C 
ATOM     14  C   UNL     1       0.275  -3.667  -1.874  0.00  0.00    +0.065 C 
ENDBRANCH   5   9
ENDBRANCH   1   5
BRANCH   2  15
ATOM     15  C   UNL     1       2.398   2.010  -4.137  0.00  0.00    +0.213 C 
BRANCH  15  16
ATOM     16  N   UNL     1       2.880   2.144  -5.514  0.00  0.00    -0.215 N 
ATOM     17  C   UNL     1       4.005   1.565  -5.983  0.00  0.00    +0.247 C 
ATOM     18  O   UNL     1       4.780   0.863  -5.369  0.00  0.00    -0.273 OA
ATOM     19  C   UNL     1       4.096   1.977  -7.434  0.00  0.00    +0.115 C 
ATOM     20  C   UNL     1       4.049   0.750  -8.339  0.00  0.00    +0.035 C 
ATOM     21  C   UNL     1       4.112   1.191  -9.804  0.00  0.00    +0.003 C 
ATOM     22  C   UNL     1       5.404   1.974 -10.044  0.00  0.00    +0.000 C 
ATOM     23  C   UNL     1       5.426   3.213  -9.147  0.00  0.00    +0.003 C 
ATOM     24  C   UNL     1       5.368   2.781  -7.680  0.00  0.00    +0.035 C 
ATOM     25  N   UNL     1       2.909   2.816  -7.642  0.00  0.00    -0.274 N 
ATOM     26  C   UNL     1       2.257   2.851  -6.464  0.00  0.00    +0.312 C 
ATOM     27  O   UNL     1       1.220   3.459  -6.284  0.00  0.00    -0.252 OA
ATOM     28  C   UNL     1       2.510   3.478  -8.886  0.00  0.00    +0.134 C 
ENDBRANCH  15  16
ENDBRANCH   2  15
TORSDOF 4
