REMARK  Name = ZINC66602047
REMARK  4 active torsions:
REMARK  status: ('A' for Active; 'I' for Inactive)
REMARK    1  A    between atoms: C_3  and  C_6
REMARK    2  A    between atoms: C_9  and  C_11
REMARK    3  A    between atoms: N_13  and  N_14
REMARK    4  A    between atoms: C_15  and  C_17
REMARK                            x       y       z     vdW  Elec       q    Type
REMARK                         _______ _______ _______ _____ _____    ______ ____
ROOT
ATOM      1  C   UNL     1       7.840   2.311  -0.067  0.00  0.00    +0.268 C 
ATOM      2  O   UNL     1       8.425   3.378  -0.062  0.00  0.00    -0.268 OA
ATOM      3  N   UNL     1       8.539   1.159  -0.087  0.00  0.00    -0.230 N 
ATOM      4  H   UNL     1       8.072   0.308  -0.090  0.00  0.00    +0.173 HD
ENDROOT
BRANCH   1   8
ATOM      5  C   UNL     1       3.738   1.809  -0.024  0.00  0.00    +0.115 A 
ATOM      6  N   UNL     1       4.189   3.062  -0.017  0.00  0.00    -0.246 NA
ATOM      7  C   UNL     1       5.465   3.328  -0.029  0.00  0.00    +0.132 A 
ATOM      8  C   UNL     1       6.376   2.279  -0.050  0.00  0.00    +0.095 A 
ATOM      9  S   UNL     1       5.264   0.878  -0.044  0.00  0.00    -0.062 S 
BRANCH   5  12
ATOM     10  C   UNL     1      -0.016   1.355   0.009  0.00  0.00    +0.008 A 
ATOM     11  C   UNL     1       1.173   2.044   0.002  0.00  0.00    +0.018 A 
ATOM     12  C   UNL     1       2.353   1.321  -0.013  0.00  0.00    +0.044 A 
ATOM     13  S   UNL     1       1.751  -0.360  -0.017  0.00  0.00    -0.095 S 
ATOM     14  C   UNL     1       0.002  -0.004   0.002  0.00  0.00    +0.046 A 
ENDBRANCH   5  12
ENDBRANCH   1   8
BRANCH   3  15
ATOM     15  N   UNL     1       9.939   1.190  -0.103  0.00  0.00    -0.229 N 
ATOM     16  C   UNL     1      10.639   0.038  -0.123  0.00  0.00    +0.276 C 
ATOM     17  O   UNL     1      10.053  -1.029  -0.128  0.00  0.00    -0.267 OA
ATOM     18  H   UNL     1      10.406   2.040  -0.100  0.00  0.00    +0.173 HD
BRANCH  16  19
ATOM     19  C   UNL     1      12.105   0.070  -0.140  0.00  0.00    +0.104 A 
ATOM     20  C   UNL     1      12.944  -1.024  -0.167  0.00  0.00    +0.047 A 
ATOM     21  C   UNL     1      14.255  -0.537  -0.176  0.00  0.00    +0.036 A 
ATOM     22  C   UNL     1      14.195   0.817  -0.154  0.00  0.00    +0.098 A 
ATOM     23  N   UNL     1      12.894   1.198  -0.137  0.00  0.00    -0.356 N 
ATOM     24  H   UNL     1      12.572   2.113  -0.124  0.00  0.00    +0.166 HD
ATOM     25 BR   UNL     1      15.831  -1.581  -0.211  0.00  0.00    -0.049 Br
ENDBRANCH  16  19
ENDBRANCH   3  15
TORSDOF 4
