REMARK  Name = ZINC32092640
REMARK  4 active torsions:
REMARK  status: ('A' for Active; 'I' for Inactive)
REMARK    1  A    between atoms: C_5  and  N_7
REMARK    2  A    between atoms: C_8  and  C_10
REMARK    3  A    between atoms: C_13  and  O_27
REMARK    4  A    between atoms: C_18  and  C_20
REMARK                            x       y       z     vdW  Elec       q    Type
REMARK                         _______ _______ _______ _____ _____    ______ ____
ROOT
ATOM      1  C   UNL     1       0.118  -4.276   0.191  0.00  0.00    +0.204 C 
ATOM      2  C   UNL     1       0.769  -4.868  -1.063  0.00  0.00    +0.131 C 
ATOM      3  C   UNL     1      -0.177  -4.857  -2.229  0.00  0.00    +0.191 C 
ATOM      4  N   UNL     1      -1.464  -5.000  -2.093  0.00  0.00    -0.198 NA
ATOM      5  C   UNL     1      -1.974  -5.135  -0.833  0.00  0.00    +0.156 A 
ATOM      6  N   UNL     1      -1.249  -4.796   0.284  0.00  0.00    -0.234 N 
ATOM      7  N   UNL     1      -2.037  -5.039   1.403  0.00  0.00    -0.169 NA
ATOM      8  C   UNL     1      -3.200  -5.514   0.995  0.00  0.00    +0.095 A 
ATOM      9  C   UNL     1      -3.182  -5.584  -0.415  0.00  0.00    +0.078 A 
ENDROOT
BRANCH   8  10
ATOM     10  C   UNL     1      -4.332  -5.906   1.871  0.00  0.00    +0.002 A 
ATOM     11  C   UNL     1      -5.508  -6.401   1.312  0.00  0.00    +0.013 A 
ATOM     12  C   UNL     1      -6.558  -6.765   2.130  0.00  0.00    +0.039 A 
ATOM     13  C   UNL     1      -6.444  -6.638   3.504  0.00  0.00    +0.123 A 
ATOM     14  C   UNL     1      -5.277  -6.146   4.064  0.00  0.00    +0.039 A 
ATOM     15  C   UNL     1      -4.220  -5.785   3.254  0.00  0.00    +0.013 A 
ATOM     16  F   UNL     1      -7.475  -6.996   4.301  0.00  0.00    -0.205 F 
ENDBRANCH   8  10
BRANCH   1  18
ATOM     17  N   UNL     1       1.237  -2.080  -0.022  0.00  0.00    -0.283 N 
ATOM     18  C   UNL     1       0.086  -2.773   0.087  0.00  0.00    +0.242 C 
ATOM     19  O   UNL     1      -0.976  -2.187   0.102  0.00  0.00    -0.273 OA
ATOM     20  H   UNL     1       2.081  -2.551  -0.100  0.00  0.00    +0.155 HD
BRANCH  17  25
ATOM     21  C   UNL     1       0.135   1.378  -0.617  0.00  0.00    +0.002 A 
ATOM     22  C   UNL     1       1.168   2.087  -0.031  0.00  0.00    +0.002 A 
ATOM     23  C   UNL     1       2.224   1.416   0.558  0.00  0.00    +0.022 A 
ATOM     24  C   UNL     1       2.250   0.034   0.563  0.00  0.00    +0.062 A 
ATOM     25  C   UNL     1       1.213  -0.681  -0.025  0.00  0.00    +0.052 A 
ATOM     26  C   UNL     1       0.155  -0.003  -0.615  0.00  0.00    +0.025 A 
ATOM     27 CL   UNL     1       3.577  -0.808   1.302  0.00  0.00    -0.082 Cl
ENDBRANCH  17  25
ENDBRANCH   1  18
BRANCH   3  28
ATOM     28  O   UNL     1       0.327  -4.692  -3.469  0.00  0.00    -0.495 OA
ATOM     29  H   UNL     1      -0.340  -4.696  -4.169  0.00  0.00    +0.293 HD
ENDBRANCH   3  28
TORSDOF 4
