REMARK  Name = ZINC13418398
REMARK  7 active torsions:
REMARK  status: ('A' for Active; 'I' for Inactive)
REMARK    1  A    between atoms: C_1  and  C_2
REMARK    2  A    between atoms: N_7  and  C_10
REMARK    3  A    between atoms: C_10  and  C_11
REMARK    4  A    between atoms: N_13  and  C_14
REMARK    5  A    between atoms: C_14  and  C_16
REMARK    6  A    between atoms: C_14  and  C_17
REMARK    7  A    between atoms: C_28  and  C_29
REMARK                            x       y       z     vdW  Elec       q    Type
REMARK                         _______ _______ _______ _____ _____    ______ ____
ROOT
ATOM      1  C   UNL     1       5.821   1.835   1.197  0.00  0.00    +0.233 C 
ATOM      2  O   UNL     1       5.897   3.040   1.309  0.00  0.00    -0.274 OA
ATOM      3  N   UNL     1       4.777   1.282   0.549  0.00  0.00    -0.307 N 
ATOM      4  H   UNL     1       4.717   0.318   0.460  0.00  0.00    +0.149 HD
ENDROOT
BRANCH   3   5
ATOM      5  C   UNL     1       3.733   2.137  -0.021  0.00  0.00    +0.101 C 
ATOM      6  C   UNL     1       4.136   2.560  -1.435  0.00  0.00    +0.033 C 
BRANCH   5   7
ATOM      7  C   UNL     1       2.434   1.375  -0.076  0.00  0.00    -0.020 A 
ATOM      8  C   UNL     1       2.440   0.018  -0.174  0.00  0.00    +0.006 A 
ATOM      9  C   UNL     1       1.249  -0.703  -0.225  0.00  0.00    +0.001 A 
ATOM     10  C   UNL     1       0.045  -0.071  -0.178  0.00  0.00    +0.008 A 
ATOM     11  C   UNL     1      -0.002   1.329  -0.077  0.00  0.00    -0.018 A 
ATOM     12  C   UNL     1       1.210   2.063  -0.025  0.00  0.00    -0.013 A 
ATOM     13  C   UNL     1       1.163   3.464   0.076  0.00  0.00    +0.009 A 
ATOM     14  C   UNL     1      -0.041   4.096   0.123  0.00  0.00    +0.001 A 
ATOM     15  C   UNL     1      -1.233   3.375   0.072  0.00  0.00    +0.001 A 
ATOM     16  C   UNL     1      -1.226   2.018  -0.031  0.00  0.00    +0.008 A 
ENDBRANCH   5   7
ENDBRANCH   3   5
BRANCH   1  17
ATOM     17  C   UNL     1       6.895   0.955   1.784  0.00  0.00    +0.222 C 
BRANCH  17  24
ATOM     18  C   UNL     1       7.820   3.059   6.674  0.00  0.00    +0.046 C 
ATOM     19  C   UNL     1       8.894   3.415   5.678  0.00  0.00    -0.015 A 
ATOM     20  C   UNL     1       8.811   2.953   4.364  0.00  0.00    +0.076 A 
ATOM     21  C   UNL     1       9.866   3.341   3.506  0.00  0.00    +0.116 A 
ATOM     22  N   UNL     1       9.906   2.969   2.233  0.00  0.00    -0.230 NA
ATOM     23  C   UNL     1       8.975   2.219   1.710  0.00  0.00    +0.203 A 
ATOM     24  N   UNL     1       7.911   1.789   2.431  0.00  0.00    -0.290 N 
ATOM     25  C   UNL     1       7.770   2.109   3.732  0.00  0.00    +0.263 A 
ATOM     26  O   UNL     1       6.813   1.714   4.373  0.00  0.00    -0.267 OA
ATOM     27  S   UNL     1      10.908   4.319   4.559  0.00  0.00    -0.062 S 
ATOM     28  C   UNL     1       9.950   4.192   6.060  0.00  0.00    +0.106 A 
BRANCH  28  29
ATOM     29  C   UNL     1      10.227   4.776   7.374  0.00  0.00    +0.393 C 
ATOM     30  O   UNL     1       9.459   4.587   8.297  0.00  0.00    -0.240 OA
ATOM     31  O   UNL     1      11.335   5.523   7.559  0.00  0.00    -0.240 OA
ENDBRANCH  28  29
ENDBRANCH  17  24
ENDBRANCH   1  17
TORSDOF 5
