REMARK  Name = ZINC54726373
REMARK  10 active torsions:
REMARK  status: ('A' for Active; 'I' for Inactive)
REMARK    1  A    between atoms: C_1  and  C_2
REMARK    2  A    between atoms: C_5  and  C_30
REMARK    3  A    between atoms: N_8  and  C_10
REMARK    4  A    between atoms: C_10  and  C_11
REMARK    5  A    between atoms: C_10  and  C_12
REMARK    6  A    between atoms: C_10  and  C_13
REMARK    7  A    between atoms: C_13  and  N_14
REMARK    8  A    between atoms: N_20  and  C_23
REMARK    9  A    between atoms: C_23  and  C_24
REMARK   10  A    between atoms: N_26  and  C_27
REMARK                            x       y       z     vdW  Elec       q    Type
REMARK                         _______ _______ _______ _____ _____    ______ ____
ROOT
ATOM      1  N   UNL     1       2.801  -0.371   2.305  0.00  0.00    -0.301 N 
ATOM      2  C   UNL     1       3.883   0.403   2.090  0.00  0.00    +0.302 C 
ATOM      3  O   UNL     1       4.974  -0.108   1.926  0.00  0.00    -0.253 OA
ATOM      4  N   UNL     1       3.755   1.745   2.057  0.00  0.00    -0.283 N 
ATOM      5  C   UNL     1       4.898   2.603   1.711  0.00  0.00    +0.124 C 
ATOM      6  C   UNL     1       4.463   3.571   0.605  0.00  0.00    +0.104 C 
ATOM      7  N   UNL     1       3.255   4.288   1.035  0.00  0.00    -0.291 NA
ATOM      8  C   UNL     1       2.130   3.365   1.235  0.00  0.00    +0.104 C 
ATOM      9  C   UNL     1       2.468   2.389   2.361  0.00  0.00    +0.124 C 
ATOM     10  H   UNL     1       1.945   0.037   2.509  0.00  0.00    +0.150 HD
ENDROOT
BRANCH   1  11
ATOM     11  C   UNL     1       2.918  -1.830   2.230  0.00  0.00    +0.093 C 
BRANCH  11  12
ATOM     12  C   UNL     1       1.536  -2.462   2.407  0.00  0.00    -0.055 C 
ATOM     13  C   UNL     1       1.669  -3.986   2.411  0.00  0.00    -0.008 C 
ATOM     14  C   UNL     1       0.627  -2.032   1.254  0.00  0.00    -0.008 C 
BRANCH  12  20
ATOM     15  C   UNL     1       2.214  -2.264   7.251  0.00  0.00    +0.005 C 
ATOM     16  C   UNL     1       1.284  -1.866   6.104  0.00  0.00    -0.031 C 
ATOM     17  C   UNL     1      -0.105  -2.466   6.340  0.00  0.00    +0.003 C 
ATOM     18  C   UNL     1      -1.006  -2.127   5.148  0.00  0.00    -0.031 C 
ATOM     19  C   UNL     1      -0.360  -2.648   3.863  0.00  0.00    -0.075 C 
ATOM     20  N   UNL     1       0.953  -2.018   3.681  0.00  0.00    +0.384 N 
ATOM     21  C   UNL     1       1.846  -2.396   4.783  0.00  0.00    -0.075 C 
ATOM     22  C   UNL     1      -2.373  -2.787   5.337  0.00  0.00    +0.005 C 
ATOM     23  H   UNL     1       0.845  -1.014   3.667  0.00  0.00    -0.081 HD
ENDBRANCH  12  20
ENDBRANCH  11  12
ENDBRANCH   1  11
BRANCH   7  24
ATOM     24  C   UNL     1       2.903   5.347   0.079  0.00  0.00    +0.180 C 
BRANCH  24  25
ATOM     25  C   UNL     1       1.819   6.213   0.665  0.00  0.00    +0.227 C 
ATOM     26  O   UNL     1       1.382   5.973   1.771  0.00  0.00    -0.274 OA
ATOM     27  N   UNL     1       1.335   7.256  -0.038  0.00  0.00    -0.311 N 
ATOM     28  H   UNL     1       1.684   7.448  -0.922  0.00  0.00    +0.149 HD
BRANCH  27  29
ATOM     29  C   UNL     1       0.280   8.098   0.532  0.00  0.00    +0.073 C 
ATOM     30  C   UNL     1      -0.878   8.498  -0.385  0.00  0.00    +0.024 C 
ATOM     31  C   UNL     1       0.171   9.536   0.020  0.00  0.00    +0.024 C 
ENDBRANCH  27  29
ENDBRANCH  24  25
ENDBRANCH   7  24
TORSDOF 6
