REMARK  Name = ZINC46720007
REMARK  4 active torsions:
REMARK  status: ('A' for Active; 'I' for Inactive)
REMARK    1  A    between atoms: C_8  and  N_15
REMARK    2  A    between atoms: C_9  and  N_12
REMARK    3  A    between atoms: N_15  and  C_16
REMARK    4  A    between atoms: C_16  and  C_17
REMARK                            x       y       z     vdW  Elec       q    Type
REMARK                         _______ _______ _______ _____ _____    ______ ____
ROOT
ATOM      1  C   UNL     1       0.257   1.583  -0.025  0.00  0.00    +0.005 A 
ATOM      2  C   UNL     1       1.531   2.170  -0.045  0.00  0.00    +0.018 A 
ATOM      3  C   UNL     1       2.636   1.392  -0.052  0.00  0.00    +0.096 A 
ATOM      4  N   UNL     1       2.533   0.033  -0.040  0.00  0.00    -0.266 N 
ATOM      5  C   UNL     1       1.305  -0.568  -0.020  0.00  0.00    +0.142 A 
ATOM      6  C   UNL     1       0.142   0.226  -0.013  0.00  0.00    +0.047 A 
ATOM      7  N   UNL     1       1.192  -1.893  -0.008  0.00  0.00    -0.212 NA
ATOM      8  C   UNL     1       2.267  -2.677  -0.015  0.00  0.00    +0.157 A 
ATOM      9  C   UNL     1       3.538  -2.108  -0.035  0.00  0.00    +0.230 A 
ATOM     10  C   UNL     1       3.653  -0.720  -0.048  0.00  0.00    +0.291 A 
ATOM     11  O   UNL     1       4.754  -0.190  -0.066  0.00  0.00    -0.265 OA
ENDROOT
BRANCH   9  12
ATOM     12  N   UNL     1       4.746  -2.964  -0.042  0.00  0.00    +0.065 N 
ATOM     13  O   UNL     1       4.636  -4.164  -0.133  0.00  0.00    -0.126 OA
ATOM     14  O   UNL     1       5.843  -2.462   0.043  0.00  0.00    -0.126 OA
ENDBRANCH   9  12
BRANCH   8  15
ATOM     15  N   UNL     1       2.123  -4.052  -0.001  0.00  0.00    -0.323 N 
ATOM     16  H   UNL     1       2.903  -4.622  -0.084  0.00  0.00    +0.148 HD
BRANCH  15  17
ATOM     17  C   UNL     1       0.792  -4.648   0.141  0.00  0.00    +0.141 C 
BRANCH  17  18
ATOM     18  C   UNL     1       0.910  -6.150   0.126  0.00  0.00    +0.006 A 
ATOM     19  C   UNL     1       0.639  -6.854  -1.032  0.00  0.00    +0.023 A 
ATOM     20  C   UNL     1       0.747  -8.233  -1.045  0.00  0.00    +0.018 A 
ATOM     21  C   UNL     1       1.127  -8.908   0.101  0.00  0.00    +0.018 A 
ATOM     22  C   UNL     1       1.398  -8.206   1.260  0.00  0.00    +0.040 A 
ATOM     23  C   UNL     1       1.296  -6.825   1.272  0.00  0.00    +0.128 A 
ATOM     24  F   UNL     1       1.566  -6.137   2.403  0.00  0.00    -0.205 F 
ATOM     25 BR   UNL     1       0.375  -9.195  -2.630  0.00  0.00    -0.050 Br
ENDBRANCH  17  18
ENDBRANCH  15  17
ENDBRANCH   8  15
TORSDOF 4
