REMARK  Name = ZINC39462100
REMARK  8 active torsions:
REMARK  status: ('A' for Active; 'I' for Inactive)
REMARK    1  A    between atoms: C_1  and  C_2
REMARK    2  A    between atoms: C_5  and  C_29
REMARK    3  A    between atoms: C_12  and  N_15
REMARK    4  A    between atoms: C_16  and  C_18
REMARK    5  A    between atoms: C_18  and  N_19
REMARK    6  A    between atoms: N_19  and  C_20
REMARK    7  A    between atoms: N_19  and  C_21
REMARK    8  A    between atoms: C_21  and  C_22
REMARK                            x       y       z     vdW  Elec       q    Type
REMARK                         _______ _______ _______ _____ _____    ______ ____
ROOT
ATOM      1  N   UNL     1       0.427  -2.783   1.088  0.00  0.00    -0.288 N 
ATOM      2  C   UNL     1       0.626  -3.556   2.175  0.00  0.00    +0.199 C 
ATOM      3  O   UNL     1       1.464  -3.246   2.994  0.00  0.00    -0.278 OA
ATOM      4  H   UNL     1      -0.243  -3.031   0.433  0.00  0.00    +0.151 HD
ENDROOT
BRANCH   1  15
ATOM      5  C   UNL     1      -0.334   1.569   0.174  0.00  0.00    +0.043 C 
ATOM      6  C   UNL     1      -0.205   0.045   0.151  0.00  0.00    +0.150 C 
ATOM      7  C   UNL     1       0.646  -0.387  -1.016  0.00  0.00    +0.016 A 
ATOM      8  C   UNL     1       0.712  -0.009  -2.362  0.00  0.00    +0.065 A 
ATOM      9  N   UNL     1       1.576  -0.577  -3.159  0.00  0.00    -0.176 NA
ATOM     10  N   UNL     1       2.390  -1.487  -2.763  0.00  0.00    -0.243 N 
ATOM     11  C   UNL     1       2.405  -1.919  -1.485  0.00  0.00    +0.272 A 
ATOM     12  O   UNL     1       3.188  -2.785  -1.131  0.00  0.00    -0.266 OA
ATOM     13  C   UNL     1       1.502  -1.354  -0.567  0.00  0.00    +0.072 A 
ATOM     14  H   UNL     1       3.012  -1.875  -3.399  0.00  0.00    +0.192 HD
ATOM     15  C   UNL     1       1.224  -1.569   0.898  0.00  0.00    +0.243 C 
ATOM     16  O   UNL     1       0.480  -0.413   1.333  0.00  0.00    -0.347 OA
ATOM     17  C   UNL     1      -0.217   1.054  -2.891  0.00  0.00    +0.068 C 
ENDBRANCH   1  15
BRANCH   2  18
ATOM     18  C   UNL     1      -0.194  -4.805   2.370  0.00  0.00    +0.019 C 
BRANCH  18  19
ATOM     19  N   UNL     1       0.210  -5.465   3.619  0.00  0.00    +0.386 N 
ATOM     20  C   UNL     1      -0.121  -4.600   4.760  0.00  0.00    -0.095 C 
ATOM     21  H   UNL     1       1.204  -5.635   3.603  0.00  0.00    -0.081 HD
BRANCH  19  22
ATOM     22  C   UNL     1      -0.503  -6.743   3.751  0.00  0.00    -0.042 C 
BRANCH  22  23
ATOM     23  C   UNL     1       0.010  -7.482   4.959  0.00  0.00    -0.050 A 
ATOM     24  C   UNL     1      -0.747  -7.527   6.115  0.00  0.00    +0.003 A 
ATOM     25  C   UNL     1      -0.277  -8.205   7.224  0.00  0.00    +0.000 A 
ATOM     26  C   UNL     1       0.951  -8.840   7.177  0.00  0.00    +0.001 A 
ATOM     27  C   UNL     1       1.708  -8.796   6.022  0.00  0.00    +0.015 A 
ATOM     28  C   UNL     1       1.236  -8.121   4.911  0.00  0.00    +0.019 A 
ATOM     29 BR   UNL     1       2.268  -8.067   3.328  0.00  0.00    -0.050 Br
ENDBRANCH  22  23
ENDBRANCH  19  22
ENDBRANCH  18  19
ENDBRANCH   2  18
TORSDOF 5
