REMARK  Name = ZINC14459787
REMARK  8 active torsions:
REMARK  status: ('A' for Active; 'I' for Inactive)
REMARK    1  A    between atoms: C_1  and  O_2
REMARK    2  A    between atoms: O_2  and  C_3
REMARK    3  A    between atoms: C_7  and  C_10
REMARK    4  A    between atoms: C_8  and  O_9
REMARK    5  A    between atoms: C_21  and  S_26
REMARK    6  A    between atoms: S_26  and  N_29
REMARK    7  A    between atoms: N_29  and  C_30
REMARK    8  A    between atoms: C_30  and  C_31
REMARK                            x       y       z     vdW  Elec       q    Type
REMARK                         _______ _______ _______ _____ _____    ______ ____
ROOT
ATOM      1  C   UNL     1      -2.620   3.995   0.367  0.00  0.00    +0.109 C 
ATOM      2  C   UNL     1      -2.979   4.023   1.855  0.00  0.00    +0.029 C 
ATOM      3  C   UNL     1      -3.371   2.572   2.264  0.00  0.00    +0.033 C 
ATOM      4  C   UNL     1      -4.819   2.464   1.827  0.00  0.00    -0.030 C 
ATOM      5  C   UNL     1      -5.355   3.655   1.714  0.00  0.00    -0.023 C 
ATOM      6  C   UNL     1      -4.339   4.719   2.055  0.00  0.00    +0.049 C 
ATOM      7  C   UNL     1      -4.507   5.930   1.193  0.00  0.00    -0.018 A 
ATOM      8  C   UNL     1      -5.565   6.791   1.451  0.00  0.00    +0.034 A 
ATOM      9  C   UNL     1      -5.754   7.920   0.682  0.00  0.00    +0.106 A 
ATOM     10  C   UNL     1      -4.890   8.209  -0.359  0.00  0.00    +0.030 A 
ATOM     11  C   UNL     1      -3.834   7.360  -0.626  0.00  0.00    +0.025 A 
ATOM     12  C   UNL     1      -3.643   6.223   0.148  0.00  0.00    +0.031 A 
ATOM     13  N   UNL     1      -2.570   5.372  -0.136  0.00  0.00    -0.336 N 
ATOM     14  H   UNL     1      -1.811   5.685  -0.652  0.00  0.00    +0.147 HD
ENDROOT
BRANCH   1  19
ATOM     15  C   UNL     1       1.121   3.419   0.362  0.00  0.00    +0.162 A 
ATOM     16  C   UNL     1       1.197   2.135  -0.153  0.00  0.00    +0.049 A 
ATOM     17  C   UNL     1       0.042   1.459  -0.497  0.00  0.00    +0.004 A 
ATOM     18  C   UNL     1      -1.191   2.061  -0.329  0.00  0.00    +0.009 A 
ATOM     19  C   UNL     1      -1.274   3.342   0.185  0.00  0.00    +0.018 A 
ATOM     20  C   UNL     1      -0.120   4.023   0.537  0.00  0.00    +0.163 A 
BRANCH  15  22
ATOM     21  C   UNL     1       3.496   3.401   0.499  0.00  0.00    +0.277 C 
ATOM     22  O   UNL     1       2.257   4.086   0.701  0.00  0.00    -0.491 OA
ENDBRANCH  15  22
BRANCH  20  23
ATOM     23  O   UNL     1      -0.200   5.281   1.048  0.00  0.00    -0.503 OA
ATOM     24  H   UNL     1      -0.120   5.980   0.385  0.00  0.00    +0.292 HD
ENDBRANCH  20  23
ENDBRANCH   1  19
BRANCH   9  25
ATOM     25  S   UNL     1      -7.103   9.000   1.026  0.00  0.00    +0.059 S 
ATOM     26  O   UNL     1      -7.383   9.699  -0.180  0.00  0.00    -0.153 OA
ATOM     27  O   UNL     1      -8.083   8.223   1.701  0.00  0.00    -0.153 OA
BRANCH  25  28
ATOM     28  N   UNL     1      -6.563  10.128   2.112  0.00  0.00    -0.186 NA
ATOM     29  H   UNL     1      -6.940  10.160   3.005  0.00  0.00    +0.148 HD
BRANCH  28  30
ATOM     30  C   UNL     1      -5.517  11.077   1.723  0.00  0.00    +0.141 C 
BRANCH  30  31
ATOM     31  C   UNL     1      -5.465  12.204   2.723  0.00  0.00    -0.032 A 
ATOM     32  C   UNL     1      -6.233  13.336   2.529  0.00  0.00    +0.005 A 
ATOM     33  C   UNL     1      -6.188  14.368   3.447  0.00  0.00    +0.000 A 
ATOM     34  C   UNL     1      -5.367  14.271   4.556  0.00  0.00    +0.000 A 
ATOM     35  C   UNL     1      -4.595  13.141   4.747  0.00  0.00    +0.000 A 
ATOM     36  C   UNL     1      -4.643  12.107   3.830  0.00  0.00    +0.005 A 
ENDBRANCH  30  31
ENDBRANCH  28  30
ENDBRANCH  25  28
ENDBRANCH   9  25
TORSDOF 7
