REMARK  Name = ZINC39663845
REMARK  13 active torsions:
REMARK  status: ('A' for Active; 'I' for Inactive)
REMARK    1  A    between atoms: C_1  and  N_2
REMARK    2  A    between atoms: N_2  and  C_3
REMARK    3  A    between atoms: N_2  and  C_4
REMARK    4  A    between atoms: C_4  and  C_6
REMARK    5  A    between atoms: C_4  and  C_27
REMARK    6  A    between atoms: C_6  and  N_7
REMARK    7  A    between atoms: C_8  and  C_10
REMARK    8  A    between atoms: C_21  and  C_23
REMARK    9  A    between atoms: C_23  and  C_24
REMARK   10  A    between atoms: C_24  and  S_25
REMARK   11  A    between atoms: S_25  and  C_26
REMARK   12  A    between atoms: C_30  and  O_33
REMARK   13  A    between atoms: O_33  and  C_34
REMARK                            x       y       z     vdW  Elec       q    Type
REMARK                         _______ _______ _______ _____ _____    ______ ____
ROOT
ATOM      1  N   UNL     1       2.976   1.719  -2.516  0.00  0.00    -0.316 N 
ATOM      2  C   UNL     1       3.026   2.373  -1.339  0.00  0.00    +0.218 C 
ATOM      3  O   UNL     1       3.231   1.760  -0.312  0.00  0.00    -0.275 OA
ATOM      4  H   UNL     1       2.812   2.209  -3.337  0.00  0.00    +0.149 HD
ENDROOT
BRANCH   2   5
ATOM      5  C   UNL     1       2.827   3.866  -1.297  0.00  0.00    +0.100 C 
ATOM      6  C   UNL     1       2.276   4.298   0.081  0.00  0.00    +0.121 C 
ATOM      7  N   UNL     1       3.476   4.687   0.858  0.00  0.00    -0.300 N 
ATOM      8  C   UNL     1       4.337   5.393  -0.121  0.00  0.00    +0.115 C 
ATOM      9  C   UNL     1       4.178   4.590  -1.427  0.00  0.00    -0.004 C 
ATOM     10  C   UNL     1       4.159   5.532  -2.627  0.00  0.00    -0.010 C 
ATOM     11  C   UNL     1       5.531   6.196  -2.770  0.00  0.00    -0.082 C 
ATOM     12  N   UNL     1       6.560   5.165  -2.949  0.00  0.00    +0.379 N 
ATOM     13  C   UNL     1       6.635   4.320  -1.750  0.00  0.00    -0.082 C 
ATOM     14  C   UNL     1       5.309   3.576  -1.564  0.00  0.00    -0.010 C 
ATOM     15  C   UNL     1       3.728   4.452   2.161  0.00  0.00    +0.216 C 
ATOM     16  O   UNL     1       4.766   4.837   2.657  0.00  0.00    -0.276 OA
ATOM     17  H   UNL     1       6.327   4.593  -3.747  0.00  0.00    -0.086 HD
ATOM     18  H   UNL     1       7.454   5.606  -3.103  0.00  0.00    -0.086 HD
BRANCH  15  19
ATOM     19  C   UNL     1       2.721   3.710   3.001  0.00  0.00    +0.106 C 
BRANCH  19  20
ATOM     20  C   UNL     1       3.248   3.578   4.432  0.00  0.00    +0.078 C 
BRANCH  20  21
ATOM     21  S   UNL     1       2.036   2.685   5.443  0.00  0.00    -0.164 S 
ATOM     22  C   UNL     1       2.802   2.615   7.086  0.00  0.00    +0.084 C 
ENDBRANCH  20  21
ENDBRANCH  19  20
ENDBRANCH  15  19
ENDBRANCH   2   5
BRANCH   1  23
ATOM     23  C   UNL     1       3.169   0.267  -2.556  0.00  0.00    +0.093 C 
BRANCH  23  24
ATOM     24  C   UNL     1       2.966  -0.235  -3.987  0.00  0.00    -0.021 C 
BRANCH  24  25
ATOM     25  C   UNL     1       4.029   0.351  -4.881  0.00  0.00    -0.059 A 
ATOM     26  C   UNL     1       5.294  -0.208  -4.906  0.00  0.00    +0.005 A 
ATOM     27  C   UNL     1       6.270   0.327  -5.724  0.00  0.00    +0.046 A 
ATOM     28  C   UNL     1       5.980   1.425  -6.521  0.00  0.00    +0.120 A 
ATOM     29  C   UNL     1       4.711   1.984  -6.494  0.00  0.00    +0.046 A 
ATOM     30  C   UNL     1       3.736   1.442  -5.678  0.00  0.00    +0.005 A 
BRANCH  28  31
ATOM     31  O   UNL     1       6.939   1.954  -7.326  0.00  0.00    -0.495 OA
ATOM     32  C   UNL     1       6.570   3.084  -8.118  0.00  0.00    +0.277 C 
ENDBRANCH  28  31
ENDBRANCH  24  25
BRANCH  24  34
ATOM     33  C   UNL     1       2.043  -2.271  -3.116  0.00  0.00    -0.096 C 
ATOM     34  N   UNL     1       3.060  -1.701  -4.010  0.00  0.00    +0.382 N 
ATOM     35  C   UNL     1       2.836  -2.185  -5.378  0.00  0.00    -0.096 C 
ATOM     36  H   UNL     1       3.978  -1.984  -3.699  0.00  0.00    -0.082 HD
ENDBRANCH  24  34
ENDBRANCH  23  24
ENDBRANCH   1  23
TORSDOF 9
