REMARK  Name = ZINC06674675
REMARK  1 active torsions:
REMARK  status: ('A' for Active; 'I' for Inactive)
REMARK    1  A    between atoms: C_20  and  C_24
REMARK                            x       y       z     vdW  Elec       q    Type
REMARK                         _______ _______ _______ _____ _____    ______ ____
ROOT
ATOM      1  C   UNL     1       0.617   4.050   0.008  0.00  0.00    +0.001 A 
ATOM      2  C   UNL     1      -0.703   3.629  -0.002  0.00  0.00    +0.002 A 
ATOM      3  C   UNL     1      -1.052   2.290  -0.015  0.00  0.00    +0.026 A 
ATOM      4  C   UNL     1      -0.009   1.367  -0.018  0.00  0.00    +0.047 A 
ATOM      5  C   UNL     1       1.340   1.802  -0.031  0.00  0.00    +0.003 A 
ATOM      6  C   UNL     1       1.665   3.163  -0.010  0.00  0.00    +0.010 A 
ATOM      7  C   UNL     1       2.145   0.601  -0.070  0.00  0.00    -0.022 A 
ATOM      8  C   UNL     1       1.294  -0.457  -0.060  0.00  0.00    +0.011 A 
ATOM      9  N   UNL     1       0.007  -0.001  -0.018  0.00  0.00    -0.359 N 
ATOM     10  H   UNL     1      -0.794  -0.544   0.008  0.00  0.00    +0.166 HD
ATOM     11  C   UNL     1       1.797  -1.879  -0.097  0.00  0.00    +0.015 C 
ATOM     12  C   UNL     1       0.959  -2.811   0.722  0.00  0.00    -0.034 A 
ATOM     13  C   UNL     1      -0.417  -2.822   0.584  0.00  0.00    +0.004 A 
ATOM     14  C   UNL     1      -1.197  -3.639   1.381  0.00  0.00    +0.000 A 
ATOM     15  C   UNL     1      -0.608  -4.477   2.310  0.00  0.00    +0.002 A 
ATOM     16  C   UNL     1       0.768  -4.531   2.404  0.00  0.00    +0.023 A 
ATOM     17  C   UNL     1       1.550  -3.716   1.598  0.00  0.00    +0.028 A 
ATOM     18  N   UNL     1       2.945  -3.800   1.673  0.00  0.00    -0.350 N 
ATOM     19  C   UNL     1       3.723  -3.204   0.564  0.00  0.00    +0.085 C 
ATOM     20  C   UNL     1       3.995  -0.977  -0.486  0.00  0.00    -0.069 C 
ATOM     21  C   UNL     1       3.647   0.478  -0.119  0.00  0.00    +0.019 C 
ATOM     22  H   UNL     1       3.389  -4.226   2.416  0.00  0.00    +0.145 HD
ATOM     23  N   UNL     1       3.171  -1.821   0.416  0.00  0.00    +0.405 N 
ATOM     24  H   UNL     1       3.158  -1.382   1.344  0.00  0.00    -0.077 HD
ENDROOT
BRANCH  19  25
ATOM     25  C   UNL     1       5.176  -3.192   0.962  0.00  0.00    +0.108 A 
ATOM     26  C   UNL     1       6.171  -3.840   0.330  0.00  0.00    +0.044 A 
ATOM     27  C   UNL     1       7.362  -3.551   1.034  0.00  0.00    +0.041 A 
ATOM     28  C   UNL     1       7.023  -2.749   2.060  0.00  0.00    +0.195 A 
ATOM     29  O   UNL     1       5.698  -2.535   2.011  0.00  0.00    -0.468 OA
ENDBRANCH  19  25
TORSDOF 1
