REMARK  Name = ZINC37868156
REMARK  5 active torsions:
REMARK  status: ('A' for Active; 'I' for Inactive)
REMARK    1  A    between atoms: C_1  and  C_2
REMARK    2  A    between atoms: C_3  and  C_10
REMARK    3  A    between atoms: C_12  and  C_28
REMARK    4  A    between atoms: C_13  and  C_15
REMARK    5  A    between atoms: C_15  and  C_17
REMARK                            x       y       z     vdW  Elec       q    Type
REMARK                         _______ _______ _______ _____ _____    ______ ____
ROOT
ATOM      1  C   UNL     1      -0.729  -0.389  -2.572  0.00  0.00    +0.128 A 
ATOM      2  N   UNL     1      -0.767   0.852  -3.063  0.00  0.00    -0.241 NA
ATOM      3  C   UNL     1      -0.559   1.091  -4.326  0.00  0.00    +0.063 A 
ATOM      4  C   UNL     1      -0.291   0.027  -5.184  0.00  0.00    +0.083 A 
ATOM      5  S   UNL     1      -0.354  -1.344  -4.036  0.00  0.00    -0.062 S 
ENDROOT
BRANCH   1   8
ATOM      6  C   UNL     1      -1.383   1.441  -0.115  0.00  0.00    +0.068 C 
ATOM      7  C   UNL     1      -1.223  -0.057  -0.106  0.00  0.00    +0.067 A 
ATOM      8  C   UNL     1      -0.935  -0.846  -1.197  0.00  0.00    +0.102 A 
ATOM      9  N   UNL     1      -0.876  -2.172  -0.741  0.00  0.00    -0.291 N 
ATOM     10  C   UNL     1      -0.644  -3.425  -1.259  0.00  0.00    +0.101 A 
ATOM     11  C   UNL     1      -0.674  -4.504  -0.476  0.00  0.00    +0.067 A 
ATOM     12  S   UNL     1      -1.047  -3.790   1.118  0.00  0.00    -0.058 S 
ATOM     13  C   UNL     1      -1.134  -2.091   0.600  0.00  0.00    +0.178 A 
ATOM     14  N   UNL     1      -1.330  -0.849   0.959  0.00  0.00    -0.226 NA
ENDBRANCH   1   8
BRANCH   3  15
ATOM     15  C   UNL     1      -0.608   2.502  -4.853  0.00  0.00    +0.039 C 
ATOM     16  C   UNL     1      -0.706   3.636  -3.830  0.00  0.00    +0.010 C 
ATOM     17  C   UNL     1      -1.920   3.273  -4.688  0.00  0.00    +0.010 C 
ENDBRANCH   3  15
BRANCH   4  18
ATOM     18  C   UNL     1      -0.035   0.030  -6.578  0.00  0.00    +0.202 C 
ATOM     19  O   UNL     1       0.087   1.086  -7.172  0.00  0.00    -0.286 OA
BRANCH  18  20
ATOM     20  C   UNL     1       0.084  -1.248  -7.309  0.00  0.00    +0.025 A 
ATOM     21  C   UNL     1       0.781  -1.299  -8.519  0.00  0.00    +0.015 A 
ATOM     22  C   UNL     1       0.893  -2.491  -9.203  0.00  0.00    +0.048 A 
ATOM     23  C   UNL     1       0.313  -3.642  -8.692  0.00  0.00    +0.142 A 
ATOM     24  C   UNL     1      -0.386  -3.598  -7.483  0.00  0.00    +0.076 A 
ATOM     25  C   UNL     1      -0.497  -2.408  -6.791  0.00  0.00    +0.038 A 
ATOM     26  N   UNL     1      -0.966  -4.773  -6.984  0.00  0.00    -0.280 N 
ATOM     27  C   UNL     1      -0.580  -5.962  -7.495  0.00  0.00    +0.255 C 
ATOM     28  O   UNL     1      -1.089  -6.989  -7.099  0.00  0.00    -0.272 OA
ATOM     29  C   UNL     1       0.486  -6.007  -8.560  0.00  0.00    +0.325 C 
ATOM     30  O   UNL     1       0.419  -4.822  -9.358  0.00  0.00    -0.481 OA
ATOM     31  H   UNL     1      -1.634  -4.732  -6.282  0.00  0.00    +0.155 HD
ENDBRANCH  18  20
ENDBRANCH   4  18
TORSDOF 4
