REMARK  Name = ZINC06014954
REMARK  11 active torsions:
REMARK  status: ('A' for Active; 'I' for Inactive)
REMARK    1  A    between atoms: C_1  and  C_2
REMARK    2  A    between atoms: C_2  and  C_3
REMARK    3  A    between atoms: C_2  and  C_4
REMARK    4  A    between atoms: C_2  and  N_5
REMARK    5  A    between atoms: C_6  and  C_10
REMARK    6  A    between atoms: C_10  and  C_12
REMARK    7  A    between atoms: C_10  and  N_68
REMARK    8  A    between atoms: C_27  and  C_28
REMARK    9  A    between atoms: C_27  and  N_68
REMARK   10  A    between atoms: C_34  and  C_35
REMARK   11  A    between atoms: C_34  and  N_68
REMARK                            x       y       z     vdW  Elec       q    Type
REMARK                         _______ _______ _______ _____ _____    ______ ____
ROOT
ATOM      1  C   UNL     1       3.168  -2.167  -2.201  0.00  0.00    +0.040 C 
ENDROOT
BRANCH   1   2
ATOM      2  C   UNL     1       1.768  -1.891  -2.687  0.00  0.00    +0.011 A 
ATOM      3  C   UNL     1       1.479  -1.996  -4.009  0.00  0.00    +0.017 A 
ATOM      4  C   UNL     1       0.111  -1.722  -4.449  0.00  0.00    +0.002 A 
ATOM      5  C   UNL     1      -0.245  -1.815  -5.800  0.00  0.00    +0.059 A 
ATOM      6  C   UNL     1      -1.541  -1.552  -6.184  0.00  0.00    +0.167 A 
ATOM      7  C   UNL     1      -2.501  -1.192  -5.229  0.00  0.00    +0.168 A 
ATOM      8  C   UNL     1      -2.158  -1.096  -3.893  0.00  0.00    +0.075 A 
ATOM      9  C   UNL     1      -0.855  -1.359  -3.490  0.00  0.00    +0.053 A 
ATOM     10  N   UNL     1      -0.495  -1.271  -2.160  0.00  0.00    -0.322 N 
ATOM     11  H   UNL     1      -1.180  -1.009  -1.481  0.00  0.00    +0.169 HD
ATOM     12  C   UNL     1       0.764  -1.531  -1.766  0.00  0.00    +0.251 A 
ATOM     13  O   UNL     1       1.045  -1.448  -0.582  0.00  0.00    -0.268 OA
ATOM     14  O   UNL     1      -3.690  -0.989  -5.867  0.00  0.00    -0.453 OA
ATOM     15  C   UNL     1      -3.553  -1.624  -7.151  0.00  0.00    +0.466 C 
ATOM     16  O   UNL     1      -2.138  -1.572  -7.413  0.00  0.00    -0.453 OA
ENDBRANCH   1   2
BRANCH   1  18
ATOM     17  N   UNL     1       3.385  -4.603  -1.475  0.00  0.00    -0.225 N 
ATOM     18  C   UNL     1       3.142  -3.305  -1.213  0.00  0.00    +0.143 A 
ATOM     19  N   UNL     1       2.882  -3.223   0.069  0.00  0.00    -0.115 NA
ATOM     20  N   UNL     1       2.955  -4.409   0.567  0.00  0.00    -0.023 NA
ATOM     21  N   UNL     1       3.261  -5.245  -0.363  0.00  0.00    -0.043 NA
BRANCH  17  23
ATOM     22  C   UNL     1       5.080  -4.633  -3.239  0.00  0.00    +0.036 C 
ATOM     23  C   UNL     1       3.726  -5.178  -2.779  0.00  0.00    +0.059 C 
ATOM     24  C   UNL     1       3.804  -6.701  -2.659  0.00  0.00    +0.036 C 
ATOM     25  C   UNL     1       2.651  -4.801  -3.800  0.00  0.00    +0.036 C 
ENDBRANCH  17  23
ENDBRANCH   1  18
BRANCH   1  26
ATOM     26  N   UNL     1       3.694  -0.964  -1.523  0.00  0.00    +0.395 N 
ATOM     27  H   UNL     1       3.258  -0.885  -0.597  0.00  0.00    -0.079 HD
BRANCH  26  28
ATOM     28  C   UNL     1       5.158  -1.077  -1.357  0.00  0.00    -0.041 C 
BRANCH  28  29
ATOM     29  C   UNL     1       5.444  -2.018  -0.216  0.00  0.00    -0.064 A 
ATOM     30  C   UNL     1       5.792  -3.331  -0.473  0.00  0.00    +0.002 A 
ATOM     31  C   UNL     1       6.053  -4.195   0.574  0.00  0.00    +0.000 A 
ATOM     32  C   UNL     1       5.967  -3.746   1.878  0.00  0.00    +0.000 A 
ATOM     33  C   UNL     1       5.619  -2.433   2.136  0.00  0.00    +0.000 A 
ATOM     34  C   UNL     1       5.357  -1.569   1.089  0.00  0.00    +0.002 A 
ENDBRANCH  28  29
ENDBRANCH  26  28
BRANCH  26  35
ATOM     35  C   UNL     1       3.366   0.243  -2.311  0.00  0.00    -0.040 C 
BRANCH  35  36
ATOM     36  C   UNL     1       3.715   1.464  -1.499  0.00  0.00    -0.046 A 
ATOM     37  C   UNL     1       2.780   2.030  -0.646  0.00  0.00    +0.005 A 
ATOM     38  C   UNL     1       3.146   3.149   0.085  0.00  0.00    +0.020 A 
ATOM     39  C   UNL     1       4.419   3.666  -0.067  0.00  0.00    +0.111 A 
ATOM     40  N   UNL     1       5.281   3.104  -0.891  0.00  0.00    -0.263 NA
ATOM     41  C   UNL     1       4.969   2.036  -1.599  0.00  0.00    +0.112 A 
ENDBRANCH  35  36
ENDBRANCH  26  35
ENDBRANCH   1  26
TORSDOF 8
