REMARK  Name = ZINC63467765
REMARK  6 active torsions:
REMARK  status: ('A' for Active; 'I' for Inactive)
REMARK    1  A    between atoms: C_1  and  N_2
REMARK    2  A    between atoms: C_5  and  C_21
REMARK    3  A    between atoms: C_11  and  C_12
REMARK    4  A    between atoms: N_23  and  C_24
REMARK    5  A    between atoms: C_24  and  C_25
REMARK    6  A    between atoms: C_25  and  C_26
REMARK                            x       y       z     vdW  Elec       q    Type
REMARK                         _______ _______ _______ _____ _____    ______ ____
ROOT
ATOM      1  C   UNL     1      -0.125   1.417  -0.238  0.00  0.00    +0.138 C 
ATOM      2  N   UNL     1      -0.081  -0.046  -0.302  0.00  0.00    -0.269 N 
ATOM      3  C   UNL     1      -1.286  -0.697  -0.536  0.00  0.00    +0.051 A 
ATOM      4  C   UNL     1      -2.327   0.025  -1.108  0.00  0.00    +0.037 A 
ATOM      5  C   UNL     1      -3.553  -0.588  -1.363  0.00  0.00    +0.039 A 
ATOM      6  C   UNL     1      -3.745  -1.936  -1.044  0.00  0.00    +0.014 A 
ATOM      7  C   UNL     1      -2.717  -2.655  -0.477  0.00  0.00    +0.017 A 
ATOM      8  C   UNL     1      -1.495  -2.044  -0.223  0.00  0.00    +0.034 A 
ATOM      9  S   UNL     1      -0.183  -2.975   0.510  0.00  0.00    -0.082 S 
ATOM     10  C   UNL     1       1.241  -2.091  -0.070  0.00  0.00    +0.076 C 
ATOM     11  C   UNL     1       2.379  -2.727  -0.437  0.00  0.00    +0.029 C 
ATOM     12  C   UNL     1       1.115  -0.618  -0.134  0.00  0.00    +0.257 C 
ATOM     13  O   UNL     1       2.107   0.079  -0.029  0.00  0.00    -0.269 OA
ENDROOT
BRANCH  11  14
ATOM     14  C   UNL     1       2.515  -4.175  -0.219  0.00  0.00    -0.005 A 
ATOM     15  C   UNL     1       1.925  -4.777   0.898  0.00  0.00    +0.009 A 
ATOM     16  C   UNL     1       2.057  -6.135   1.095  0.00  0.00    +0.001 A 
ATOM     17  C   UNL     1       2.772  -6.903   0.192  0.00  0.00    +0.001 A 
ATOM     18  C   UNL     1       3.359  -6.317  -0.915  0.00  0.00    +0.020 A 
ATOM     19  C   UNL     1       3.231  -4.960  -1.131  0.00  0.00    +0.048 A 
ATOM     20 CL   UNL     1       3.962  -4.227  -2.525  0.00  0.00    -0.083 Cl
ENDBRANCH  11  14
BRANCH   5  21
ATOM     21  C   UNL     1      -4.652   0.188  -1.969  0.00  0.00    +0.244 C 
ATOM     22  O   UNL     1      -4.487   1.360  -2.247  0.00  0.00    -0.270 OA
ATOM     23  N   UNL     1      -5.838  -0.403  -2.217  0.00  0.00    -0.311 N 
ATOM     24  H   UNL     1      -5.969  -1.338  -1.996  0.00  0.00    +0.149 HD
BRANCH  23  25
ATOM     25  C   UNL     1      -6.928   0.368  -2.819  0.00  0.00    +0.109 C 
BRANCH  25  26
ATOM     26  C   UNL     1      -8.153  -0.532  -2.992  0.00  0.00    +0.052 C 
BRANCH  26  27
ATOM     27  C   UNL     1      -9.275   0.261  -3.612  0.00  0.00    -0.040 C 
ATOM     28  C   UNL     1      -9.595   0.328  -4.924  0.00  0.00    -0.001 A 
ATOM     29  C   UNL     1      -9.016  -0.293  -6.122  0.00  0.00    +0.010 A 
ATOM     30  C   UNL     1      -9.567  -0.029  -7.328  0.00  0.00    +0.001 A 
ATOM     31  C   UNL     1     -10.674   0.820  -7.464  0.00  0.00    +0.002 A 
ATOM     32  C   UNL     1     -11.261   1.426  -6.411  0.00  0.00    +0.026 A 
ATOM     33  C   UNL     1     -10.764   1.220  -5.094  0.00  0.00    +0.043 A 
ATOM     34  N   UNL     1     -11.152   1.686  -3.932  0.00  0.00    -0.380 N 
ATOM     35  C   UNL     1     -10.275   1.137  -2.891  0.00  0.00    +0.144 C 
ATOM     36  H   UNL     1     -11.897   2.290  -3.784  0.00  0.00    +0.160 HD
ENDBRANCH  26  27
ENDBRANCH  25  26
ENDBRANCH  23  25
ENDBRANCH   5  21
TORSDOF 5
