REMARK  Name = ZINC04546294
REMARK  7 active torsions:
REMARK  status: ('A' for Active; 'I' for Inactive)
REMARK    1  A    between atoms: C_1  and  C_2
REMARK    2  A    between atoms: N_4  and  C_5
REMARK    3  A    between atoms: C_7  and  O_33
REMARK    4  A    between atoms: C_15  and  C_17
REMARK    5  A    between atoms: C_15  and  C_18
REMARK    6  A    between atoms: C_20  and  O_22
REMARK    7  A    between atoms: O_22  and  C_23
REMARK                            x       y       z     vdW  Elec       q    Type
REMARK                         _______ _______ _______ _____ _____    ______ ____
ROOT
ATOM      1  C   UNL     1       4.742   0.999  -0.288  0.00  0.00    +0.173 C 
ATOM      2  C   UNL     1       4.857  -0.028   0.843  0.00  0.00    +0.172 C 
ATOM      3  C   UNL     1       4.964   0.705   2.181  0.00  0.00    +0.183 C 
ATOM      4  C   UNL     1       3.760   1.637   2.355  0.00  0.00    +0.179 C 
ATOM      5  C   UNL     1       3.951   2.447   3.644  0.00  0.00    +0.197 C 
ATOM      6  O   UNL     1       5.213   3.117   3.584  0.00  0.00    -0.347 OA
ATOM      7  C   UNL     1       6.328   2.238   3.416  0.00  0.00    +0.165 C 
ATOM      8  O   UNL     1       6.163   1.482   2.212  0.00  0.00    -0.341 OA
ATOM      9  C   UNL     1       6.410   1.284   4.609  0.00  0.00    +0.074 C 
ATOM     10  C   UNL     1       7.616   3.059   3.330  0.00  0.00    +0.074 C 
ATOM     11  O   UNL     1       3.689   2.537   1.247  0.00  0.00    -0.332 OA
ATOM     12  C   UNL     1       3.533   1.900  -0.021  0.00  0.00    +0.331 C 
ENDROOT
BRANCH   1  16
ATOM     13  C   UNL     1       4.737   0.189  -4.029  0.00  0.00    +0.109 C 
ATOM     14  C   UNL     1       4.921   0.904  -2.716  0.00  0.00    +0.210 C 
ATOM     15  O   UNL     1       5.393   2.022  -2.695  0.00  0.00    -0.276 OA
ATOM     16  N   UNL     1       4.562   0.303  -1.564  0.00  0.00    -0.304 N 
ATOM     17  H   UNL     1       4.186  -0.591  -1.581  0.00  0.00    +0.149 HD
ENDBRANCH   1  16
BRANCH   2  18
ATOM     18  O   UNL     1       3.700  -0.865   0.848  0.00  0.00    -0.387 OA
ATOM     19  H   UNL     1       3.568  -1.359   0.028  0.00  0.00    +0.210 HD
ENDBRANCH   2  18
BRANCH  12  20
ATOM     20  O   UNL     1       2.341   1.110  -0.014  0.00  0.00    -0.462 OA
BRANCH  20  21
ATOM     21  C   UNL     1       1.158   1.779   0.001  0.00  0.00    +0.125 A 
ATOM     22  C   UNL     1       1.156   3.177   0.007  0.00  0.00    +0.046 A 
ATOM     23  C   UNL     1      -0.012   3.874   0.022  0.00  0.00    +0.012 A 
ATOM     24  C   UNL     1      -1.236   3.183   0.030  0.00  0.00    -0.018 A 
ATOM     25  C   UNL     1      -2.461   3.871   0.045  0.00  0.00    +0.008 A 
ATOM     26  C   UNL     1      -3.628   3.171   0.035  0.00  0.00    +0.001 A 
ATOM     27  C   UNL     1      -3.628   1.777   0.028  0.00  0.00    +0.001 A 
ATOM     28  C   UNL     1      -2.461   1.076   0.019  0.00  0.00    +0.008 A 
ATOM     29  C   UNL     1      -1.236   1.766   0.018  0.00  0.00    -0.014 A 
ATOM     30  C   UNL     1      -0.013   1.076   0.008  0.00  0.00    +0.054 A 
ENDBRANCH  20  21
ENDBRANCH  12  20
TORSDOF 4
