REMARK  Name = ZINC01641982
REMARK  3 active torsions:
REMARK  status: ('A' for Active; 'I' for Inactive)
REMARK    1  A    between atoms: C_2  and  C_3
REMARK    2  A    between atoms: C_3  and  N_4
REMARK    3  A    between atoms: N_10  and  N_13
REMARK                            x       y       z     vdW  Elec       q    Type
REMARK                         _______ _______ _______ _____ _____    ______ ____
ROOT
ATOM      1  N   UNL     1       0.989  -2.148  -0.019  0.00  0.00    -0.226 N 
ATOM      2  C   UNL     1       1.228  -2.860  -1.188  0.00  0.00    +0.219 C 
ATOM      3  N   UNL     1       1.563  -2.217  -2.262  0.00  0.00    -0.152 NA
ATOM      4  N   UNL     1       1.788  -2.928  -3.456  0.00  0.00    -0.242 N 
ATOM      5  C   UNL     1       2.252  -4.316  -3.354  0.00  0.00    +0.176 C 
ATOM      6  C   UNL     1       3.740  -4.354  -3.130  0.00  0.00    -0.002 A 
ATOM      7  C   UNL     1       4.545  -3.852  -2.130  0.00  0.00    +0.007 A 
ATOM      8  C   UNL     1       5.914  -4.040  -2.180  0.00  0.00    +0.000 A 
ATOM      9  C   UNL     1       6.481  -4.732  -3.235  0.00  0.00    +0.001 A 
ATOM     10  C   UNL     1       5.684  -5.238  -4.242  0.00  0.00    +0.009 A 
ATOM     11  C   UNL     1       4.302  -5.053  -4.197  0.00  0.00    -0.011 A 
ATOM     12  C   UNL     1       3.228  -5.481  -5.127  0.00  0.00    -0.011 A 
ATOM     13  C   UNL     1       1.995  -5.051  -4.642  0.00  0.00    -0.002 A 
ATOM     14  C   UNL     1       0.838  -5.330  -5.339  0.00  0.00    +0.007 A 
ATOM     15  C   UNL     1       0.898  -6.041  -6.525  0.00  0.00    +0.000 A 
ATOM     16  C   UNL     1       2.118  -6.473  -7.014  0.00  0.00    +0.001 A 
ATOM     17  C   UNL     1       3.280  -6.198  -6.324  0.00  0.00    +0.009 A 
ATOM     18  C   UNL     1       1.533  -4.988  -2.212  0.00  0.00    +0.253 C 
ATOM     19  O   UNL     1       1.343  -6.186  -2.227  0.00  0.00    -0.272 OA
ATOM     20  N   UNL     1       1.108  -4.242  -1.173  0.00  0.00    -0.254 N 
ATOM     21  H   UNL     1       0.738  -2.617   0.792  0.00  0.00    +0.173 HD
ATOM     22  H   UNL     1       1.640  -2.513  -4.320  0.00  0.00    +0.170 HD
ATOM     23  H   UNL     1       0.709  -4.679  -0.405  0.00  0.00    +0.158 HD
ENDROOT
BRANCH   1  30
ATOM     24  N   UNL     1      -0.016   1.334   0.009  0.00  0.00    -0.248 N 
ATOM     25  C   UNL     1       1.119   2.064   0.003  0.00  0.00    +0.230 C 
ATOM     26  O   UNL     1       1.087   3.276   0.009  0.00  0.00    -0.275 OA
ATOM     27  C   UNL     1       2.437   1.312  -0.014  0.00  0.00    +0.194 C 
ATOM     28  C   UNL     1       2.344  -0.202  -0.021  0.00  0.00    +0.247 C 
ATOM     29  O   UNL     1       3.340  -0.893  -0.035  0.00  0.00    -0.273 OA
ATOM     30  N   UNL     1       1.111  -0.752  -0.013  0.00  0.00    -0.166 N 
ATOM     31  C   UNL     1       0.002  -0.004   0.002  0.00  0.00    +0.166 C 
ATOM     32  S   UNL     1      -1.504  -0.818   0.011  0.00  0.00    -0.016 S 
BRANCH  24  33
ATOM     33  C   UNL     1      -1.307   2.027   0.019  0.00  0.00    +0.142 C 
BRANCH  33  35
ATOM     34  C   UNL     1      -2.034   3.467   1.852  0.00  0.00    +0.005 C 
ATOM     35  C   UNL     1      -1.743   2.257   1.443  0.00  0.00    -0.015 C 
ENDBRANCH  33  35
ENDBRANCH  24  33
ENDBRANCH   1  30
TORSDOF 3
