REMARK  Name = ZINC21232068
REMARK  8 active torsions:
REMARK  status: ('A' for Active; 'I' for Inactive)
REMARK    1  A    between atoms: C_1  and  C_2
REMARK    2  A    between atoms: C_2  and  C_3
REMARK    3  A    between atoms: C_2  and  C_4
REMARK    4  A    between atoms: C_4  and  C_6
REMARK    5  A    between atoms: C_4  and  S_12
REMARK    6  A    between atoms: S_12  and  C_13
REMARK    7  A    between atoms: N_23  and  C_24
REMARK    8  A    between atoms: C_24  and  C_25
REMARK                            x       y       z     vdW  Elec       q    Type
REMARK                         _______ _______ _______ _____ _____    ______ ____
ROOT
ATOM      1  C   UNL     1       2.263   1.471  -0.098  0.00  0.00    +0.173 A 
ATOM      2  N   UNL     1       1.128   2.115   0.019  0.00  0.00    -0.223 NA
ATOM      3  C   UNL     1      -0.055   1.459   0.075  0.00  0.00    +0.080 A 
ATOM      4  C   UNL     1      -1.266   2.144   0.206  0.00  0.00    +0.048 A 
ATOM      5  C   UNL     1      -2.446   1.435   0.253  0.00  0.00    +0.043 A 
ATOM      6  C   UNL     1      -2.445   0.046   0.183  0.00  0.00    +0.021 A 
ATOM      7  C   UNL     1      -1.272  -0.646   0.060  0.00  0.00    +0.017 A 
ATOM      8  C   UNL     1      -0.064   0.047   0.004  0.00  0.00    +0.065 A 
ATOM      9  C   UNL     1       1.223  -0.648  -0.128  0.00  0.00    +0.263 A 
ATOM     10  O   UNL     1       1.280  -1.863  -0.194  0.00  0.00    -0.267 OA
ATOM     11  N   UNL     1       2.343   0.110  -0.173  0.00  0.00    -0.280 N 
ATOM     12 CL   UNL     1      -3.952   2.284   0.408  0.00  0.00    -0.083 Cl
ENDROOT
BRANCH   1  13
ATOM     13  S   UNL     1       3.756   2.405  -0.162  0.00  0.00    -0.075 S 
BRANCH  13  14
ATOM     14  C   UNL     1       3.078   4.083  -0.162  0.00  0.00    +0.143 C 
BRANCH  14  15
ATOM     15  C   UNL     1       2.460   4.375   1.181  0.00  0.00    +0.234 C 
ATOM     16  O   UNL     1       2.841   3.780   2.166  0.00  0.00    -0.274 OA
ATOM     17  N   UNL     1       1.484   5.298   1.288  0.00  0.00    -0.239 N 
ATOM     18  C   UNL     1       0.932   5.560   2.489  0.00  0.00    +0.303 C 
ATOM     19  O   UNL     1       1.314   4.963   3.476  0.00  0.00    -0.253 OA
ATOM     20  N   UNL     1      -0.044   6.483   2.596  0.00  0.00    -0.313 N 
ATOM     21  H   UNL     1       1.139   5.839   0.394  0.00  0.00    +0.159 HD
ATOM     22  H   UNL     1      -0.494   6.697   3.576  0.00  0.00    +0.146 HD
ATOM     23  H   UNL     1      -0.390   7.024   1.702  0.00  0.00    +0.146 HD
ENDBRANCH  14  15
BRANCH  14  25
ATOM     24  C   UNL     1       5.328   4.879   0.574  0.00  0.00    +0.009 C 
ATOM     25  C   UNL     1       4.199   5.086  -0.437  0.00  0.00    +0.005 C 
ATOM     26  C   UNL     1       4.738   4.874  -1.853  0.00  0.00    +0.009 C 
ENDBRANCH  14  25
ENDBRANCH  13  14
ENDBRANCH   1  13
BRANCH  11  27
ATOM     27  C   UNL     1       3.652  -0.535  -0.304  0.00  0.00    +0.201 C 
BRANCH  27  28
ATOM     28  C   UNL     1       3.995  -0.684  -1.764  0.00  0.00    +0.125 A 
ATOM     29  C   UNL     1       4.652   0.218  -2.514  0.00  0.00    +0.046 A 
ATOM     30  C   UNL     1       4.757  -0.328  -3.813  0.00  0.00    +0.041 A 
ATOM     31  C   UNL     1       4.150  -1.528  -3.782  0.00  0.00    +0.195 A 
ATOM     32  O   UNL     1       3.690  -1.738  -2.538  0.00  0.00    -0.466 OA
ENDBRANCH  27  28
ENDBRANCH  11  27
TORSDOF 6
