REMARK  Name = ZINC06046309
REMARK  6 active torsions:
REMARK  status: ('A' for Active; 'I' for Inactive)
REMARK    1  A    between atoms: C_1  and  C_2
REMARK    2  A    between atoms: C_5  and  C_9
REMARK    3  A    between atoms: C_6  and  C_8
REMARK    4  A    between atoms: C_11  and  C_18
REMARK    5  A    between atoms: C_12  and  C_17
REMARK    6  A    between atoms: C_18  and  C_20
REMARK                            x       y       z     vdW  Elec       q    Type
REMARK                         _______ _______ _______ _____ _____    ______ ____
ROOT
ATOM      1  C   UNL     1       0.029  -4.265  -0.061  0.00  0.00    +0.140 C 
ATOM      2  C   UNL     1       1.464  -4.720   0.116  0.00  0.00    +0.041 C 
ATOM      3  C   UNL     1       2.015  -5.462  -0.872  0.00  0.00    +0.018 C 
ATOM      4  N   UNL     1       1.301  -5.788  -1.989  0.00  0.00    -0.273 N 
ATOM      5  C   UNL     1       0.033  -5.413  -2.196  0.00  0.00    +0.304 C 
ATOM      6  O   UNL     1      -0.521  -5.753  -3.223  0.00  0.00    -0.252 OA
ATOM      7  N   UNL     1      -0.650  -4.671  -1.303  0.00  0.00    -0.288 N 
ATOM      8  C   UNL     1       3.439  -5.935  -0.737  0.00  0.00    +0.061 C 
ATOM      9  H   UNL     1       1.738  -6.322  -2.671  0.00  0.00    +0.156 HD
ATOM     10  H   UNL     1      -1.569  -4.410  -1.474  0.00  0.00    +0.151 HD
ENDROOT
BRANCH   1  15
ATOM     11  C   UNL     1      -0.059   1.506   0.211  0.00  0.00    +0.044 C 
ATOM     12  C   UNL     1      -0.035   0.001   0.140  0.00  0.00    -0.050 A 
ATOM     13  C   UNL     1       0.009  -0.632  -1.088  0.00  0.00    +0.004 A 
ATOM     14  C   UNL     1       0.031  -2.013  -1.153  0.00  0.00    +0.006 A 
ATOM     15  C   UNL     1       0.007  -2.760   0.010  0.00  0.00    -0.020 A 
ATOM     16  C   UNL     1      -0.037  -2.127   1.238  0.00  0.00    -0.045 A 
ATOM     17  C   UNL     1      -0.053  -0.746   1.303  0.00  0.00    +0.007 A 
ATOM     18  C   UNL     1      -0.062  -2.941   2.505  0.00  0.00    +0.044 C 
ENDBRANCH   1  15
BRANCH   2  19
ATOM     19  C   UNL     1       2.202  -4.380   1.274  0.00  0.00    +0.193 C 
ATOM     20  O   UNL     1       2.030  -4.999   2.309  0.00  0.00    -0.287 OA
BRANCH  19  21
ATOM     21  C   UNL     1       3.182  -3.273   1.228  0.00  0.00    +0.022 A 
ATOM     22  C   UNL     1       3.305  -2.494   0.077  0.00  0.00    +0.013 A 
ATOM     23  C   UNL     1       4.221  -1.463   0.040  0.00  0.00    +0.021 A 
ATOM     24  C   UNL     1       5.018  -1.201   1.142  0.00  0.00    +0.041 A 
ATOM     25  C   UNL     1       4.899  -1.971   2.288  0.00  0.00    +0.021 A 
ATOM     26  C   UNL     1       3.983  -3.000   2.338  0.00  0.00    +0.013 A 
ATOM     27 CL   UNL     1       6.168   0.098   1.088  0.00  0.00    -0.084 Cl
ENDBRANCH  19  21
ENDBRANCH   2  19
TORSDOF 3
