REMARK  Name = ZINC01409796
REMARK  7 active torsions:
REMARK  status: ('A' for Active; 'I' for Inactive)
REMARK    1  A    between atoms: C_4  and  C_7
REMARK    2  A    between atoms: C_7  and  N_8
REMARK    3  A    between atoms: C_9  and  C_11
REMARK    4  A    between atoms: N_13  and  C_14
REMARK    5  A    between atoms: C_14  and  C_16
REMARK    6  A    between atoms: N_24  and  C_26
REMARK    7  A    between atoms: C_29  and  C_32
REMARK                            x       y       z     vdW  Elec       q    Type
REMARK                         _______ _______ _______ _____ _____    ______ ____
ROOT
ATOM      1  C   UNL     1      -1.127   2.229   0.018  0.00  0.00    +0.178 A 
ATOM      2  C   UNL     1      -0.016   1.333   0.009  0.00  0.00    +0.144 A 
ATOM      3  N   UNL     1       0.002  -0.004   0.002  0.00  0.00    -0.166 NA
ATOM      4  S   UNL     1       1.305   2.460   0.003  0.00  0.00    +0.032 S 
ATOM      5  N   UNL     1       0.390   3.905   0.019  0.00  0.00    -0.199 N 
ATOM      6  N   UNL     1      -0.832   3.495   0.028  0.00  0.00    -0.152 NA
ENDROOT
BRANCH   5   7
ATOM      7  C   UNL     1       0.856   5.219   0.021  0.00  0.00    +0.073 A 
ATOM      8  C   UNL     1      -0.049   6.276   0.029  0.00  0.00    +0.029 A 
ATOM      9  C   UNL     1       0.409   7.575   0.036  0.00  0.00    +0.015 A 
ATOM     10  C   UNL     1       1.782   7.830   0.025  0.00  0.00    +0.037 A 
ATOM     11  C   UNL     1       2.688   6.767   0.012  0.00  0.00    +0.015 A 
ATOM     12  C   UNL     1       2.224   5.470   0.010  0.00  0.00    +0.029 A 
BRANCH  10  13
ATOM     13  C   UNL     1       2.276   9.222   0.026  0.00  0.00    +0.242 C 
ATOM     14  O   UNL     1       3.472   9.443   0.016  0.00  0.00    -0.270 OA
ATOM     15  N   UNL     1       1.402  10.248   0.039  0.00  0.00    -0.325 N 
ATOM     16  H   UNL     1       0.448  10.072   0.047  0.00  0.00    +0.145 HD
ATOM     17  H   UNL     1       1.726  11.162   0.040  0.00  0.00    +0.145 HD
ENDBRANCH  10  13
ENDBRANCH   5   7
BRANCH   1  19
ATOM     18  N   UNL     1      -3.537   2.634   0.030  0.00  0.00    -0.306 N 
ATOM     19  C   UNL     1      -2.520   1.750   0.021  0.00  0.00    +0.267 C 
ATOM     20  O   UNL     1      -2.752   0.556   0.015  0.00  0.00    -0.268 OA
ATOM     21  H   UNL     1      -3.352   3.586   0.034  0.00  0.00    +0.149 HD
BRANCH  18  22
ATOM     22  C   UNL     1      -4.922   2.156   0.032  0.00  0.00    +0.140 C 
BRANCH  22  26
ATOM     23  C   UNL     1      -7.580   5.500   0.061  0.00  0.00    +0.000 A 
ATOM     24  C   UNL     1      -7.154   4.966  -1.141  0.00  0.00    +0.000 A 
ATOM     25  C   UNL     1      -6.294   3.884  -1.150  0.00  0.00    +0.005 A 
ATOM     26  C   UNL     1      -5.859   3.336   0.042  0.00  0.00    -0.030 A 
ATOM     27  C   UNL     1      -6.290   3.867   1.244  0.00  0.00    +0.005 A 
ATOM     28  C   UNL     1      -7.146   4.952   1.253  0.00  0.00    +0.000 A 
ENDBRANCH  22  26
ENDBRANCH  18  22
ENDBRANCH   1  19
BRANCH   3  29
ATOM     29  C   UNL     1       1.165  -0.655  -0.012  0.00  0.00    +0.268 C 
ATOM     30  O   UNL     1       2.213  -0.031  -0.018  0.00  0.00    -0.268 OA
BRANCH  29  31
ATOM     31  C   UNL     1       1.185  -2.136  -0.020  0.00  0.00    +0.039 A 
ATOM     32  C   UNL     1      -0.011  -2.852  -0.007  0.00  0.00    +0.014 A 
ATOM     33  C   UNL     1       0.013  -4.231  -0.020  0.00  0.00    +0.021 A 
ATOM     34  C   UNL     1       1.223  -4.905  -0.035  0.00  0.00    +0.041 A 
ATOM     35  C   UNL     1       2.414  -4.198  -0.042  0.00  0.00    +0.021 A 
ATOM     36  C   UNL     1       2.401  -2.819  -0.035  0.00  0.00    +0.014 A 
ATOM     37 CL   UNL     1       1.246  -6.640  -0.044  0.00  0.00    -0.084 Cl
ENDBRANCH  29  31
ENDBRANCH   3  29
TORSDOF 7
