REMARK  Name = ZINC63373370
REMARK  4 active torsions:
REMARK  status: ('A' for Active; 'I' for Inactive)
REMARK    1  A    between atoms: C_1  and  O_2
REMARK    2  A    between atoms: O_2  and  C_3
REMARK    3  A    between atoms: C_10  and  C_18
REMARK    4  A    between atoms: N_22  and  C_25
REMARK                            x       y       z     vdW  Elec       q    Type
REMARK                         _______ _______ _______ _____ _____    ______ ____
ROOT
ATOM      1  C   UNL     1      -2.619  -1.005   1.129  0.00  0.00    +0.121 A 
ATOM      2  C   UNL     1      -3.992  -0.706   1.180  0.00  0.00    +0.047 A 
ATOM      3  C   UNL     1      -4.943  -1.607   0.855  0.00  0.00    +0.029 A 
ATOM      4  C   UNL     1      -4.557  -2.956   0.431  0.00  0.00    +0.043 A 
ATOM      5  N   UNL     1      -5.268  -3.991   0.047  0.00  0.00    -0.376 N 
ATOM      6  C   UNL     1      -4.364  -5.114  -0.176  0.00  0.00    +0.128 C 
ATOM      7  C   UNL     1      -4.487  -5.699  -1.586  0.00  0.00    +0.121 C 
ATOM      8  N   UNL     1      -3.355  -6.612  -1.809  0.00  0.00    -0.307 NA
ATOM      9  C   UNL     1      -2.060  -5.927  -1.858  0.00  0.00    +0.086 C 
ATOM     10  C   UNL     1      -1.738  -5.308  -0.485  0.00  0.00    +0.048 C 
ATOM     11  C   UNL     1      -2.964  -4.534  -0.052  0.00  0.00    -0.035 C 
ATOM     12  C   UNL     1      -3.107  -3.272   0.368  0.00  0.00    +0.003 A 
ATOM     13  C   UNL     1      -2.157  -2.217   0.742  0.00  0.00    +0.055 A 
ATOM     14  H   UNL     1      -3.347  -7.352  -1.123  0.00  0.00    +0.123 HD
ATOM     15  H   UNL     1      -6.231  -4.006  -0.068  0.00  0.00    +0.160 HD
ENDROOT
BRANCH   7  16
ATOM     16  C   UNL     1      -4.450  -4.586  -2.602  0.00  0.00    +0.101 A 
ATOM     17  C   UNL     1      -3.412  -3.702  -2.622  0.00  0.00    +0.263 A 
ATOM     18  N   UNL     1      -3.399  -2.697  -3.556  0.00  0.00    -0.274 N 
ATOM     19  C   UNL     1      -4.401  -2.581  -4.447  0.00  0.00    +0.337 A 
ATOM     20  N   UNL     1      -5.434  -3.443  -4.442  0.00  0.00    -0.229 N 
ATOM     21  C   UNL     1      -5.483  -4.448  -3.546  0.00  0.00    +0.270 A 
ATOM     22  O   UNL     1      -6.419  -5.229  -3.550  0.00  0.00    -0.267 OA
ATOM     23  O   UNL     1      -4.372  -1.684  -5.267  0.00  0.00    -0.246 OA
ATOM     24  O   UNL     1      -2.405  -3.815  -1.730  0.00  0.00    -0.267 OA
ATOM     25  H   UNL     1      -2.662  -2.066  -3.574  0.00  0.00    +0.173 HD
BRANCH  20  26
ATOM     26  C   UNL     1      -6.465  -3.298  -5.381  0.00  0.00    +0.054 A 
ATOM     27  C   UNL     1      -7.569  -2.510  -5.085  0.00  0.00    +0.028 A 
ATOM     28  C   UNL     1      -8.583  -2.369  -6.012  0.00  0.00    +0.022 A 
ATOM     29  C   UNL     1      -8.499  -3.011  -7.235  0.00  0.00    +0.041 A 
ATOM     30  C   UNL     1      -7.400  -3.797  -7.532  0.00  0.00    +0.022 A 
ATOM     31  C   UNL     1      -6.380  -3.936  -6.611  0.00  0.00    +0.028 A 
ATOM     32 CL   UNL     1      -9.776  -2.832  -8.397  0.00  0.00    -0.084 Cl
ENDBRANCH  20  26
ENDBRANCH   7  16
BRANCH   1  34
ATOM     33  C   UNL     1      -2.256   1.221   1.880  0.00  0.00    +0.277 C 
ATOM     34  O   UNL     1      -1.724  -0.043   1.477  0.00  0.00    -0.495 OA
ENDBRANCH   1  34
TORSDOF 3
