REMARK  Name = ZINC22388287
REMARK  7 active torsions:
REMARK  status: ('A' for Active; 'I' for Inactive)
REMARK    1  A    between atoms: C_1  and  C_2
REMARK    2  A    between atoms: C_12  and  C_14
REMARK    3  A    between atoms: C_17  and  O_20
REMARK    4  A    between atoms: N_21  and  C_22
REMARK    5  A    between atoms: C_25  and  C_28
REMARK    6  A    between atoms: C_28  and  C_29
REMARK    7  A    between atoms: C_28  and  C_30
REMARK                            x       y       z     vdW  Elec       q    Type
REMARK                         _______ _______ _______ _____ _____    ______ ____
ROOT
ATOM      1  C   UNL     1      -0.162   1.453  -0.626  0.00  0.00    +0.066 C 
ATOM      2  C   UNL     1      -0.101  -0.035  -0.392  0.00  0.00    +0.047 C 
ATOM      3  C   UNL     1      -1.274  -0.747  -0.172  0.00  0.00    +0.091 C 
ATOM      4  C   UNL     1      -1.198  -2.113   0.041  0.00  0.00    +0.249 C 
ATOM      5  O   UNL     1      -2.314  -2.839   0.258  0.00  0.00    -0.270 OA
ATOM      6  N   UNL     1       0.024  -2.707   0.027  0.00  0.00    -0.209 N 
ATOM      7  C   UNL     1       1.157  -1.967  -0.194  0.00  0.00    +0.230 C 
ATOM      8  N   UNL     1       1.066  -0.651  -0.403  0.00  0.00    -0.219 NA
ATOM      9  N   UNL     1       2.347  -2.558  -0.205  0.00  0.00    -0.181 NA
ATOM     10  C   UNL     1       2.528  -3.865  -0.011  0.00  0.00    +0.220 C 
ATOM     11  N   UNL     1       1.535  -4.694   0.211  0.00  0.00    -0.224 NA
ATOM     12  C   UNL     1       0.165  -4.153   0.247  0.00  0.00    +0.236 C 
ATOM     13  N   UNL     1       3.816  -4.368  -0.045  0.00  0.00    -0.284 N 
ATOM     14  H   UNL     1       3.965  -5.325   0.013  0.00  0.00    +0.155 HD
ENDROOT
BRANCH  12  15
ATOM     15  C   UNL     1      -0.431  -4.480   1.591  0.00  0.00    -0.005 A 
ATOM     16  C   UNL     1      -1.433  -5.428   1.690  0.00  0.00    +0.011 A 
ATOM     17  C   UNL     1      -1.981  -5.730   2.921  0.00  0.00    +0.046 A 
ATOM     18  C   UNL     1      -1.526  -5.081   4.060  0.00  0.00    +0.117 A 
ATOM     19  C   UNL     1      -0.521  -4.130   3.959  0.00  0.00    +0.046 A 
ATOM     20  C   UNL     1       0.028  -3.836   2.725  0.00  0.00    +0.011 A 
BRANCH  18  21
ATOM     21  O   UNL     1      -2.064  -5.376   5.273  0.00  0.00    -0.507 OA
ATOM     22  H   UNL     1      -1.613  -6.092   5.740  0.00  0.00    +0.292 HD
ENDBRANCH  18  21
ENDBRANCH  12  15
BRANCH  13  23
ATOM     23  C   UNL     1       4.904  -3.497  -0.163  0.00  0.00    +0.034 A 
ATOM     24  C   UNL     1       4.856  -2.240   0.426  0.00  0.00    +0.023 A 
ATOM     25  C   UNL     1       5.932  -1.383   0.308  0.00  0.00    +0.006 A 
ATOM     26  C   UNL     1       7.056  -1.774  -0.397  0.00  0.00    -0.045 A 
ATOM     27  C   UNL     1       7.106  -3.025  -0.984  0.00  0.00    +0.006 A 
ATOM     28  C   UNL     1       6.036  -3.890  -0.865  0.00  0.00    +0.023 A 
BRANCH  26  29
ATOM     29  C   UNL     1       8.228  -0.835  -0.524  0.00  0.00    +0.013 C 
ATOM     30  C   UNL     1       9.470  -1.483   0.090  0.00  0.00    +0.012 C 
ATOM     31  C   UNL     1       8.486  -0.540  -2.003  0.00  0.00    +0.012 C 
ENDBRANCH  26  29
ENDBRANCH  13  23
TORSDOF 4
