REMARK  Name = ZINC12371558
REMARK  7 active torsions:
REMARK  status: ('A' for Active; 'I' for Inactive)
REMARK    1  A    between atoms: C_1  and  O_2
REMARK    2  A    between atoms: O_2  and  C_3
REMARK    3  A    between atoms: C_7  and  C_9
REMARK    4  A    between atoms: C_12  and  O_33
REMARK    5  A    between atoms: C_14  and  C_25
REMARK    6  A    between atoms: C_29  and  O_31
REMARK    7  A    between atoms: O_31  and  C_32
REMARK                            x       y       z     vdW  Elec       q    Type
REMARK                         _______ _______ _______ _____ _____    ______ ____
ROOT
ATOM      1  C   UNL     1      -0.828   7.388  -1.200  0.00  0.00    +0.046 C 
ATOM      2  C   UNL     1      -1.548   7.882   0.056  0.00  0.00    +0.041 C 
ATOM      3  C   UNL     1      -0.815   7.372   1.298  0.00  0.00    +0.116 C 
ATOM      4  C   UNL     1      -0.795   5.842   1.287  0.00  0.00    +0.041 C 
ATOM      5  C   UNL     1      -0.076   5.351   0.030  0.00  0.00    +0.046 C 
ATOM      6  C   UNL     1      -0.818   5.856  -1.212  0.00  0.00    +0.137 C 
ATOM      7  C   UNL     1      -2.234   5.351  -1.183  0.00  0.00    +0.237 C 
ATOM      8  O   UNL     1      -2.947   5.651  -0.250  0.00  0.00    -0.274 OA
ATOM      9  N   UNL     1      -2.731   4.579  -2.159  0.00  0.00    -0.239 N 
ATOM     10  C   UNL     1      -1.995   4.211  -3.218  0.00  0.00    +0.312 C 
ATOM     11  O   UNL     1      -2.496   3.509  -4.074  0.00  0.00    -0.252 OA
ATOM     12  N   UNL     1      -0.718   4.599  -3.356  0.00  0.00    -0.239 N 
ATOM     13  C   UNL     1      -0.110   5.372  -2.446  0.00  0.00    +0.237 C 
ATOM     14  O   UNL     1       1.046   5.691  -2.623  0.00  0.00    -0.274 OA
ATOM     15  H   UNL     1      -3.772   4.227  -2.106  0.00  0.00    +0.159 HD
ATOM     16  H   UNL     1      -0.138   4.282  -4.235  0.00  0.00    +0.159 HD
ENDROOT
BRANCH   1  21
ATOM     17  C   UNL     1      -1.542   9.168  -4.456  0.00  0.00    +0.120 A 
ATOM     18  C   UNL     1      -2.869   8.824  -4.671  0.00  0.00    +0.045 A 
ATOM     19  C   UNL     1      -3.529   8.019  -3.763  0.00  0.00    +0.004 A 
ATOM     20  C   UNL     1      -2.867   7.555  -2.640  0.00  0.00    +0.004 A 
ATOM     21  C   UNL     1      -1.545   7.896  -2.424  0.00  0.00    -0.039 A 
ATOM     22  C   UNL     1      -0.883   8.705  -3.326  0.00  0.00    +0.049 A 
BRANCH  17  24
ATOM     23  C   UNL     1      -1.635  10.404  -6.484  0.00  0.00    +0.277 C 
ATOM     24  O   UNL     1      -0.891   9.960  -5.347  0.00  0.00    -0.495 OA
ENDBRANCH  17  24
ENDBRANCH   1  21
BRANCH   5  25
ATOM     25  C   UNL     1      -0.051   3.844   0.022  0.00  0.00    -0.039 A 
ATOM     26  C   UNL     1      -1.237   3.133   0.030  0.00  0.00    +0.004 A 
ATOM     27  C   UNL     1      -1.218   1.751   0.017  0.00  0.00    +0.004 A 
ATOM     28  C   UNL     1      -0.013   1.076   0.008  0.00  0.00    +0.045 A 
ATOM     29  C   UNL     1       1.179   1.786   0.000  0.00  0.00    +0.120 A 
ATOM     30  C   UNL     1       1.157   3.174   0.008  0.00  0.00    +0.049 A 
BRANCH  29  31
ATOM     31  O   UNL     1       2.366   1.125  -0.014  0.00  0.00    -0.495 OA
ATOM     32  C   UNL     1       2.312  -0.303  -0.020  0.00  0.00    +0.277 C 
ENDBRANCH  29  31
ENDBRANCH   5  25
BRANCH   3  33
ATOM     33  O   UNL     1      -1.490   7.831   2.471  0.00  0.00    -0.392 OA
ATOM     34  H   UNL     1      -1.107   7.563   3.467  0.00  0.00    +0.210 HD
ENDBRANCH   3  33
TORSDOF 5
