REMARK  Name = ZINC13499578
REMARK  11 active torsions:
REMARK  status: ('A' for Active; 'I' for Inactive)
REMARK    1  A    between atoms: C_1  and  C_2
REMARK    2  A    between atoms: C_2  and  C_3
REMARK    3  A    between atoms: C_3  and  C_4
REMARK    4  A    between atoms: C_4  and  C_6
REMARK    5  A    between atoms: C_4  and  N_78
REMARK    6  A    between atoms: N_10  and  C_11
REMARK    7  A    between atoms: C_17  and  C_18
REMARK    8  A    between atoms: C_17  and  N_78
REMARK    9  A    between atoms: C_21  and  C_31
REMARK   10  A    between atoms: C_23  and  C_30
REMARK   11  A    between atoms: C_32  and  N_78
REMARK                            x       y       z     vdW  Elec       q    Type
REMARK                         _______ _______ _______ _____ _____    ______ ____
ROOT
ATOM      1  N   UNL     1       1.466   4.121  -1.198  0.00  0.00    +0.391 N 
ATOM      2  H   UNL     1       0.675   3.496  -1.393  0.00  0.00    -0.080 HD
ENDROOT
BRANCH   1   3
ATOM      3  C   UNL     1       2.065   4.551  -2.480  0.00  0.00    -0.067 C 
ATOM      4  C   UNL     1       3.220   5.524  -2.232  0.00  0.00    -0.015 C 
ATOM      5  C   UNL     1       3.820   5.954  -3.572  0.00  0.00    -0.002 C 
ATOM      6  C   UNL     1       2.745   6.643  -4.415  0.00  0.00    -0.000 C 
ATOM      7  C   UNL     1       1.590   5.670  -4.662  0.00  0.00    -0.002 C 
ATOM      8  C   UNL     1       0.990   5.240  -3.322  0.00  0.00    -0.015 C 
ENDBRANCH   1   3
BRANCH   1   9
ATOM      9  C   UNL     1       2.468   3.390  -0.394  0.00  0.00    +0.003 C 
BRANCH   9  10
ATOM     10  C   UNL     1       1.780   2.240   0.295  0.00  0.00    +0.138 A 
ATOM     11  N   UNL     1       0.633   2.279   0.929  0.00  0.00    -0.115 NA
ATOM     12  N   UNL     1       0.385   1.098   1.378  0.00  0.00    -0.023 NA
ATOM     13  N   UNL     1       1.344   0.305   1.048  0.00  0.00    -0.044 NA
ATOM     14  N   UNL     1       2.224   0.972   0.380  0.00  0.00    -0.228 N 
BRANCH  14  15
ATOM     15  C   UNL     1       3.471   0.447  -0.182  0.00  0.00    +0.111 C 
ATOM     16  C   UNL     1       3.152  -0.668  -1.179  0.00  0.00    +0.027 C 
ATOM     17  C   UNL     1       4.455  -1.216  -1.766  0.00  0.00    +0.002 C 
ATOM     18  C   UNL     1       5.327  -1.773  -0.639  0.00  0.00    +0.000 C 
ATOM     19  C   UNL     1       5.646  -0.658   0.359  0.00  0.00    +0.002 C 
ATOM     20  C   UNL     1       4.343  -0.110   0.945  0.00  0.00    +0.027 C 
ENDBRANCH  14  15
ENDBRANCH   9  10
BRANCH   9  21
ATOM     21  C   UNL     1       3.085   4.317   0.655  0.00  0.00    -0.008 C 
BRANCH  21  23
ATOM     22  C   UNL     1       4.776   6.119   1.024  0.00  0.00    +0.004 C 
ATOM     23  C   UNL     1       4.010   5.322  -0.034  0.00  0.00    -0.005 C 
ENDBRANCH  21  23
ENDBRANCH   9  21
ENDBRANCH   1   9
BRANCH   1  24
ATOM     24  C   UNL     1       0.977   5.297  -0.449  0.00  0.00    -0.036 C 
BRANCH  24  25
ATOM     25  C   UNL     1      -0.100   4.846   0.504  0.00  0.00    +0.001 A 
ATOM     26  C   UNL     1       0.188   4.683   1.820  0.00  0.00    +0.017 A 
ATOM     27  C   UNL     1      -0.881   4.249   2.720  0.00  0.00    +0.002 A 
ATOM     28  C   UNL     1      -0.647   4.068   4.088  0.00  0.00    -0.041 A 
ATOM     29  C   UNL     1      -1.665   3.658   4.901  0.00  0.00    +0.007 A 
ATOM     30  C   UNL     1      -2.930   3.417   4.382  0.00  0.00    -0.048 A 
ATOM     31  C   UNL     1      -3.184   3.588   3.039  0.00  0.00    +0.029 A 
ATOM     32  C   UNL     1      -2.163   4.006   2.191  0.00  0.00    +0.050 A 
ATOM     33  N   UNL     1      -2.389   4.185   0.843  0.00  0.00    -0.322 N 
ATOM     34  H   UNL     1      -3.272   4.018   0.480  0.00  0.00    +0.169 HD
ATOM     35  C   UNL     1      -1.402   4.590   0.024  0.00  0.00    +0.251 A 
ATOM     36  O   UNL     1      -1.637   4.738  -1.162  0.00  0.00    -0.268 OA
ATOM     37  C   UNL     1      -4.038   2.965   5.299  0.00  0.00    +0.044 C 
ATOM     38  C   UNL     1       0.723   4.325   4.661  0.00  0.00    +0.044 C 
ENDBRANCH  24  25
ENDBRANCH   1  24
TORSDOF 8
