REMARK  Name = ZINC12300122
REMARK  8 active torsions:
REMARK  status: ('A' for Active; 'I' for Inactive)
REMARK    1  A    between atoms: C_4  and  C_7
REMARK    2  A    between atoms: C_10  and  C_13
REMARK    3  A    between atoms: C_14  and  C_19
REMARK    4  A    between atoms: C_19  and  N_56
REMARK    5  A    between atoms: C_20  and  C_22
REMARK    6  A    between atoms: C_20  and  C_28
REMARK    7  A    between atoms: C_20  and  N_56
REMARK    8  A    between atoms: C_22  and  N_23
REMARK                            x       y       z     vdW  Elec       q    Type
REMARK                         _______ _______ _______ _____ _____    ______ ____
ROOT
ATOM      1  C   UNL     1       1.882   5.641  -0.626  0.00  0.00    +0.094 A 
ATOM      2  C   UNL     1       2.074   4.422   0.053  0.00  0.00    -0.019 A 
ATOM      3  C   UNL     1       1.169   3.537  -0.421  0.00  0.00    +0.107 A 
ATOM      4  N   UNL     1       0.436   4.158  -1.370  0.00  0.00    -0.284 N 
ATOM      5  H   UNL     1      -0.307   3.748  -1.899  0.00  0.00    +0.188 HD
ATOM      6  N   UNL     1       0.898   5.476  -1.485  0.00  0.00    -0.174 NA
ENDROOT
BRANCH   1  10
ATOM      7  C   UNL     1       4.104   9.220  -0.024  0.00  0.00    -0.018 A 
ATOM      8  C   UNL     1       3.800   8.797  -1.317  0.00  0.00    +0.009 A 
ATOM      9  C   UNL     1       3.081   7.639  -1.512  0.00  0.00    +0.010 A 
ATOM     10  C   UNL     1       2.657   6.888  -0.416  0.00  0.00    +0.002 A 
ATOM     11  C   UNL     1       2.961   7.310   0.877  0.00  0.00    +0.010 A 
ATOM     12  C   UNL     1       3.681   8.469   1.072  0.00  0.00    +0.009 A 
BRANCH   7  16
ATOM     13  C   UNL     1       6.326  12.794   0.579  0.00  0.00    +0.000 A 
ATOM     14  C   UNL     1       5.806  12.115   1.665  0.00  0.00    +0.001 A 
ATOM     15  C   UNL     1       5.084  10.954   1.476  0.00  0.00    +0.008 A 
ATOM     16  C   UNL     1       4.879  10.467   0.186  0.00  0.00    -0.018 A 
ATOM     17  C   UNL     1       5.410  11.153  -0.905  0.00  0.00    +0.008 A 
ATOM     18  C   UNL     1       6.126  12.315  -0.704  0.00  0.00    +0.001 A 
ENDBRANCH   7  16
ENDBRANCH   1  10
BRANCH   2  19
ATOM     19  C   UNL     1       3.102   4.153   1.122  0.00  0.00    -0.042 C 
BRANCH  19  20
ATOM     20  N   UNL     1       4.414   3.934   0.486  0.00  0.00    +0.388 N 
ATOM     21  H   UNL     1       4.721   4.803   0.033  0.00  0.00    -0.084 HD
ATOM     22  H   UNL     1       4.329   3.193  -0.220  0.00  0.00    -0.084 HD
BRANCH  20  23
ATOM     23  C   UNL     1       5.412   3.533   1.496  0.00  0.00    -0.019 C 
BRANCH  23  24
ATOM     24  C   UNL     1       6.049   4.763   2.089  0.00  0.00    -0.060 A 
ATOM     25  C   UNL     1       6.363   5.838   1.278  0.00  0.00    +0.002 A 
ATOM     26  C   UNL     1       6.944   6.968   1.823  0.00  0.00    +0.000 A 
ATOM     27  C   UNL     1       7.219   7.019   3.177  0.00  0.00    +0.000 A 
ATOM     28  C   UNL     1       6.911   5.942   3.986  0.00  0.00    +0.000 A 
ATOM     29  C   UNL     1       6.326   4.814   3.442  0.00  0.00    +0.002 A 
ENDBRANCH  23  24
BRANCH  23  30
ATOM     30  C   UNL     1       6.487   2.674   0.826  0.00  0.00    +0.132 C 
BRANCH  30  31
ATOM     31  N   UNL     1       5.888   1.421   0.357  0.00  0.00    -0.273 N 
ATOM     32  C   UNL     1       5.906   0.959  -0.911  0.00  0.00    +0.108 A 
ATOM     33  C   UNL     1       5.252  -0.225  -0.927  0.00  0.00    +0.041 A 
ATOM     34  C   UNL     1       4.811  -0.491   0.373  0.00  0.00    +0.134 A 
ATOM     35  N   UNL     1       5.192   0.495   1.144  0.00  0.00    -0.180 NA
ENDBRANCH  30  31
ENDBRANCH  23  30
ENDBRANCH  20  23
ENDBRANCH  19  20
ENDBRANCH   2  19
TORSDOF 8
