REMARK  Name = ZINC15972401
REMARK  7 active torsions:
REMARK  status: ('A' for Active; 'I' for Inactive)
REMARK    1  A    between atoms: C_1  and  O_2
REMARK    2  A    between atoms: O_2  and  C_3
REMARK    3  A    between atoms: C_6  and  C_11
REMARK    4  A    between atoms: C_8  and  O_9
REMARK    5  A    between atoms: O_9  and  C_10
REMARK    6  A    between atoms: C_15  and  C_17
REMARK    7  A    between atoms: C_17  and  C_19
REMARK                            x       y       z     vdW  Elec       q    Type
REMARK                         _______ _______ _______ _____ _____    ______ ____
ROOT
ATOM      1  C   UNL     1      -2.441   3.906   0.234  0.00  0.00    +0.103 C 
ATOM      2  N   UNL     1      -2.728   5.160   0.110  0.00  0.00    -0.087 NA
ATOM      3  O   UNL     1      -4.088   5.385  -0.219  0.00  0.00    -0.371 OA
ATOM      4  C   UNL     1      -4.624   4.144  -0.680  0.00  0.00    +0.255 C 
ATOM      5  C   UNL     1      -3.701   3.100  -0.038  0.00  0.00    +0.173 C 
ATOM      6  C   UNL     1      -6.056   3.951  -0.276  0.00  0.00    +0.030 A 
ATOM      7  C   UNL     1      -6.708   3.938   0.936  0.00  0.00    +0.010 A 
ATOM      8  C   UNL     1      -8.075   3.728   0.986  0.00  0.00    +0.001 A 
ATOM      9  C   UNL     1      -8.784   3.530  -0.186  0.00  0.00    +0.002 A 
ATOM     10  C   UNL     1      -8.135   3.543  -1.403  0.00  0.00    +0.024 A 
ATOM     11  C   UNL     1      -6.759   3.755  -1.462  0.00  0.00    +0.041 A 
ATOM     12  N   UNL     1      -5.891   3.811  -2.554  0.00  0.00    -0.281 N 
ATOM     13  C   UNL     1      -4.616   4.038  -2.178  0.00  0.00    +0.270 C 
ATOM     14  O   UNL     1      -3.652   4.138  -2.907  0.00  0.00    -0.271 OA
ATOM     15  H   UNL     1      -6.172   3.701  -3.476  0.00  0.00    +0.155 HD
ENDROOT
BRANCH   1  19
ATOM     16  C   UNL     1       1.370   2.303   1.213  0.00  0.00    +0.162 A 
ATOM     17  C   UNL     1       0.313   1.452   0.925  0.00  0.00    +0.050 A 
ATOM     18  C   UNL     1      -0.924   1.968   0.602  0.00  0.00    +0.013 A 
ATOM     19  C   UNL     1      -1.117   3.351   0.574  0.00  0.00    +0.004 A 
ATOM     20  C   UNL     1      -0.052   4.208   0.863  0.00  0.00    +0.059 A 
ATOM     21  C   UNL     1       1.186   3.683   1.181  0.00  0.00    +0.162 A 
BRANCH  16  23
ATOM     22  C   UNL     1       2.708   0.364   1.539  0.00  0.00    +0.277 C 
ATOM     23  O   UNL     1       2.589   1.788   1.526  0.00  0.00    -0.491 OA
ENDBRANCH  16  23
BRANCH  21  24
ATOM     24  O   UNL     1       2.225   4.515   1.463  0.00  0.00    -0.491 OA
ATOM     25  C   UNL     1       1.964   5.919   1.412  0.00  0.00    +0.277 C 
ENDBRANCH  21  24
ENDBRANCH   1  19
BRANCH   5  26
ATOM     26  C   UNL     1      -4.294   2.583   1.247  0.00  0.00    +0.177 C 
ATOM     27  O   UNL     1      -4.116   3.187   2.284  0.00  0.00    -0.291 OA
BRANCH  26  28
ATOM     28  C   UNL     1      -5.088   1.345   1.245  0.00  0.00    +0.019 A 
ATOM     29  C   UNL     1      -5.395   0.713   0.024  0.00  0.00    +0.012 A 
ATOM     30  C   UNL     1      -6.120  -0.432  -0.003  0.00  0.00    +0.009 A 
ATOM     31  C   UNL     1      -6.588  -0.999   1.198  0.00  0.00    -0.018 A 
ATOM     32  C   UNL     1      -7.347  -2.181   1.193  0.00  0.00    +0.008 A 
ATOM     33  C   UNL     1      -7.786  -2.707   2.370  0.00  0.00    +0.001 A 
ATOM     34  C   UNL     1      -7.495  -2.089   3.585  0.00  0.00    +0.001 A 
ATOM     35  C   UNL     1      -6.763  -0.943   3.630  0.00  0.00    +0.008 A 
ATOM     36  C   UNL     1      -6.291  -0.370   2.434  0.00  0.00    -0.017 A 
ATOM     37  C   UNL     1      -5.535   0.810   2.445  0.00  0.00    +0.020 A 
ENDBRANCH  26  28
ENDBRANCH   5  26
TORSDOF 5
