REMARK  Name = ZINC50684581
REMARK  8 active torsions:
REMARK  status: ('A' for Active; 'I' for Inactive)
REMARK    1  A    between atoms: C_1  and  C_2
REMARK    2  A    between atoms: C_2  and  C_3
REMARK    3  A    between atoms: C_2  and  S_4
REMARK    4  A    between atoms: S_4  and  C_7
REMARK    5  A    between atoms: C_10  and  C_13
REMARK    6  A    between atoms: C_15  and  C_16
REMARK    7  A    between atoms: C_15  and  C_18
REMARK    8  A    between atoms: N_20  and  C_21
REMARK                            x       y       z     vdW  Elec       q    Type
REMARK                         _______ _______ _______ _____ _____    ______ ____
ROOT
ATOM      1  C   UNL     1      -1.143  -6.593   0.483  0.00  0.00    +0.208 C 
ATOM      2  O   UNL     1      -1.162  -7.361  -0.625  0.00  0.00    -0.286 OA
ATOM      3  C   UNL     1      -1.004  -7.181   1.734  0.00  0.00    +0.160 C 
ENDROOT
BRANCH   1   7
ATOM      4  C   UNL     1      -1.504  -2.378   0.151  0.00  0.00    +0.088 A 
ATOM      5  C   UNL     1      -2.388  -3.201  -0.527  0.00  0.00    +0.027 A 
ATOM      6  C   UNL     1      -2.276  -4.571  -0.424  0.00  0.00    +0.013 A 
ATOM      7  C   UNL     1      -1.268  -5.130   0.368  0.00  0.00    +0.023 A 
ATOM      8  C   UNL     1      -0.379  -4.292   1.049  0.00  0.00    +0.013 A 
ATOM      9  C   UNL     1      -0.500  -2.924   0.932  0.00  0.00    +0.027 A 
BRANCH   4  10
ATOM     10  S   UNL     1      -1.655  -0.628   0.013  0.00  0.00    -0.001 S 
ATOM     11  O   UNL     1      -1.081  -0.119   1.209  0.00  0.00    -0.169 OA
ATOM     12  O   UNL     1      -3.026  -0.404  -0.285  0.00  0.00    -0.169 OA
BRANCH  10  14
ATOM     13  C   UNL     1      -0.580   1.340  -1.553  0.00  0.00    +0.032 C 
ATOM     14  C   UNL     1      -0.625  -0.182  -1.412  0.00  0.00    +0.130 C 
ATOM     15  C   UNL     1       0.794  -0.717  -1.203  0.00  0.00    +0.032 C 
ENDBRANCH  10  14
ENDBRANCH   4  10
ENDBRANCH   1   7
BRANCH   3  16
ATOM     16  C   UNL     1      -0.758  -8.623   1.842  0.00  0.00    +0.258 C 
ATOM     17  O   UNL     1      -0.676  -9.304   0.837  0.00  0.00    -0.269 OA
ATOM     18  N   UNL     1      -0.624  -9.194   3.056  0.00  0.00    -0.308 N 
ATOM     19  H   UNL     1      -0.690  -8.651   3.857  0.00  0.00    +0.149 HD
BRANCH  18  20
ATOM     20  C   UNL     1      -0.379 -10.634   3.164  0.00  0.00    +0.073 C 
ATOM     21  C   UNL     1      -1.712 -11.383   3.122  0.00  0.00    +0.022 C 
ATOM     22  C   UNL     1      -1.456 -12.887   3.236  0.00  0.00    +0.002 C 
ATOM     23  C   UNL     1      -0.746 -13.185   4.557  0.00  0.00    +0.000 C 
ATOM     24  C   UNL     1       0.588 -12.436   4.600  0.00  0.00    +0.002 C 
ATOM     25  C   UNL     1       0.332 -10.932   4.486  0.00  0.00    +0.022 C 
ENDBRANCH  18  20
ENDBRANCH   3  16
BRANCH   3  26
ATOM     26  C   UNL     1      -1.101  -6.380   2.917  0.00  0.00    +0.108 C 
ATOM     27  N   UNL     1      -1.178  -5.744   3.855  0.00  0.00    -0.191 NA
ENDBRANCH   3  26
TORSDOF 6
