REMARK  Name = ZINC13636535
REMARK  7 active torsions:
REMARK  status: ('A' for Active; 'I' for Inactive)
REMARK    1  A    between atoms: C_1  and  C_2
REMARK    2  A    between atoms: C_3  and  C_9
REMARK    3  A    between atoms: C_4  and  C_8
REMARK    4  A    between atoms: C_9  and  N_10
REMARK    5  A    between atoms: N_10  and  C_11
REMARK    6  A    between atoms: C_11  and  C_12
REMARK    7  A    between atoms: C_13  and  C_22
REMARK                            x       y       z     vdW  Elec       q    Type
REMARK                         _______ _______ _______ _____ _____    ______ ____
ROOT
ATOM      1  C   UNL     1       2.777   0.480  -4.880  0.00  0.00    +0.039 A 
ATOM      2  C   UNL     1       3.529   1.617  -4.793  0.00  0.00    +0.146 A 
ATOM      3  N   UNL     1       4.734   1.366  -5.337  0.00  0.00    -0.223 NA
ATOM      4  C   UNL     1       4.763   0.113  -5.760  0.00  0.00    +0.139 A 
ATOM      5  N   UNL     1       3.551  -0.466  -5.481  0.00  0.00    -0.303 N 
ATOM      6  C   UNL     1       3.316  -1.772  -5.813  0.00  0.00    +0.113 A 
ATOM      7  C   UNL     1       4.271  -2.510  -6.416  0.00  0.00    +0.058 A 
ATOM      8  C   UNL     1       5.524  -1.945  -6.712  0.00  0.00    +0.025 A 
ATOM      9  C   UNL     1       5.769  -0.647  -6.395  0.00  0.00    +0.048 A 
ATOM     10 CL   UNL     1       3.950  -4.166  -6.829  0.00  0.00    -0.082 Cl
ENDROOT
BRANCH   2  11
ATOM     11  C   UNL     1       3.094   2.899  -4.205  0.00  0.00    +0.267 C 
ATOM     12  O   UNL     1       1.975   3.007  -3.742  0.00  0.00    -0.268 OA
ATOM     13  N   UNL     1       3.938   3.950  -4.182  0.00  0.00    -0.296 N 
ATOM     14  C   UNL     1       5.290   3.829  -4.745  0.00  0.00    +0.108 C 
ATOM     15  C   UNL     1       5.187   3.681  -6.258  0.00  0.00    +0.019 C 
ATOM     16  C   UNL     1       4.787   5.032  -6.872  0.00  0.00    +0.002 C 
ATOM     17  C   UNL     1       3.292   5.257  -6.674  0.00  0.00    +0.000 C 
ATOM     18  C   UNL     1       3.041   6.443  -5.724  0.00  0.00    +0.002 C 
ATOM     19  C   UNL     1       3.982   6.349  -4.523  0.00  0.00    +0.019 C 
ATOM     20  C   UNL     1       3.518   5.216  -3.605  0.00  0.00    +0.108 C 
ENDBRANCH   2  11
BRANCH   1  21
ATOM     21  C   UNL     1       1.361   0.303  -4.395  0.00  0.00    -0.025 C 
BRANCH  21  22
ATOM     22  N   UNL     1       1.375  -0.154  -2.999  0.00  0.00    +0.385 N 
ATOM     23  H   UNL     1       1.843   0.530  -2.426  0.00  0.00    -0.085 HD
ATOM     24  H   UNL     1       1.863  -1.035  -2.939  0.00  0.00    -0.085 HD
BRANCH  22  25
ATOM     25  C   UNL     1      -0.006  -0.327  -2.527  0.00  0.00    -0.043 C 
BRANCH  25  28
ATOM     26  C   UNL     1      -0.018   1.503   0.010  0.00  0.00    +0.065 C 
ATOM     27  C   UNL     1       0.002  -0.004   0.002  0.00  0.00    +0.035 A 
ATOM     28  C   UNL     1       0.008  -0.796  -1.095  0.00  0.00    -0.021 A 
ATOM     29  C   UNL     1       0.028  -2.127  -0.666  0.00  0.00    +0.061 A 
ATOM     30  N   UNL     1       0.035  -2.134   0.643  0.00  0.00    -0.179 NA
ATOM     31  N   UNL     1       0.024  -0.805   1.088  0.00  0.00    -0.281 N 
ATOM     32  H   UNL     1       0.029  -0.513   2.013  0.00  0.00    +0.189 HD
ATOM     33  C   UNL     1       0.040  -3.343  -1.556  0.00  0.00    +0.068 C 
ENDBRANCH  25  28
ENDBRANCH  22  25
ENDBRANCH  21  22
ENDBRANCH   1  21
TORSDOF 5
