REMARK  Name = ZINC16025224
REMARK  8 active torsions:
REMARK  status: ('A' for Active; 'I' for Inactive)
REMARK    1  A    between atoms: C_1  and  C_2
REMARK    2  A    between atoms: C_2  and  C_3
REMARK    3  A    between atoms: C_2  and  C_4
REMARK    4  A    between atoms: C_4  and  C_5
REMARK    5  A    between atoms: N_13  and  C_16
REMARK    6  A    between atoms: C_16  and  C_17
REMARK    7  A    between atoms: C_16  and  C_18
REMARK    8  A    between atoms: C_16  and  C_19
REMARK                            x       y       z     vdW  Elec       q    Type
REMARK                         _______ _______ _______ _____ _____    ______ ____
ROOT
ATOM      1  C   UNL     1      -1.405  -2.076   0.004  0.00  0.00    -0.057 C 
ATOM      2  C   UNL     1      -2.826  -2.643  -0.201  0.00  0.00    +0.073 C 
ATOM      3  C   UNL     1      -2.887  -3.903   0.708  0.00  0.00    +0.088 C 
ATOM      4  C   UNL     1      -3.933  -3.538   1.738  0.00  0.00    +0.225 C 
ATOM      5  O   UNL     1      -4.302  -4.252   2.645  0.00  0.00    -0.275 OA
ATOM      6  N   UNL     1      -4.387  -2.304   1.492  0.00  0.00    -0.236 N 
ATOM      7  C   UNL     1      -3.834  -1.700   0.415  0.00  0.00    +0.224 C 
ATOM      8  O   UNL     1      -4.095  -0.589   0.006  0.00  0.00    -0.275 OA
ATOM      9  C   UNL     1      -1.502  -3.974   1.362  0.00  0.00    +0.050 C 
ATOM     10  N   UNL     1      -0.973  -2.590   1.331  0.00  0.00    +0.394 N 
ATOM     11  C   UNL     1      -0.604  -4.944   0.647  0.00  0.00    -0.026 A 
ATOM     12  C   UNL     1      -0.142  -5.030  -0.647  0.00  0.00    +0.004 A 
ATOM     13  C   UNL     1       0.694  -6.069  -1.016  0.00  0.00    +0.002 A 
ATOM     14  C   UNL     1       1.064  -7.019  -0.082  0.00  0.00    +0.022 A 
ATOM     15  C   UNL     1       0.604  -6.936   1.216  0.00  0.00    +0.062 A 
ATOM     16  C   UNL     1      -0.239  -5.894   1.596  0.00  0.00    +0.054 A 
ATOM     17  N   UNL     1      -0.827  -5.597   2.828  0.00  0.00    -0.285 N 
ATOM     18  C   UNL     1      -1.585  -4.485   2.774  0.00  0.00    +0.211 C 
ATOM     19  O   UNL     1      -2.212  -3.991   3.688  0.00  0.00    -0.277 OA
ATOM     20 CL   UNL     1       1.076  -8.136   2.380  0.00  0.00    -0.082 Cl
ATOM     21  H   UNL     1       0.034  -2.598   1.395  0.00  0.00    -0.083 HD
ATOM     22  H   UNL     1      -0.705  -6.131   3.629  0.00  0.00    +0.155 HD
ATOM     23  H   UNL     1      -1.372  -2.033   2.072  0.00  0.00    -0.083 HD
ENDROOT
BRANCH   6  24
ATOM     24  C   UNL     1      -5.409  -1.657   2.318  0.00  0.00    +0.036 C 
ATOM     25  C   UNL     1      -4.903  -1.542   3.758  0.00  0.00    +0.031 C 
ATOM     26  C   UNL     1      -5.701  -0.259   1.768  0.00  0.00    +0.031 C 
ATOM     27  C   UNL     1      -6.690  -2.493   2.293  0.00  0.00    +0.031 C 
ENDBRANCH   6  24
BRANCH   1  28
ATOM     28  C   UNL     1      -1.439  -0.546   0.011  0.00  0.00    -0.012 C 
BRANCH  28  30
ATOM     29  C   UNL     1       0.821  -0.371  -1.042  0.00  0.00    +0.007 C 
ATOM     30  C   UNL     1      -0.018  -0.005   0.185  0.00  0.00    -0.019 C 
ATOM     31  C   UNL     1      -0.067   1.516   0.334  0.00  0.00    +0.007 C 
ENDBRANCH  28  30
ENDBRANCH   1  28
TORSDOF 3
