REMARK  Name = ZINC03843497
REMARK  6 active torsions:
REMARK  status: ('A' for Active; 'I' for Inactive)
REMARK    1  A    between atoms: C_3  and  O_20
REMARK    2  A    between atoms: C_4  and  C_9
REMARK    3  A    between atoms: C_5  and  O_8
REMARK    4  A    between atoms: C_9  and  C_10
REMARK    5  A    between atoms: C_11  and  O_19
REMARK    6  A    between atoms: C_15  and  O_16
REMARK                            x       y       z     vdW  Elec       q    Type
REMARK                         _______ _______ _______ _____ _____    ______ ____
ROOT
ATOM      1  C   UNL     1       1.171  -2.645   0.075  0.00  0.00    +0.085 C 
ENDROOT
BRANCH   1   5
ATOM      2  C   UNL     1       1.364   1.560   0.848  0.00  0.00    +0.047 A 
ATOM      3  C   UNL     1       2.530   0.823   0.740  0.00  0.00    +0.084 A 
ATOM      4  C   UNL     1       2.469  -0.541   0.490  0.00  0.00    +0.142 A 
ATOM      5  C   UNL     1       1.239  -1.165   0.347  0.00  0.00    +0.043 A 
ATOM      6  C   UNL     1       0.072  -0.424   0.455  0.00  0.00    +0.142 A 
ATOM      7  C   UNL     1       0.137   0.940   0.706  0.00  0.00    +0.084 A 
ATOM      8 CL   UNL     1      -1.325   1.867   0.840  0.00  0.00    -0.080 Cl
ATOM      9 CL   UNL     1       4.069   1.603   0.926  0.00  0.00    -0.080 Cl
BRANCH   6  10
ATOM     10  O   UNL     1      -1.135  -1.034   0.315  0.00  0.00    -0.505 OA
ATOM     11  H   UNL     1      -1.505  -1.369   1.143  0.00  0.00    +0.292 HD
ENDBRANCH   6  10
BRANCH   4  12
ATOM     12  O   UNL     1       3.615  -1.265   0.385  0.00  0.00    -0.505 OA
ATOM     13  H   UNL     1       3.969  -1.565   1.233  0.00  0.00    +0.292 HD
ENDBRANCH   4  12
ENDBRANCH   1   5
BRANCH   1  14
ATOM     14  C   UNL     1       1.326  -2.892  -1.403  0.00  0.00    +0.043 A 
ATOM     15  C   UNL     1       0.222  -2.820  -2.239  0.00  0.00    +0.142 A 
ATOM     16  C   UNL     1       0.368  -3.043  -3.601  0.00  0.00    +0.084 A 
ATOM     17  C   UNL     1       1.611  -3.347  -4.124  0.00  0.00    +0.047 A 
ATOM     18  C   UNL     1       2.712  -3.426  -3.291  0.00  0.00    +0.084 A 
ATOM     19  C   UNL     1       2.571  -3.198  -1.929  0.00  0.00    +0.142 A 
ATOM     20 CL   UNL     1       4.272  -3.808  -3.950  0.00  0.00    -0.080 Cl
ATOM     21 CL   UNL     1      -1.013  -2.944  -4.649  0.00  0.00    -0.080 Cl
BRANCH  19  22
ATOM     22  O   UNL     1       3.655  -3.274  -1.111  0.00  0.00    -0.505 OA
ATOM     23  H   UNL     1       3.811  -4.156  -0.747  0.00  0.00    +0.292 HD
ENDBRANCH  19  22
BRANCH  15  24
ATOM     24  O   UNL     1      -1.002  -2.526  -1.725  0.00  0.00    -0.505 OA
ATOM     25  H   UNL     1      -1.240  -1.591  -1.786  0.00  0.00    +0.292 HD
ENDBRANCH  15  24
ENDBRANCH   1  14
TORSDOF 6
