REMARK  Name = ZINC13417912
REMARK  8 active torsions:
REMARK  status: ('A' for Active; 'I' for Inactive)
REMARK    1  A    between atoms: C_1  and  C_2
REMARK    2  A    between atoms: N_7  and  C_10
REMARK    3  A    between atoms: C_10  and  C_12
REMARK    4  A    between atoms: C_10  and  C_13
REMARK    5  A    between atoms: N_15  and  C_16
REMARK    6  A    between atoms: C_16  and  C_17
REMARK    7  A    between atoms: C_17  and  C_18
REMARK    8  A    between atoms: C_25  and  C_26
REMARK                            x       y       z     vdW  Elec       q    Type
REMARK                         _______ _______ _______ _____ _____    ______ ____
ROOT
ATOM      1  C   UNL     1       2.546  10.810  -7.916  0.00  0.00    +0.046 C 
ATOM      2  C   UNL     1       3.340   9.586  -8.290  0.00  0.00    -0.015 A 
ATOM      3  C   UNL     1       2.865   8.315  -7.960  0.00  0.00    +0.076 A 
ATOM      4  C   UNL     1       3.681   7.230  -8.355  0.00  0.00    +0.116 A 
ATOM      5  N   UNL     1       3.344   5.972  -8.101  0.00  0.00    -0.230 NA
ATOM      6  C   UNL     1       2.239   5.673  -7.473  0.00  0.00    +0.204 A 
ATOM      7  N   UNL     1       1.377   6.627  -7.045  0.00  0.00    -0.287 N 
ATOM      8  C   UNL     1       1.619   7.936  -7.254  0.00  0.00    +0.263 A 
ATOM      9  O   UNL     1       0.835   8.786  -6.870  0.00  0.00    -0.267 OA
ATOM     10  S   UNL     1       5.052   8.022  -9.157  0.00  0.00    -0.062 S 
ATOM     11  C   UNL     1       4.526   9.716  -8.954  0.00  0.00    +0.106 A 
ENDROOT
BRANCH  11  12
ATOM     12  C   UNL     1       5.198  10.941  -9.393  0.00  0.00    +0.393 C 
ATOM     13  O   UNL     1       4.693  12.024  -9.171  0.00  0.00    -0.240 OA
ATOM     14  O   UNL     1       6.378  10.867 -10.043  0.00  0.00    -0.240 OA
ENDBRANCH  11  12
BRANCH   7  15
ATOM     15  C   UNL     1       0.154   6.227  -6.346  0.00  0.00    +0.174 C 
ATOM     16  C   UNL     1      -0.690   5.337  -7.261  0.00  0.00    +0.041 C 
BRANCH  15  17
ATOM     17  C   UNL     1       0.515   5.464  -5.098  0.00  0.00    +0.236 C 
ATOM     18  O   UNL     1       1.680   5.273  -4.820  0.00  0.00    -0.274 OA
ATOM     19  N   UNL     1      -0.456   4.993  -4.290  0.00  0.00    -0.313 N 
ATOM     20  H   UNL     1      -1.388   5.146  -4.513  0.00  0.00    +0.149 HD
BRANCH  19  21
ATOM     21  C   UNL     1      -0.104   4.251  -3.077  0.00  0.00    +0.108 C 
BRANCH  21  22
ATOM     22  C   UNL     1      -1.382   3.833  -2.347  0.00  0.00    +0.049 C 
BRANCH  22  23
ATOM     23  C   UNL     1      -1.020   3.070  -1.099  0.00  0.00    -0.072 C 
ATOM     24  C   UNL     1      -0.952   3.725   0.015  0.00  0.00    -0.028 C 
ATOM     25  C   UNL     1      -0.595   3.106   1.335  0.00  0.00    +0.027 C 
ATOM     26  C   UNL     1      -0.739   1.585   1.264  0.00  0.00    +0.004 C 
ATOM     27  C   UNL     1      -0.013   1.086   0.008  0.00  0.00    +0.005 C 
ATOM     28  C   UNL     1      -0.761   1.597  -1.225  0.00  0.00    +0.030 C 
ENDBRANCH  22  23
ENDBRANCH  21  22
ENDBRANCH  19  21
ENDBRANCH  15  17
ENDBRANCH   7  15
TORSDOF 6
