REMARK  Name = ZINC27015404
REMARK  5 active torsions:
REMARK  status: ('A' for Active; 'I' for Inactive)
REMARK    1  A    between atoms: C_1  and  C_2
REMARK    2  A    between atoms: C_9  and  C_22
REMARK    3  A    between atoms: C_10  and  N_11
REMARK    4  A    between atoms: C_12  and  C_14
REMARK    5  A    between atoms: C_15  and  C_16
REMARK                            x       y       z     vdW  Elec       q    Type
REMARK                         _______ _______ _______ _____ _____    ______ ____
ROOT
ATOM      1  C   UNL     1      -0.906  -8.771  -0.385  0.00  0.00    +0.047 C 
ATOM      2  C   UNL     1      -0.499  -7.325  -0.265  0.00  0.00    -0.008 A 
ATOM      3  C   UNL     1       0.816  -6.986  -0.198  0.00  0.00    +0.008 A 
ATOM      4  C   UNL     1       1.183  -5.634  -0.086  0.00  0.00    +0.018 A 
ATOM      5  C   UNL     1       0.238  -4.673  -0.045  0.00  0.00    +0.094 A 
ATOM      6  N   UNL     1      -1.089  -4.997  -0.112  0.00  0.00    -0.287 N 
ATOM      7  C   UNL     1      -1.479  -6.311  -0.221  0.00  0.00    +0.143 A 
ATOM      8  N   UNL     1      -2.801  -6.357  -0.267  0.00  0.00    -0.226 NA
ATOM      9  C   UNL     1      -3.292  -5.108  -0.184  0.00  0.00    +0.112 A 
ATOM     10  C   UNL     1      -2.226  -4.236  -0.092  0.00  0.00    +0.138 A 
ENDROOT
BRANCH   9  11
ATOM     11  C   UNL     1      -4.725  -4.733  -0.195  0.00  0.00    +0.004 A 
ATOM     12  C   UNL     1      -5.173  -3.657   0.571  0.00  0.00    +0.010 A 
ATOM     13  C   UNL     1      -6.508  -3.309   0.553  0.00  0.00    +0.001 A 
ATOM     14  C   UNL     1      -7.404  -4.032  -0.214  0.00  0.00    +0.000 A 
ATOM     15  C   UNL     1      -6.966  -5.104  -0.972  0.00  0.00    +0.001 A 
ATOM     16  C   UNL     1      -5.633  -5.458  -0.966  0.00  0.00    +0.010 A 
ENDBRANCH   9  11
BRANCH  10  17
ATOM     17  N   UNL     1      -2.295  -2.847   0.009  0.00  0.00    -0.266 N 
ATOM     18  C   UNL     1      -1.349  -2.174   0.694  0.00  0.00    +0.242 C 
ATOM     19  O   UNL     1      -0.501  -2.783   1.321  0.00  0.00    -0.270 OA
ATOM     20  H   UNL     1      -3.120  -2.301  -0.471  0.00  0.00    +0.157 HD
BRANCH  18  21
ATOM     21  C   UNL     1      -1.343  -0.710   0.686  0.00  0.00    +0.068 C 
ATOM     22  C   UNL     1      -0.397  -0.036   1.371  0.00  0.00    +0.013 C 
BRANCH  22  23
ATOM     23  C   UNL     1      -0.391   1.436   1.363  0.00  0.00    -0.025 A 
ATOM     24  C   UNL     1      -1.360   2.139   0.640  0.00  0.00    +0.008 A 
ATOM     25  C   UNL     1      -1.350   3.518   0.642  0.00  0.00    +0.001 A 
ATOM     26  C   UNL     1      -0.378   4.206   1.347  0.00  0.00    +0.000 A 
ATOM     27  C   UNL     1       0.588   3.517   2.060  0.00  0.00    +0.001 A 
ATOM     28  C   UNL     1       0.588   2.138   2.073  0.00  0.00    +0.008 A 
ENDBRANCH  22  23
ENDBRANCH  18  21
ENDBRANCH  10  17
TORSDOF 4
