REMARK  Name = ZINC08838852
REMARK  5 active torsions:
REMARK  status: ('A' for Active; 'I' for Inactive)
REMARK    1  A    between atoms: C_4  and  S_7
REMARK    2  A    between atoms: S_7  and  N_10
REMARK    3  A    between atoms: N_10  and  C_11
REMARK    4  A    between atoms: C_11  and  C_12
REMARK    5  A    between atoms: N_15  and  C_19
REMARK                            x       y       z     vdW  Elec       q    Type
REMARK                         _______ _______ _______ _____ _____    ______ ____
ROOT
ATOM      1  C   UNL     1      -4.767   4.384   0.066  0.00  0.00    +0.211 C 
ATOM      2  C   UNL     1      -3.795   3.189   0.046  0.00  0.00    +0.163 C 
ATOM      3  N   UNL     1      -2.466   3.819   0.044  0.00  0.00    -0.234 N 
ATOM      4  C   UNL     1      -2.616   5.150   0.051  0.00  0.00    +0.408 C 
ATOM      5  O   UNL     1      -1.679   5.924   0.047  0.00  0.00    -0.226 OA
ATOM      6  O   UNL     1      -3.893   5.550   0.064  0.00  0.00    -0.444 OA
ENDROOT
BRANCH   3   7
ATOM      7  C   UNL     1      -1.241   3.137   0.029  0.00  0.00    +0.043 A 
ATOM      8  C   UNL     1      -1.219   1.749   0.017  0.00  0.00    +0.027 A 
ATOM      9  C   UNL     1      -0.013   1.076   0.008  0.00  0.00    +0.051 A 
ATOM     10  C   UNL     1       1.179   1.784   0.000  0.00  0.00    +0.166 A 
ATOM     11  C   UNL     1       1.160   3.176   0.008  0.00  0.00    +0.168 A 
ATOM     12  C   UNL     1      -0.050   3.850   0.022  0.00  0.00    +0.073 A 
ATOM     13  O   UNL     1       2.447   3.630  -0.002  0.00  0.00    -0.453 OA
ATOM     14  C   UNL     1       3.254   2.507   0.397  0.00  0.00    +0.466 C 
ATOM     15  O   UNL     1       2.479   1.365  -0.014  0.00  0.00    -0.453 OA
ENDBRANCH   3   7
BRANCH   1  16
ATOM     16  C   UNL     1      -5.630   4.363   1.329  0.00  0.00    +0.152 C 
BRANCH  16  17
ATOM     17  N   UNL     1      -6.561   5.493   1.304  0.00  0.00    -0.186 NA
ATOM     18  H   UNL     1      -6.420   6.224   0.682  0.00  0.00    +0.148 HD
BRANCH  17  19
ATOM     19  S   UNL     1      -7.856   5.523   2.337  0.00  0.00    +0.059 S 
ATOM     20  O   UNL     1      -8.543   6.742   2.091  0.00  0.00    -0.153 OA
ATOM     21  O   UNL     1      -8.490   4.256   2.230  0.00  0.00    -0.153 OA
BRANCH  19  25
ATOM     22  C   UNL     1      -6.207   5.794   6.543  0.00  0.00    +0.000 A 
ATOM     23  C   UNL     1      -6.484   6.948   5.834  0.00  0.00    +0.002 A 
ATOM     24  C   UNL     1      -6.987   6.865   4.549  0.00  0.00    +0.028 A 
ATOM     25  C   UNL     1      -7.213   5.629   3.974  0.00  0.00    +0.105 A 
ATOM     26  C   UNL     1      -6.941   4.475   4.685  0.00  0.00    +0.028 A 
ATOM     27  C   UNL     1      -6.433   4.558   5.968  0.00  0.00    +0.002 A 
ENDBRANCH  19  25
ENDBRANCH  17  19
ENDBRANCH  16  17
ENDBRANCH   1  16
TORSDOF 5
