REMARK  Name = ZINC01366115
REMARK  7 active torsions:
REMARK  status: ('A' for Active; 'I' for Inactive)
REMARK    1  A    between atoms: C_1  and  C_2
REMARK    2  A    between atoms: N_10  and  C_11
REMARK    3  A    between atoms: C_13  and  S_16
REMARK    4  A    between atoms: S_16  and  C_17
REMARK    5  A    between atoms: C_17  and  C_18
REMARK    6  A    between atoms: N_20  and  C_21
REMARK    7  A    between atoms: C_27  and  C_29
REMARK                            x       y       z     vdW  Elec       q    Type
REMARK                         _______ _______ _______ _____ _____    ______ ____
ROOT
ATOM      1  C   UNL     1      -0.818  11.316   0.078  0.00  0.00    +0.044 C 
ATOM      2  C   UNL     1       0.241  10.244   0.060  0.00  0.00    -0.050 A 
ATOM      3  C   UNL     1       1.581  10.597   0.050  0.00  0.00    +0.005 A 
ATOM      4  C   UNL     1       2.561   9.627   0.034  0.00  0.00    +0.027 A 
ATOM      5  C   UNL     1       2.210   8.281   0.028  0.00  0.00    +0.053 A 
ATOM      6  C   UNL     1       0.852   7.926   0.039  0.00  0.00    +0.029 A 
ATOM      7  C   UNL     1      -0.128   8.915   0.054  0.00  0.00    +0.015 A 
ATOM      8  C   UNL     1       0.808   6.453   0.030  0.00  0.00    +0.138 A 
ATOM      9  C   UNL     1       2.150   6.017   0.015  0.00  0.00    +0.165 A 
ATOM     10  N   UNL     1       2.966   7.120   0.014  0.00  0.00    -0.327 N 
ATOM     11  C   UNL     1       4.431   7.077  -0.001  0.00  0.00    +0.151 C 
ATOM     12  N   UNL     1       2.388   4.709   0.010  0.00  0.00    -0.201 NA
ATOM     13  C   UNL     1       1.366   3.863   0.010  0.00  0.00    +0.212 A 
ATOM     14  N   UNL     1       0.111   4.298   0.024  0.00  0.00    -0.122 NA
ATOM     15  N   UNL     1      -0.168   5.557   0.034  0.00  0.00    -0.143 NA
ENDROOT
BRANCH  13  16
ATOM     16  S   UNL     1       1.680   2.129  -0.003  0.00  0.00    -0.075 S 
BRANCH  16  17
ATOM     17  C   UNL     1      -0.018   1.503   0.010  0.00  0.00    +0.173 C 
BRANCH  17  18
ATOM     18  C   UNL     1       0.002  -0.004   0.002  0.00  0.00    +0.224 C 
ATOM     19  O   UNL     1       1.060  -0.596  -0.011  0.00  0.00    -0.275 OA
ATOM     20  N   UNL     1      -1.156  -0.694   0.009  0.00  0.00    -0.312 N 
ATOM     21  H   UNL     1      -2.002  -0.220   0.020  0.00  0.00    +0.149 HD
BRANCH  20  22
ATOM     22  C   UNL     1      -1.136  -2.159   0.001  0.00  0.00    +0.076 C 
ATOM     23  C   UNL     1      -0.990  -2.675   1.434  0.00  0.00    +0.022 C 
ATOM     24  C   UNL     1      -2.170  -2.185   2.276  0.00  0.00    +0.002 C 
ATOM     25  C   UNL     1      -3.476  -2.710   1.676  0.00  0.00    +0.000 C 
ATOM     26  C   UNL     1      -3.623  -2.194   0.243  0.00  0.00    +0.005 C 
ATOM     27  C   UNL     1      -2.442  -2.683  -0.599  0.00  0.00    +0.006 C 
ATOM     28  C   UNL     1      -2.588  -2.167  -2.032  0.00  0.00    +0.009 C 
ENDBRANCH  20  22
ENDBRANCH  17  18
ENDBRANCH  16  17
ENDBRANCH  13  16
TORSDOF 4
