REMARK  Name = ZINC08896914
REMARK  11 active torsions:
REMARK  status: ('A' for Active; 'I' for Inactive)
REMARK    1  A    between atoms: C_1  and  C_2
REMARK    2  A    between atoms: C_5  and  C_8
REMARK    3  A    between atoms: C_12  and  S_14
REMARK    4  A    between atoms: S_14  and  C_15
REMARK    5  A    between atoms: C_15  and  C_16
REMARK    6  A    between atoms: N_18  and  C_19
REMARK    7  A    between atoms: C_19  and  C_20
REMARK    8  A    between atoms: C_19  and  C_21
REMARK    9  A    between atoms: C_19  and  C_22
REMARK   10  A    between atoms: N_25  and  C_30
REMARK   11  A    between atoms: N_28  and  C_29
REMARK                            x       y       z     vdW  Elec       q    Type
REMARK                         _______ _______ _______ _____ _____    ______ ____
ROOT
ATOM      1  C   UNL     1      -2.799   4.033   4.888  0.00  0.00    +0.163 A 
ATOM      2  N   UNL     1      -2.638   2.740   4.626  0.00  0.00    -0.209 NA
ATOM      3  C   UNL     1      -2.013   2.350   3.526  0.00  0.00    +0.154 A 
ATOM      4  C   UNL     1      -1.522   3.328   2.639  0.00  0.00    +0.114 A 
ATOM      5  C   UNL     1      -1.712   4.684   2.951  0.00  0.00    +0.116 A 
ATOM      6  N   UNL     1      -2.352   4.985   4.080  0.00  0.00    -0.220 NA
ATOM      7  C   UNL     1      -0.826   2.887   1.427  0.00  0.00    +0.268 A 
ATOM      8  O   UNL     1      -0.380   3.694   0.633  0.00  0.00    -0.267 OA
ATOM      9  N   UNL     1      -0.698   1.558   1.213  0.00  0.00    -0.263 N 
ATOM     10  C   UNL     1      -1.184   0.664   2.089  0.00  0.00    +0.333 A 
ATOM     11  O   UNL     1      -1.037  -0.519   1.853  0.00  0.00    -0.246 OA
ATOM     12  N   UNL     1      -1.824   1.020   3.217  0.00  0.00    -0.281 N 
ATOM     13  C   UNL     1      -2.325  -0.015   4.124  0.00  0.00    +0.155 C 
ATOM     14  C   UNL     1      -0.013   1.086   0.008  0.00  0.00    +0.157 C 
ENDROOT
BRANCH   1  19
ATOM     15  C   UNL     1      -5.539   5.559   9.716  0.00  0.00    +0.044 C 
ATOM     16  C   UNL     1      -4.822   5.160   8.452  0.00  0.00    -0.050 A 
ATOM     17  C   UNL     1      -4.346   6.134   7.593  0.00  0.00    +0.004 A 
ATOM     18  C   UNL     1      -3.688   5.774   6.434  0.00  0.00    +0.012 A 
ATOM     19  C   UNL     1      -3.503   4.426   6.131  0.00  0.00    +0.019 A 
ATOM     20  C   UNL     1      -3.990   3.449   6.998  0.00  0.00    +0.012 A 
ATOM     21  C   UNL     1      -4.641   3.821   8.156  0.00  0.00    +0.004 A 
ENDBRANCH   1  19
BRANCH   5  22
ATOM     22  S   UNL     1      -1.121   5.952   1.879  0.00  0.00    -0.096 S 
BRANCH  22  23
ATOM     23  C   UNL     1      -1.655   7.415   2.800  0.00  0.00    +0.171 C 
BRANCH  23  24
ATOM     24  C   UNL     1      -1.245   8.657   2.051  0.00  0.00    +0.224 C 
ATOM     25  O   UNL     1      -0.650   8.562   0.998  0.00  0.00    -0.275 OA
ATOM     26  N   UNL     1      -1.540   9.874   2.550  0.00  0.00    -0.310 N 
ATOM     27  H   UNL     1      -2.015   9.950   3.393  0.00  0.00    +0.149 HD
BRANCH  26  28
ATOM     28  C   UNL     1      -1.141  11.081   1.822  0.00  0.00    +0.026 C 
ATOM     29  C   UNL     1      -1.795  11.081   0.439  0.00  0.00    +0.031 C 
ATOM     30  C   UNL     1      -1.593  12.318   2.600  0.00  0.00    +0.031 C 
ATOM     31  C   UNL     1       0.381  11.104   1.666  0.00  0.00    +0.031 C 
ENDBRANCH  26  28
ENDBRANCH  23  24
ENDBRANCH  22  23
ENDBRANCH   5  22
TORSDOF 5
