REMARK  Name = ZINC07090801
REMARK  7 active torsions:
REMARK  status: ('A' for Active; 'I' for Inactive)
REMARK    1  A    between atoms: C_1  and  C_2
REMARK    2  A    between atoms: C_3  and  C_8
REMARK    3  A    between atoms: C_5  and  C_7
REMARK    4  A    between atoms: C_8  and  O_10
REMARK    5  A    between atoms: O_10  and  C_11
REMARK    6  A    between atoms: C_11  and  C_12
REMARK    7  A    between atoms: C_25  and  C_27
REMARK                            x       y       z     vdW  Elec       q    Type
REMARK                         _______ _______ _______ _____ _____    ______ ____
ROOT
ATOM      1  C   UNL     1      -0.439   5.973  -0.969  0.00  0.00    +0.258 C 
ATOM      2  O   UNL     1      -0.443   7.185  -0.907  0.00  0.00    -0.271 OA
ATOM      3  N   UNL     1      -0.070   5.245   0.103  0.00  0.00    -0.264 N 
ATOM      4  C   UNL     1      -0.062   3.845   0.046  0.00  0.00    +0.058 A 
ATOM      5  C   UNL     1      -1.249   3.131   0.040  0.00  0.00    +0.025 A 
ATOM      6  C   UNL     1      -1.221   1.748   0.017  0.00  0.00    +0.002 A 
ATOM      7  C   UNL     1      -0.013   1.076   0.008  0.00  0.00    +0.002 A 
ATOM      8  C   UNL     1       1.177   1.781   0.000  0.00  0.00    +0.025 A 
ATOM      9  C   UNL     1       1.157   3.166   0.015  0.00  0.00    +0.055 A 
ATOM     10  N   UNL     1       2.346   3.902  -0.025  0.00  0.00    -0.284 N 
ATOM     11  C   UNL     1       2.556   4.916   0.844  0.00  0.00    +0.219 C 
ATOM     12  O   UNL     1       3.554   5.597   0.745  0.00  0.00    -0.275 OA
ATOM     13  C   UNL     1       1.558   5.205   1.933  0.00  0.00    +0.118 C 
ATOM     14  C   UNL     1       0.328   5.902   1.349  0.00  0.00    +0.087 C 
ATOM     15  C   UNL     1      -0.824   5.827   2.353  0.00  0.00    +0.029 C 
ATOM     16  H   UNL     1       3.026   3.683  -0.681  0.00  0.00    +0.155 HD
ENDROOT
BRANCH   1  17
ATOM     17  C   UNL     1      -0.847   5.283  -2.245  0.00  0.00    +0.328 C 
BRANCH  17  18
ATOM     18  O   UNL     1      -1.196   6.277  -3.243  0.00  0.00    -0.451 OA
BRANCH  18  19
ATOM     19  C   UNL     1      -1.586   5.821  -4.451  0.00  0.00    +0.348 C 
ATOM     20  O   UNL     1      -1.633   4.625  -4.664  0.00  0.00    -0.244 OA
BRANCH  19  23
ATOM     21  C   UNL     1      -2.524   5.122  -7.332  0.00  0.00    +0.067 C 
ATOM     22  C   UNL     1      -2.378   6.527  -6.807  0.00  0.00    +0.060 A 
ATOM     23  C   UNL     1      -1.954   6.768  -5.508  0.00  0.00    +0.119 A 
ATOM     24  S   UNL     1      -1.989   8.554  -5.480  0.00  0.00    -0.066 S 
ATOM     25  C   UNL     1      -2.526   8.795  -7.114  0.00  0.00    +0.076 A 
ATOM     26  N   UNL     1      -2.648   7.562  -7.560  0.00  0.00    -0.249 NA
ATOM     27  C   UNL     1      -2.791  10.089  -7.838  0.00  0.00    +0.073 C 
ENDBRANCH  19  23
ENDBRANCH  18  19
ENDBRANCH  17  18
ENDBRANCH   1  17
TORSDOF 4
