REMARK  Name = ZINC14482565
REMARK  8 active torsions:
REMARK  status: ('A' for Active; 'I' for Inactive)
REMARK    1  A    between atoms: C_4  and  N_7
REMARK    2  A    between atoms: C_9  and  C_21
REMARK    3  A    between atoms: C_10  and  C_12
REMARK    4  A    between atoms: C_15  and  N_18
REMARK    5  A    between atoms: C_21  and  C_22
REMARK    6  A    between atoms: N_24  and  C_25
REMARK    7  A    between atoms: C_30  and  C_31
REMARK    8  A    between atoms: C_30  and  N_60
REMARK                            x       y       z     vdW  Elec       q    Type
REMARK                         _______ _______ _______ _____ _____    ______ ____
ROOT
ATOM      1  N   UNL     1      -1.612   2.712   3.200  0.00  0.00    -0.239 N 
ATOM      2  C   UNL     1      -1.617   2.297   1.906  0.00  0.00    +0.119 A 
ATOM      3  C   UNL     1      -0.347   1.992   1.563  0.00  0.00    +0.007 A 
ATOM      4  C   UNL     1       0.474   2.234   2.683  0.00  0.00    +0.097 A 
ATOM      5  N   UNL     1      -0.291   2.666   3.663  0.00  0.00    -0.166 NA
ENDROOT
BRANCH   1   9
ATOM      6  C   UNL     1      -4.939   3.923   5.397  0.00  0.00    +0.000 A 
ATOM      7  C   UNL     1      -3.687   3.927   5.983  0.00  0.00    +0.002 A 
ATOM      8  C   UNL     1      -2.582   3.526   5.258  0.00  0.00    +0.028 A 
ATOM      9  C   UNL     1      -2.730   3.119   3.938  0.00  0.00    +0.065 A 
ATOM     10  C   UNL     1      -3.989   3.121   3.351  0.00  0.00    +0.028 A 
ATOM     11  C   UNL     1      -5.090   3.518   4.084  0.00  0.00    +0.002 A 
ENDBRANCH   1   9
BRANCH   4  12
ATOM     12  C   UNL     1       1.943   2.036   2.745  0.00  0.00    +0.003 A 
ATOM     13  C   UNL     1       2.538   0.984   2.052  0.00  0.00    +0.012 A 
ATOM     14  C   UNL     1       3.905   0.808   2.110  0.00  0.00    +0.033 A 
ATOM     15  C   UNL     1       4.684   1.668   2.862  0.00  0.00    +0.126 A 
ATOM     16  C   UNL     1       4.099   2.711   3.557  0.00  0.00    +0.033 A 
ATOM     17  C   UNL     1       2.733   2.899   3.502  0.00  0.00    +0.012 A 
BRANCH  15  18
ATOM     18  N   UNL     1       6.150   1.471   2.925  0.00  0.00    +0.056 N 
ATOM     19  O   UNL     1       6.839   2.226   3.587  0.00  0.00    -0.126 OA
ATOM     20  O   UNL     1       6.668   0.553   2.314  0.00  0.00    -0.126 OA
ENDBRANCH  15  18
ENDBRANCH   4  12
BRANCH   3  21
ATOM     21  C   UNL     1       0.113   1.487   0.219  0.00  0.00    +0.134 C 
BRANCH  21  22
ATOM     22  C   UNL     1       0.185  -0.018   0.246  0.00  0.00    +0.218 C 
ATOM     23  O   UNL     1      -0.107  -0.621   1.256  0.00  0.00    -0.275 OA
ATOM     24  N   UNL     1       0.576  -0.693  -0.854  0.00  0.00    -0.312 N 
ATOM     25  H   UNL     1       0.809  -0.210  -1.662  0.00  0.00    +0.149 HD
BRANCH  24  26
ATOM     26  C   UNL     1       0.646  -2.156  -0.828  0.00  0.00    +0.069 C 
ATOM     27  C   UNL     1       2.002  -2.593  -0.267  0.00  0.00    +0.003 C 
ATOM     28  C   UNL     1       2.094  -4.120  -0.299  0.00  0.00    -0.076 C 
ATOM     29  C   UNL     1       0.627  -4.225  -2.226  0.00  0.00    -0.076 C 
ATOM     30  C   UNL     1       0.492  -2.701  -2.251  0.00  0.00    +0.003 C 
ATOM     31  N   UNL     1       1.962  -4.579  -1.699  0.00  0.00    +0.385 N 
ATOM     32  H   UNL     1       2.679  -4.117  -2.270  0.00  0.00    -0.081 HD
BRANCH  31  33
ATOM     33  C   UNL     1       2.161  -6.042  -1.771  0.00  0.00    +0.018 C 
BRANCH  33  34
ATOM     34  C   UNL     1       2.255  -6.447  -3.219  0.00  0.00    +0.194 C 
ATOM     35  O   UNL     1       2.263  -5.600  -4.087  0.00  0.00    -0.278 OA
ATOM     36  N   UNL     1       2.329  -7.752  -3.550  0.00  0.00    -0.331 N 
ATOM     37  H   UNL     1       2.323  -8.429  -2.856  0.00  0.00    +0.145 HD
ATOM     38  H   UNL     1       2.390  -8.013  -4.482  0.00  0.00    +0.145 HD
ENDBRANCH  33  34
ENDBRANCH  31  33
ENDBRANCH  24  26
ENDBRANCH  21  22
ENDBRANCH   3  21
TORSDOF 8
