REMARK  Name = ZINC39201115
REMARK  12 active torsions:
REMARK  status: ('A' for Active; 'I' for Inactive)
REMARK    1  A    between atoms: C_1  and  C_2
REMARK    2  A    between atoms: C_2  and  C_3
REMARK    3  A    between atoms: C_2  and  C_4
REMARK    4  A    between atoms: C_4  and  C_5
REMARK    5  A    between atoms: N_9  and  C_29
REMARK    6  A    between atoms: C_19  and  O_21
REMARK    7  A    between atoms: O_21  and  C_22
REMARK    8  A    between atoms: C_22  and  C_23
REMARK    9  A    between atoms: C_29  and  C_30
REMARK   10  A    between atoms: N_32  and  C_33
REMARK   11  A    between atoms: C_33  and  C_34
REMARK   12  A    between atoms: C_34  and  O_40
REMARK                            x       y       z     vdW  Elec       q    Type
REMARK                         _______ _______ _______ _____ _____    ______ ____
ROOT
ATOM      1  C   UNL     1      -0.161  -0.344   2.472  0.00  0.00    +0.164 C 
ATOM      2  C   UNL     1       0.509  -0.943   3.678  0.00  0.00    +0.237 C 
ATOM      3  O   UNL     1       0.488  -2.148   3.811  0.00  0.00    -0.274 OA
ATOM      4  N   UNL     1       1.127  -0.212   4.606  0.00  0.00    -0.288 N 
ATOM      5  C   UNL     1       1.157   1.245   4.625  0.00  0.00    +0.151 C 
ATOM      6  C   UNL     1       0.878   1.808   3.228  0.00  0.00    +0.187 C 
ATOM      7  N   UNL     1      -0.287   1.112   2.670  0.00  0.00    -0.270 N 
ATOM      8  C   UNL     1      -1.432   1.721   2.346  0.00  0.00    +0.219 C 
ATOM      9  O   UNL     1      -2.357   1.042   1.951  0.00  0.00    -0.275 OA
ATOM     10  C   UNL     1      -1.626   3.208   2.449  0.00  0.00    +0.115 C 
ATOM     11  C   UNL     1      -0.719   3.754   3.558  0.00  0.00    +0.122 C 
ATOM     12  N   UNL     1       0.632   3.244   3.323  0.00  0.00    -0.247 N 
ATOM     13  C   UNL     1       1.653   4.114   3.192  0.00  0.00    +0.405 C 
ATOM     14  O   UNL     1       2.780   3.704   2.996  0.00  0.00    -0.226 OA
ENDROOT
BRANCH   1  15
ATOM     15  C   UNL     1       0.683  -0.621   1.226  0.00  0.00    +0.035 C 
BRANCH  15  17
ATOM     16  C   UNL     1       0.839  -0.267  -1.243  0.00  0.00    +0.007 C 
ATOM     17  C   UNL     1      -0.064  -0.128  -0.015  0.00  0.00    -0.015 C 
ATOM     18  C   UNL     1      -1.329  -0.965  -0.215  0.00  0.00    +0.007 C 
ENDBRANCH  15  17
ENDBRANCH   1  15
BRANCH  13  19
ATOM     19  O   UNL     1       1.425   5.438   3.279  0.00  0.00    -0.445 OA
BRANCH  19  20
ATOM     20  C   UNL     1       2.553   6.303   3.131  0.00  0.00    +0.269 C 
BRANCH  20  21
ATOM     21  C   UNL     1       2.107   7.737   3.257  0.00  0.00    -0.010 A 
ATOM     22  C   UNL     1       1.708   8.438   2.135  0.00  0.00    +0.007 A 
ATOM     23  C   UNL     1       1.300   9.753   2.250  0.00  0.00    +0.000 A 
ATOM     24  C   UNL     1       1.289  10.367   3.489  0.00  0.00    +0.000 A 
ATOM     25  C   UNL     1       1.687   9.666   4.612  0.00  0.00    +0.000 A 
ATOM     26  C   UNL     1       2.092   8.349   4.497  0.00  0.00    +0.007 A 
ENDBRANCH  20  21
ENDBRANCH  19  20
ENDBRANCH  13  19
BRANCH   4  27
ATOM     27  C   UNL     1       1.822  -0.922   5.683  0.00  0.00    +0.203 C 
BRANCH  27  28
ATOM     28  C   UNL     1       3.249  -1.180   5.274  0.00  0.00    +0.231 C 
ATOM     29  O   UNL     1       3.647  -0.808   4.190  0.00  0.00    -0.274 OA
ATOM     30  N   UNL     1       4.084  -1.825   6.113  0.00  0.00    -0.311 N 
ATOM     31  H   UNL     1       3.767  -2.123   6.979  0.00  0.00    +0.149 HD
BRANCH  30  32
ATOM     32  C   UNL     1       5.472  -2.076   5.715  0.00  0.00    +0.139 C 
BRANCH  32  33
ATOM     33  C   UNL     1       6.198  -2.818   6.839  0.00  0.00    +0.081 C 
ATOM     34  C   UNL     1       6.071  -2.023   8.140  0.00  0.00    +0.036 C 
ATOM     35  C   UNL     1       6.797  -2.764   9.264  0.00  0.00    +0.003 C 
ATOM     36  C   UNL     1       8.276  -2.917   8.903  0.00  0.00    +0.000 C 
ATOM     37  C   UNL     1       8.403  -3.712   7.602  0.00  0.00    +0.003 C 
ATOM     38  C   UNL     1       7.677  -2.970   6.478  0.00  0.00    +0.036 C 
BRANCH  33  39
ATOM     39  O   UNL     1       5.614  -4.111   7.012  0.00  0.00    -0.387 OA
ATOM     40  H   UNL     1       4.675  -4.091   7.243  0.00  0.00    +0.210 HD
ENDBRANCH  33  39
ENDBRANCH  32  33
ENDBRANCH  30  32
ENDBRANCH  27  28
ENDBRANCH   4  27
TORSDOF 10
