REMARK  Name = ZINC13056539
REMARK  6 active torsions:
REMARK  status: ('A' for Active; 'I' for Inactive)
REMARK    1  A    between atoms: C_1  and  C_2
REMARK    2  A    between atoms: C_3  and  C_32
REMARK    3  A    between atoms: N_9  and  C_12
REMARK    4  A    between atoms: C_12  and  C_14
REMARK    5  A    between atoms: C_12  and  C_20
REMARK    6  A    between atoms: C_20  and  C_22
REMARK                            x       y       z     vdW  Elec       q    Type
REMARK                         _______ _______ _______ _____ _____    ______ ____
ROOT
ATOM      1  C   UNL     1      -0.910  -5.896  -0.030  0.00  0.00    +0.193 C 
ENDROOT
BRANCH   1  10
ATOM      2  C   UNL     1       2.362   0.692   1.166  0.00  0.00    +0.087 C 
ATOM      3  C   UNL     1       1.883  -0.720   0.949  0.00  0.00    +0.119 A 
ATOM      4  C   UNL     1       0.593  -1.083   0.692  0.00  0.00    +0.118 A 
ATOM      5  C   UNL     1       0.616  -2.550   0.556  0.00  0.00    +0.119 A 
ATOM      6  C   UNL     1       1.945  -2.927   0.750  0.00  0.00    +0.235 A 
ATOM      7  O   UNL     1       2.658  -1.811   0.974  0.00  0.00    -0.441 OA
ATOM      8  N   UNL     1       2.266  -4.228   0.681  0.00  0.00    -0.202 NA
ATOM      9  C   UNL     1       1.364  -5.138   0.438  0.00  0.00    +0.206 A 
ATOM     10  N   UNL     1       0.058  -4.831   0.240  0.00  0.00    -0.284 N 
ATOM     11  C   UNL     1      -0.351  -3.543   0.293  0.00  0.00    +0.267 A 
ATOM     12  O   UNL     1      -1.521  -3.248   0.119  0.00  0.00    -0.267 OA
BRANCH   4  13
ATOM     13  C   UNL     1      -0.572  -0.198   0.575  0.00  0.00    +0.391 C 
ATOM     14  O   UNL     1      -0.439   1.011   0.713  0.00  0.00    -0.240 OA
ATOM     15  O   UNL     1      -1.677  -0.669   0.339  0.00  0.00    -0.240 OA
ENDBRANCH   4  13
ENDBRANCH   1  10
BRANCH   1  16
ATOM     16  C   UNL     1      -0.555  -6.582  -1.324  0.00  0.00    -0.017 A 
ATOM     17  C   UNL     1       0.554  -7.405  -1.388  0.00  0.00    +0.006 A 
ATOM     18  C   UNL     1       0.881  -8.034  -2.575  0.00  0.00    +0.000 A 
ATOM     19  C   UNL     1       0.098  -7.841  -3.698  0.00  0.00    +0.000 A 
ATOM     20  C   UNL     1      -1.012  -7.019  -3.633  0.00  0.00    +0.000 A 
ATOM     21  C   UNL     1      -1.341  -6.393  -2.445  0.00  0.00    +0.006 A 
ENDBRANCH   1  16
BRANCH   1  22
ATOM     22  C   UNL     1      -0.881  -6.899   1.095  0.00  0.00    +0.192 C 
ATOM     23  O   UNL     1       0.042  -6.901   1.883  0.00  0.00    -0.289 OA
BRANCH  22  24
ATOM     24  C   UNL     1      -1.932  -7.841   1.231  0.00  0.00    +0.045 A 
ATOM     25  C   UNL     1      -3.038  -7.971   0.419  0.00  0.00    +0.095 A 
ATOM     26  N   UNL     1      -3.812  -8.979   0.867  0.00  0.00    -0.360 N 
ATOM     27  H   UNL     1      -4.645  -9.258   0.456  0.00  0.00    +0.165 HD
ATOM     28  C   UNL     1      -3.256  -9.559   1.989  0.00  0.00    +0.047 A 
ATOM     29  C   UNL     1      -2.057  -8.884   2.268  0.00  0.00    +0.010 A 
ATOM     30  C   UNL     1      -1.276  -9.267   3.354  0.00  0.00    +0.011 A 
ATOM     31  C   UNL     1      -1.684 -10.313   4.153  0.00  0.00    +0.001 A 
ATOM     32  C   UNL     1      -2.867 -10.983   3.878  0.00  0.00    +0.002 A 
ATOM     33  C   UNL     1      -3.654 -10.610   2.810  0.00  0.00    +0.026 A 
ENDBRANCH  22  24
ENDBRANCH   1  22
TORSDOF 5
