REMARK  Name = ZINC31815201
REMARK  4 active torsions:
REMARK  status: ('A' for Active; 'I' for Inactive)
REMARK    1  A    between atoms: C_1  and  N_2
REMARK    2  A    between atoms: C_5  and  C_12
REMARK    3  A    between atoms: C_7  and  C_9
REMARK    4  A    between atoms: N_14  and  C_15
REMARK                            x       y       z     vdW  Elec       q    Type
REMARK                         _______ _______ _______ _____ _____    ______ ____
ROOT
ATOM      1  C   UNL     1       3.574   0.815  -0.028  0.00  0.00    +0.175 C 
ATOM      2  N   UNL     1       2.110   0.765  -0.014  0.00  0.00    -0.246 N 
ATOM      3  C   UNL     1       1.353  -0.390  -0.013  0.00  0.00    +0.163 A 
ATOM      4  C   UNL     1       0.002  -0.004   0.002  0.00  0.00    +0.098 A 
ATOM      5  C   UNL     1      -0.996  -0.990   0.006  0.00  0.00    +0.054 A 
ATOM      6  C   UNL     1      -0.593  -2.327  -0.006  0.00  0.00    +0.037 A 
ATOM      7  C   UNL     1       0.759  -2.624  -0.020  0.00  0.00    +0.047 A 
ATOM      8  N   UNL     1       1.674  -1.675  -0.023  0.00  0.00    -0.232 NA
ATOM      9  C   UNL     1      -0.018   1.468   0.010  0.00  0.00    +0.298 A 
ATOM     10  O   UNL     1      -1.005   2.178   0.019  0.00  0.00    -0.264 OA
ATOM     11  N   UNL     1       1.267   1.880   0.000  0.00  0.00    -0.127 NA
ENDROOT
BRANCH   5  12
ATOM     12  C   UNL     1      -2.433  -0.625   0.021  0.00  0.00    +0.245 C 
ATOM     13  O   UNL     1      -2.762   0.545   0.030  0.00  0.00    -0.270 OA
ATOM     14  N   UNL     1      -3.374  -1.590   0.025  0.00  0.00    -0.304 N 
ATOM     15  H   UNL     1      -3.076  -2.649   0.016  0.00  0.00    +0.150 HD
BRANCH  14  16
ATOM     16  C   UNL     1      -4.793  -1.229   0.040  0.00  0.00    +0.104 C 
ATOM     17  C   UNL     1      -5.606  -2.356  -0.594  0.00  0.00    +0.027 C 
ATOM     18  C   UNL     1      -7.095  -2.061  -0.374  0.00  0.00    +0.007 C 
ATOM     19  C   UNL     1      -7.407  -2.236   1.111  0.00  0.00    +0.035 C 
ATOM     20  C   UNL     1      -6.434  -1.450   1.952  0.00  0.00    -0.042 A 
ATOM     21  C   UNL     1      -5.231  -0.994   1.462  0.00  0.00    -0.024 A 
ATOM     22  C   UNL     1      -4.373  -0.287   2.294  0.00  0.00    +0.006 A 
ATOM     23  C   UNL     1      -4.719  -0.034   3.606  0.00  0.00    +0.000 A 
ATOM     24  C   UNL     1      -5.929  -0.488   4.096  0.00  0.00    +0.000 A 
ATOM     25  C   UNL     1      -6.782  -1.192   3.271  0.00  0.00    +0.004 A 
ENDBRANCH  14  16
ENDBRANCH   5  12
BRANCH   7  26
ATOM     26  C   UNL     1       1.196  -4.066  -0.033  0.00  0.00    +0.038 C 
ATOM     27  C   UNL     1       0.157  -5.122   0.354  0.00  0.00    +0.010 C 
ATOM     28  C   UNL     1       1.300  -4.785   1.314  0.00  0.00    +0.010 C 
ENDBRANCH   7  26
TORSDOF 3
