REMARK  Name = ZINC05783010
REMARK  8 active torsions:
REMARK  status: ('A' for Active; 'I' for Inactive)
REMARK    1  A    between atoms: C_1  and  C_2
REMARK    2  A    between atoms: C_2  and  C_3
REMARK    3  A    between atoms: C_3  and  N_4
REMARK    4  A    between atoms: N_7  and  N_8
REMARK    5  A    between atoms: C_9  and  C_11
REMARK    6  A    between atoms: C_11  and  C_13
REMARK    7  A    between atoms: C_11  and  N_14
REMARK    8  A    between atoms: C_15  and  C_17
REMARK                            x       y       z     vdW  Elec       q    Type
REMARK                         _______ _______ _______ _____ _____    ______ ____
ROOT
ATOM      1  C   UNL     1      -2.132   7.259  -0.950  0.00  0.00    +0.157 C 
ATOM      2  C   UNL     1      -3.313   7.748  -0.108  0.00  0.00    +0.038 C 
ENDROOT
BRANCH   1   4
ATOM      3  N   UNL     1      -2.318   9.093  -2.599  0.00  0.00    -0.232 N 
ATOM      4  C   UNL     1      -2.276   7.767  -2.361  0.00  0.00    +0.249 C 
ATOM      5  O   UNL     1      -2.355   6.983  -3.283  0.00  0.00    -0.272 OA
ATOM      6  H   UNL     1      -2.255   9.720  -1.861  0.00  0.00    +0.173 HD
BRANCH   3  10
ATOM      7  N   UNL     1      -2.407  11.763  -3.124  0.00  0.00    -0.298 N 
ATOM      8  C   UNL     1      -2.494  10.891  -4.149  0.00  0.00    +0.316 C 
ATOM      9  O   UNL     1      -2.610  11.302  -5.287  0.00  0.00    -0.251 OA
ATOM     10  N   UNL     1      -2.452   9.566  -3.911  0.00  0.00    -0.218 N 
ATOM     11  H   UNL     1      -2.314  11.436  -2.216  0.00  0.00    +0.150 HD
ATOM     12  H   UNL     1      -2.515   8.938  -4.648  0.00  0.00    +0.174 HD
BRANCH   7  13
ATOM     13  C   UNL     1      -2.452  13.204  -3.383  0.00  0.00    +0.105 C 
BRANCH  13  15
ATOM     14  C   UNL     1      -2.382  15.469  -2.330  0.00  0.00    +0.005 C 
ATOM     15  C   UNL     1      -2.334  13.964  -2.060  0.00  0.00    +0.015 C 
ENDBRANCH  13  15
ENDBRANCH   7  13
ENDBRANCH   3  10
ENDBRANCH   1   4
BRANCH   1  16
ATOM     16  N   UNL     1      -2.112   5.794  -0.958  0.00  0.00    -0.304 N 
ATOM     17  C   UNL     1      -1.510   5.123   0.044  0.00  0.00    +0.220 C 
ATOM     18  O   UNL     1      -0.985   5.731   0.952  0.00  0.00    -0.275 OA
ATOM     19  H   UNL     1      -2.533   5.307  -1.684  0.00  0.00    +0.149 HD
BRANCH  17  20
ATOM     20  C   UNL     1      -1.490   3.616   0.036  0.00  0.00    +0.048 C 
ATOM     21  C   UNL     1      -0.773   3.123  -1.223  0.00  0.00    +0.019 C 
ATOM     22  C   UNL     1      -0.753   1.593  -1.232  0.00  0.00    -0.009 C 
ATOM     23  C   UNL     1      -0.013   1.086   0.008  0.00  0.00    +0.007 C 
ATOM     24  C   UNL     1      -0.729   1.579   1.267  0.00  0.00    -0.009 C 
ATOM     25  C   UNL     1      -0.750   3.109   1.275  0.00  0.00    +0.019 C 
ATOM     26  C   UNL     1      -2.164   1.050   1.278  0.00  0.00    +0.007 C 
ATOM     27  C   UNL     1      -2.904   1.556   0.038  0.00  0.00    -0.009 C 
ATOM     28  C   UNL     1      -2.188   1.063  -1.221  0.00  0.00    +0.007 C 
ATOM     29  C   UNL     1      -2.925   3.086   0.047  0.00  0.00    +0.019 C 
ENDBRANCH  17  20
ENDBRANCH   1  16
TORSDOF 6
