REMARK  Name = ZINC63040006
REMARK  6 active torsions:
REMARK  status: ('A' for Active; 'I' for Inactive)
REMARK    1  A    between atoms: C_1  and  C_2
REMARK    2  A    between atoms: C_2  and  C_4
REMARK    3  A    between atoms: C_2  and  C_17
REMARK    4  A    between atoms: C_7  and  N_14
REMARK    5  A    between atoms: C_17  and  C_19
REMARK    6  A    between atoms: C_17  and  O_20
REMARK                            x       y       z     vdW  Elec       q    Type
REMARK                         _______ _______ _______ _____ _____    ______ ____
ROOT
ATOM      1  C   UNL     1       0.731  -0.503   1.223  0.00  0.00    -0.033 A 
ATOM      2  C   UNL     1       0.273  -0.194   2.468  0.00  0.00    +0.007 A 
ATOM      3  C   UNL     1       0.936  -0.648   3.606  0.00  0.00    +0.035 A 
ATOM      4  C   UNL     1       2.058  -1.412   3.507  0.00  0.00    +0.152 A 
ATOM      5  C   UNL     1       2.562  -1.752   2.240  0.00  0.00    +0.101 A 
ATOM      6  C   UNL     1       1.882  -1.294   1.084  0.00  0.00    +0.006 A 
ATOM      7  C   UNL     1       2.385  -1.641  -0.185  0.00  0.00    +0.012 A 
ATOM      8  C   UNL     1       3.509  -2.413  -0.244  0.00  0.00    +0.020 A 
ATOM      9  C   UNL     1       4.125  -2.835   0.932  0.00  0.00    +0.111 A 
ATOM     10  N   UNL     1       3.662  -2.501   2.112  0.00  0.00    -0.253 NA
ENDROOT
BRANCH   4  11
ATOM     11  N   UNL     1       2.747  -1.882   4.731  0.00  0.00    +0.059 N 
ATOM     12  O   UNL     1       2.312  -1.588   5.820  0.00  0.00    -0.126 OA
ATOM     13  O   UNL     1       3.743  -2.561   4.641  0.00  0.00    -0.126 OA
ENDBRANCH   4  11
BRANCH   1  15
ATOM     14  C   UNL     1      -0.019   1.526   0.010  0.00  0.00    +0.015 C 
ATOM     15  C   UNL     1       0.002  -0.004   0.002  0.00  0.00    +0.045 C 
BRANCH  15  16
ATOM     16  C   UNL     1      -1.433  -0.534   0.013  0.00  0.00    +0.119 C 
ATOM     17  C   UNL     1      -2.173  -0.027  -1.227  0.00  0.00    +0.038 C 
BRANCH  16  18
ATOM     18  O   UNL     1      -1.414  -1.962   0.005  0.00  0.00    -0.391 OA
ATOM     19  H   UNL     1      -0.974  -2.346  -0.766  0.00  0.00    +0.210 HD
ENDBRANCH  16  18
ENDBRANCH  15  16
ENDBRANCH   1  15
TORSDOF 4
