REMARK  Name = ZINC54136119
REMARK  7 active torsions:
REMARK  status: ('A' for Active; 'I' for Inactive)
REMARK    1  A    between atoms: C_3  and  C_6
REMARK    2  A    between atoms: C_7  and  C_8
REMARK    3  A    between atoms: N_10  and  C_11
REMARK    4  A    between atoms: C_11  and  C_12
REMARK    5  A    between atoms: C_12  and  C_13
REMARK    6  A    between atoms: N_15  and  C_16
REMARK    7  A    between atoms: C_19  and  C_22
REMARK                            x       y       z     vdW  Elec       q    Type
REMARK                         _______ _______ _______ _____ _____    ______ ____
ROOT
ATOM      1  C   UNL     1       9.647  -3.506  -0.695  0.00  0.00    +0.219 C 
ATOM      2  O   UNL     1      10.273  -2.615  -1.230  0.00  0.00    -0.275 OA
ATOM      3  N   UNL     1      10.298  -4.537  -0.122  0.00  0.00    -0.285 N 
ATOM      4  H   UNL     1       9.802  -5.215   0.363  0.00  0.00    +0.155 HD
ENDROOT
BRANCH   3   5
ATOM      5  C   UNL     1      11.690  -4.630  -0.227  0.00  0.00    +0.033 A 
ATOM      6  C   UNL     1      12.465  -3.477  -0.216  0.00  0.00    +0.024 A 
ATOM      7  C   UNL     1      13.837  -3.566  -0.319  0.00  0.00    +0.012 A 
ATOM      8  C   UNL     1      14.447  -4.814  -0.433  0.00  0.00    -0.000 A 
ATOM      9  C   UNL     1      13.668  -5.970  -0.443  0.00  0.00    +0.012 A 
ATOM     10  C   UNL     1      12.296  -5.876  -0.335  0.00  0.00    +0.024 A 
BRANCH   8  11
ATOM     11  C   UNL     1      15.923  -4.913  -0.545  0.00  0.00    +0.064 A 
ATOM     12  C   UNL     1      16.799  -3.872  -0.543  0.00  0.00    +0.113 A 
ATOM     13  N   UNL     1      18.044  -4.411  -0.664  0.00  0.00    -0.335 N 
ATOM     14  C   UNL     1      17.902  -5.757  -0.738  0.00  0.00    +0.087 A 
ATOM     15  N   UNL     1      16.638  -6.052  -0.660  0.00  0.00    -0.343 N 
ATOM     16  C   UNL     1      19.057  -6.720  -0.882  0.00  0.00    +0.072 C 
ATOM     17  C   UNL     1      20.292  -5.925  -1.324  0.00  0.00    +0.009 C 
ATOM     18  C   UNL     1      20.452  -4.698  -0.422  0.00  0.00    +0.022 C 
ATOM     19  C   UNL     1      19.325  -3.701  -0.710  0.00  0.00    +0.123 C 
ATOM     20  H   UNL     1      16.268  -6.948  -0.684  0.00  0.00    +0.167 HD
ENDBRANCH   8  11
ENDBRANCH   3   5
BRANCH   1  21
ATOM     21  C   UNL     1       8.140  -3.460  -0.673  0.00  0.00    +0.115 C 
BRANCH  21  22
ATOM     22  C   UNL     1       7.658  -2.195  -1.386  0.00  0.00    +0.113 C 
BRANCH  22  25
ATOM     23  C   UNL     1       5.543  -1.119  -1.938  0.00  0.00    +0.237 C 
ATOM     24  O   UNL     1       6.171  -0.225  -2.474  0.00  0.00    -0.271 OA
ATOM     25  N   UNL     1       6.194  -2.151  -1.364  0.00  0.00    -0.311 N 
ATOM     26  H   UNL     1       5.693  -2.863  -0.937  0.00  0.00    +0.149 HD
BRANCH  23  28
ATOM     27  C   UNL     1       3.472  -0.039  -2.494  0.00  0.00    +0.051 C 
ATOM     28  C   UNL     1       4.128  -1.076  -1.917  0.00  0.00    +0.071 C 
BRANCH  27  31
ATOM     29  C   UNL     1      -0.065   0.627  -2.763  0.00  0.00    +0.042 A 
ATOM     30  C   UNL     1       1.266   0.994  -3.017  0.00  0.00    +0.049 A 
ATOM     31  C   UNL     1       2.057   0.005  -2.472  0.00  0.00    +0.128 A 
ATOM     32  O   UNL     1       1.242  -0.915  -1.916  0.00  0.00    -0.464 OA
ATOM     33  C   UNL     1      -0.034  -0.544  -2.089  0.00  0.00    +0.195 A 
ENDBRANCH  27  31
ENDBRANCH  23  28
ENDBRANCH  22  25
ENDBRANCH  21  22
ENDBRANCH   1  21
TORSDOF 7
