REMARK  Name = ZINC04312150
REMARK  10 active torsions:
REMARK  status: ('A' for Active; 'I' for Inactive)
REMARK    1  A    between atoms: C_1  and  C_2
REMARK    2  A    between atoms: C_2  and  C_3
REMARK    3  A    between atoms: C_2  and  O_4
REMARK    4  A    between atoms: O_4  and  C_5
REMARK    5  A    between atoms: C_8  and  C_13
REMARK    6  A    between atoms: C_10  and  O_11
REMARK    7  A    between atoms: O_11  and  C_12
REMARK    8  A    between atoms: C_22  and  C_31
REMARK    9  A    between atoms: C_26  and  C_27
REMARK   10  A    between atoms: C_26  and  C_29
REMARK                            x       y       z     vdW  Elec       q    Type
REMARK                         _______ _______ _______ _____ _____    ______ ____
ROOT
ATOM      1  C   UNL     1       6.291  -0.829  -0.937  0.00  0.00    +0.067 C 
ATOM      2  C   UNL     1       6.870   0.524  -0.514  0.00  0.00    +0.040 C 
ATOM      3  C   UNL     1       6.462   1.593  -1.516  0.00  0.00    +0.089 C 
ATOM      4  N   UNL     1       7.389   2.729  -1.477  0.00  0.00    -0.312 NA
ATOM      5  C   UNL     1       8.732   2.303  -1.898  0.00  0.00    +0.108 C 
ATOM      6  C   UNL     1       9.198   1.200  -0.989  0.00  0.00    -0.011 C 
ATOM      7  C   UNL     1       8.365   0.418  -0.398  0.00  0.00    -0.045 C 
ATOM      8  C   UNL     1       8.937  -0.670   0.494  0.00  0.00    +0.164 C 
ATOM      9  C   UNL     1       8.197  -1.953   0.175  0.00  0.00    +0.065 C 
ATOM     10  N   UNL     1       8.830  -3.049  -0.010  0.00  0.00    -0.304 NA
ATOM     11  C   UNL     1       6.688  -1.900   0.083  0.00  0.00    +0.188 C 
ATOM     12  H   UNL     1       7.054   3.489  -2.050  0.00  0.00    +0.122 HD
ATOM     13  H   UNL     1       8.342  -3.862  -0.214  0.00  0.00    +0.186 HD
ENDROOT
BRANCH   1  17
ATOM     14  C   UNL     1       2.027  -0.553  -1.118  0.00  0.00    +0.162 A 
ATOM     15  C   UNL     1       2.690  -0.309   0.074  0.00  0.00    +0.050 A 
ATOM     16  C   UNL     1       4.068  -0.399   0.130  0.00  0.00    +0.008 A 
ATOM     17  C   UNL     1       4.788  -0.732  -1.002  0.00  0.00    -0.037 A 
ATOM     18  C   UNL     1       4.133  -0.977  -2.195  0.00  0.00    +0.053 A 
ATOM     19  C   UNL     1       2.751  -0.894  -2.256  0.00  0.00    +0.162 A 
BRANCH  19  20
ATOM     20  O   UNL     1       2.105  -1.140  -3.427  0.00  0.00    -0.491 OA
ATOM     21  C   UNL     1       2.913  -1.484  -4.554  0.00  0.00    +0.277 C 
ENDBRANCH  19  20
BRANCH  14  22
ATOM     22  O   UNL     1       0.671  -0.465  -1.174  0.00  0.00    -0.486 OA
BRANCH  22  24
ATOM     23  C   UNL     1      -0.051   1.266   0.351  0.00  0.00    +0.051 C 
ATOM     24  C   UNL     1      -0.016  -0.236   0.058  0.00  0.00    +0.167 C 
ATOM     25  C   UNL     1      -1.446  -0.768  -0.049  0.00  0.00    +0.051 C 
ENDBRANCH  22  24
ENDBRANCH  14  22
ENDBRANCH   1  17
BRANCH  11  26
ATOM     26  C   UNL     1       6.125  -1.560   1.400  0.00  0.00    +0.091 C 
ATOM     27  N   UNL     1       5.691  -1.297   2.416  0.00  0.00    -0.195 NA
ENDBRANCH  11  26
BRANCH  11  28
ATOM     28  C   UNL     1       6.175  -3.209  -0.352  0.00  0.00    +0.091 C 
ATOM     29  N   UNL     1       5.779  -4.220  -0.687  0.00  0.00    -0.195 NA
ENDBRANCH  11  28
BRANCH   8  30
ATOM     30  C   UNL     1      10.373  -0.838   0.220  0.00  0.00    +0.076 C 
ATOM     31  N   UNL     1      11.482  -0.968   0.009  0.00  0.00    -0.196 NA
ENDBRANCH   8  30
TORSDOF 7
