REMARK  Name = ZINC44021190
REMARK  3 active torsions:
REMARK  status: ('A' for Active; 'I' for Inactive)
REMARK    1  A    between atoms: C_3  and  C_6
REMARK    2  A    between atoms: N_11  and  C_14
REMARK    3  A    between atoms: N_18  and  C_23
REMARK                            x       y       z     vdW  Elec       q    Type
REMARK                         _______ _______ _______ _____ _____    ______ ____
ROOT
ATOM      1  C   UNL     1       6.291  -3.866  -0.966  0.00  0.00    +0.108 A 
ATOM      2  C   UNL     1       5.631  -5.057  -0.851  0.00  0.00    +0.112 A 
ATOM      3  C   UNL     1       6.375  -6.244  -0.768  0.00  0.00    +0.259 A 
ATOM      4  O   UNL     1       5.807  -7.318  -0.665  0.00  0.00    -0.267 OA
ATOM      5  N   UNL     1       7.721  -6.190  -0.804  0.00  0.00    -0.255 N 
ATOM      6  C   UNL     1       8.355  -5.009  -0.918  0.00  0.00    +0.331 A 
ATOM      7  O   UNL     1       9.570  -4.982  -0.949  0.00  0.00    -0.246 OA
ATOM      8  N   UNL     1       7.665  -3.857  -1.005  0.00  0.00    -0.296 N 
ATOM      9  H   UNL     1       8.139  -3.015  -1.091  0.00  0.00    +0.172 HD
ENDROOT
BRANCH   5  10
ATOM     10  C   UNL     1       8.501  -7.427  -0.719  0.00  0.00    +0.054 C 
ATOM     11  C   UNL     1       9.467  -7.505  -1.903  0.00  0.00    +0.032 C 
ATOM     12  C   UNL     1      10.281  -8.797  -1.813  0.00  0.00    -0.008 C 
ATOM     13  C   UNL     1       9.335  -9.999  -1.846  0.00  0.00    +0.007 C 
ATOM     14  C   UNL     1       8.369  -9.921  -0.662  0.00  0.00    -0.008 C 
ATOM     15  C   UNL     1       7.555  -8.629  -0.752  0.00  0.00    +0.032 C 
ATOM     16  C   UNL     1       9.163  -9.934   0.645  0.00  0.00    +0.007 C 
ATOM     17  C   UNL     1      10.109  -8.732   0.679  0.00  0.00    -0.008 C 
ATOM     18  C   UNL     1      11.075  -8.810  -0.505  0.00  0.00    +0.007 C 
ATOM     19  C   UNL     1       9.295  -7.440   0.589  0.00  0.00    +0.032 C 
ENDBRANCH   5  10
BRANCH   1  25
ATOM     20  C   UNL     1       4.143   0.942  -0.258  0.00  0.00    +0.282 C 
ATOM     21  O   UNL     1       4.559   1.852  -0.950  0.00  0.00    -0.267 OA
ATOM     22  N   UNL     1       4.833  -0.213  -0.177  0.00  0.00    -0.292 N 
ATOM     23  C   UNL     1       4.268  -1.374   0.524  0.00  0.00    +0.127 C 
ATOM     24  C   UNL     1       4.259  -2.570  -0.436  0.00  0.00    +0.125 C 
ATOM     25  N   UNL     1       5.589  -2.691  -1.048  0.00  0.00    -0.313 N 
ATOM     26  C   UNL     1       6.154  -1.529  -1.749  0.00  0.00    +0.125 C 
ATOM     27  C   UNL     1       6.161  -0.335  -0.794  0.00  0.00    +0.127 C 
BRANCH  20  30
ATOM     28  C   UNL     1       0.973   1.897   1.282  0.00  0.00    +0.042 A 
ATOM     29  C   UNL     1       2.031   2.159   0.397  0.00  0.00    +0.054 A 
ATOM     30  C   UNL     1       2.891   1.102   0.489  0.00  0.00    +0.189 A 
ATOM     31  O   UNL     1       2.387   0.231   1.388  0.00  0.00    -0.458 OA
ATOM     32  C   UNL     1       1.230   0.707   1.868  0.00  0.00    +0.196 A 
ENDBRANCH  20  30
ENDBRANCH   1  25
TORSDOF 3
