REMARK  Name = ZINC13639726
REMARK  5 active torsions:
REMARK  status: ('A' for Active; 'I' for Inactive)
REMARK    1  A    between atoms: C_4  and  N_7
REMARK    2  A    between atoms: C_8  and  C_10
REMARK    3  A    between atoms: C_17  and  C_26
REMARK    4  A    between atoms: C_29  and  O_33
REMARK    5  A    between atoms: C_31  and  O_32
REMARK                            x       y       z     vdW  Elec       q    Type
REMARK                         _______ _______ _______ _____ _____    ______ ____
ROOT
ATOM      1  C   UNL     1       1.950  -2.803   3.054  0.00  0.00    +0.058 A 
ATOM      2  C   UNL     1       1.598  -4.041   2.516  0.00  0.00    +0.015 A 
ATOM      3  C   UNL     1       1.026  -4.101   1.264  0.00  0.00    +0.001 A 
ATOM      4  C   UNL     1       0.803  -2.942   0.544  0.00  0.00    +0.006 A 
ATOM      5  C   UNL     1       1.144  -1.702   1.062  0.00  0.00    -0.019 A 
ATOM      6  C   UNL     1       1.721  -1.624   2.318  0.00  0.00    +0.044 A 
ATOM      7  N   UNL     1       2.089  -0.417   2.891  0.00  0.00    -0.336 N 
ATOM      8  C   UNL     1       1.300   0.703   2.379  0.00  0.00    +0.108 C 
ATOM      9  C   UNL     1       1.461   0.786   0.860  0.00  0.00    +0.029 C 
ATOM     10  C   UNL     1       0.866  -0.489   0.224  0.00  0.00    +0.049 C 
ATOM     11  C   UNL     1      -0.619  -0.213   0.164  0.00  0.00    -0.023 C 
ATOM     12  C   UNL     1      -0.850   1.074   0.228  0.00  0.00    -0.030 C 
ATOM     13  C   UNL     1       0.452   1.844   0.330  0.00  0.00    +0.033 C 
ATOM     14  H   UNL     1       3.077  -0.247   2.774  0.00  0.00    +0.147 HD
ENDROOT
BRANCH   8  15
ATOM     15  C   UNL     1       1.782   1.986   3.006  0.00  0.00    +0.015 A 
ATOM     16  C   UNL     1       2.581   2.851   2.283  0.00  0.00    +0.012 A 
ATOM     17  C   UNL     1       3.024   4.028   2.854  0.00  0.00    +0.046 A 
ATOM     18  C   UNL     1       2.668   4.344   4.158  0.00  0.00    +0.120 A 
ATOM     19  C   UNL     1       1.866   3.479   4.886  0.00  0.00    +0.091 A 
ATOM     20  C   UNL     1       1.418   2.301   4.308  0.00  0.00    +0.125 A 
BRANCH  20  21
ATOM     21  O   UNL     1       0.628   1.453   5.017  0.00  0.00    -0.506 OA
ATOM     22  H   UNL     1       1.117   0.790   5.524  0.00  0.00    +0.292 HD
ENDBRANCH  20  21
BRANCH  18  23
ATOM     23  O   UNL     1       3.104   5.502   4.720  0.00  0.00    -0.507 OA
ATOM     24  H   UNL     1       2.511   6.253   4.585  0.00  0.00    +0.292 HD
ENDBRANCH  18  23
ENDBRANCH   8  15
BRANCH   1  26
ATOM     25  N   UNL     1       2.781  -3.857   5.098  0.00  0.00    -0.281 N 
ATOM     26  C   UNL     1       2.562  -2.729   4.394  0.00  0.00    +0.250 C 
ATOM     27  O   UNL     1       2.869  -1.650   4.863  0.00  0.00    -0.270 OA
ATOM     28  H   UNL     1       2.597  -4.721   4.698  0.00  0.00    +0.155 HD
BRANCH  25  32
ATOM     29  C   UNL     1       4.245  -3.630   8.991  0.00  0.00    +0.000 A 
ATOM     30  C   UNL     1       3.334  -4.614   8.653  0.00  0.00    +0.002 A 
ATOM     31  C   UNL     1       2.847  -4.692   7.363  0.00  0.00    +0.023 A 
ATOM     32  C   UNL     1       3.272  -3.781   6.405  0.00  0.00    +0.034 A 
ATOM     33  C   UNL     1       4.192  -2.797   6.746  0.00  0.00    +0.023 A 
ATOM     34  C   UNL     1       4.671  -2.721   8.040  0.00  0.00    +0.002 A 
ENDBRANCH  25  32
ENDBRANCH   1  26
TORSDOF 5
