REMARK  Name = ZINC27529509
REMARK  14 active torsions:
REMARK  status: ('A' for Active; 'I' for Inactive)
REMARK    1  A    between atoms: C_4  and  C_7
REMARK    2  A    between atoms: N_11  and  C_12
REMARK    3  A    between atoms: C_12  and  C_13
REMARK    4  A    between atoms: C_13  and  C_15
REMARK    5  A    between atoms: C_13  and  O_40
REMARK    6  A    between atoms: C_15  and  O_16
REMARK    7  A    between atoms: O_16  and  C_17
REMARK    8  A    between atoms: C_20  and  O_23
REMARK    9  A    between atoms: O_23  and  C_24
REMARK   10  A    between atoms: C_24  and  C_25
REMARK   11  A    between atoms: C_25  and  C_27
REMARK   12  A    between atoms: C_25  and  O_39
REMARK   13  A    between atoms: C_27  and  N_28
REMARK   14  A    between atoms: C_32  and  C_33
REMARK                            x       y       z     vdW  Elec       q    Type
REMARK                         _______ _______ _______ _____ _____    ______ ____
ROOT
ATOM      1  C   UNL     1       9.801   0.925  -2.478  0.00  0.00    +0.121 A 
ATOM      2  C   UNL     1       9.134   1.455  -3.573  0.00  0.00    +0.049 A 
ATOM      3  C   UNL     1       7.805   1.816  -3.464  0.00  0.00    +0.049 A 
ATOM      4  C   UNL     1       7.138   1.649  -2.260  0.00  0.00    +0.121 A 
ATOM      5  C   UNL     1       7.806   1.124  -1.164  0.00  0.00    +0.049 A 
ATOM      6  C   UNL     1       9.133   0.759  -1.274  0.00  0.00    +0.049 A 
ENDROOT
BRANCH   1   7
ATOM      7  O   UNL     1      11.109   0.570  -2.586  0.00  0.00    -0.489 OA
BRANCH   7   8
ATOM      8  C   UNL     1      11.732   0.030  -1.418  0.00  0.00    +0.261 C 
BRANCH   8   9
ATOM      9  C   UNL     1      13.191  -0.308  -1.730  0.00  0.00    +0.169 C 
BRANCH   9  10
ATOM     10  O   UNL     1      13.240  -1.355  -2.702  0.00  0.00    -0.387 OA
ATOM     11  H   UNL     1      12.784  -1.207  -3.692  0.00  0.00    +0.210 HD
ENDBRANCH   9  10
BRANCH   9  12
ATOM     12  C   UNL     1      13.893  -0.768  -0.450  0.00  0.00    +0.141 C 
BRANCH  12  17
ATOM     13  C   UNL     1      16.354  -0.213  -0.558  0.00  0.00    +0.102 C 
ATOM     14  N   UNL     1      17.500  -0.709  -0.891  0.00  0.00    -0.371 N 
ATOM     15  C   UNL     1      17.332  -2.083  -1.386  0.00  0.00    +0.133 C 
ATOM     16  C   UNL     1      15.815  -2.336  -1.280  0.00  0.00    +0.127 C 
ATOM     17  N   UNL     1      15.297  -1.066  -0.743  0.00  0.00    -0.312 N 
ATOM     18  H   UNL     1      18.413  -0.106  -0.782  0.00  0.00    +0.161 HD
BRANCH  13  22
ATOM     19  C   UNL     1      15.902   3.722   0.981  0.00  0.00    +0.000 A 
ATOM     20  C   UNL     1      14.860   3.127   0.293  0.00  0.00    +0.001 A 
ATOM     21  C   UNL     1      15.000   1.850  -0.209  0.00  0.00    +0.011 A 
ATOM     22  C   UNL     1      16.197   1.158  -0.022  0.00  0.00    +0.013 A 
ATOM     23  C   UNL     1      17.242   1.761   0.677  0.00  0.00    +0.011 A 
ATOM     24  C   UNL     1      17.092   3.041   1.169  0.00  0.00    +0.001 A 
ENDBRANCH  13  22
ENDBRANCH  12  17
ENDBRANCH   9  12
ENDBRANCH   8   9
ENDBRANCH   7   8
ENDBRANCH   1   7
BRANCH   4  25
ATOM     25  O   UNL     1       5.829   2.004  -2.153  0.00  0.00    -0.489 OA
BRANCH  25  26
ATOM     26  C   UNL     1       5.205   1.804  -0.884  0.00  0.00    +0.261 C 
BRANCH  26  27
ATOM     27  C   UNL     1       3.745   2.259  -0.956  0.00  0.00    +0.169 C 
BRANCH  27  28
ATOM     28  O   UNL     1       3.030   1.421  -1.866  0.00  0.00    -0.387 OA
ATOM     29  H   UNL     1       1.960   1.596  -2.050  0.00  0.00    +0.210 HD
ENDBRANCH  27  28
BRANCH  27  30
ATOM     30  C   UNL     1       3.111   2.162   0.433  0.00  0.00    +0.141 C 
BRANCH  30  31
ATOM     31  N   UNL     1       1.747   2.692   0.385  0.00  0.00    -0.312 N 
ATOM     32  C   UNL     1       1.369   4.112   0.492  0.00  0.00    +0.127 C 
ATOM     33  C   UNL     1      -0.168   4.079   0.378  0.00  0.00    +0.133 C 
ATOM     34  N   UNL     1      -0.483   2.653   0.215  0.00  0.00    -0.371 N 
ATOM     35  C   UNL     1       0.603   1.952   0.233  0.00  0.00    +0.102 C 
ATOM     36  H   UNL     1      -1.456   2.155   0.091  0.00  0.00    +0.161 HD
BRANCH  35  37
ATOM     37  C   UNL     1       0.611   0.478   0.095  0.00  0.00    +0.013 A 
ATOM     38  C   UNL     1       1.439  -0.297   0.906  0.00  0.00    +0.011 A 
ATOM     39  C   UNL     1       1.443  -1.670   0.773  0.00  0.00    +0.001 A 
ATOM     40  C   UNL     1       0.627  -2.279  -0.164  0.00  0.00    +0.000 A 
ATOM     41  C   UNL     1      -0.197  -1.516  -0.972  0.00  0.00    +0.001 A 
ATOM     42  C   UNL     1      -0.209  -0.141  -0.848  0.00  0.00    +0.011 A 
ENDBRANCH  35  37
ENDBRANCH  30  31
ENDBRANCH  27  30
ENDBRANCH  26  27
ENDBRANCH  25  26
ENDBRANCH   4  25
TORSDOF 14
