REMARK  Name = ZINC09637755
REMARK  9 active torsions:
REMARK  status: ('A' for Active; 'I' for Inactive)
REMARK    1  A    between atoms: C_1  and  C_2
REMARK    2  A    between atoms: C_3  and  C_30
REMARK    3  A    between atoms: N_4  and  C_23
REMARK    4  A    between atoms: C_5  and  N_9
REMARK    5  A    between atoms: C_6  and  C_7
REMARK    6  A    between atoms: C_10  and  C_12
REMARK    7  A    between atoms: C_12  and  N_58
REMARK    8  A    between atoms: C_20  and  C_22
REMARK    9  A    between atoms: C_23  and  C_24
REMARK                            x       y       z     vdW  Elec       q    Type
REMARK                         _______ _______ _______ _____ _____    ______ ____
ROOT
ATOM      1  N   UNL     1      -4.872   2.729  -2.599  0.00  0.00    -0.272 N 
ATOM      2  C   UNL     1      -5.885   1.867  -2.817  0.00  0.00    +0.202 C 
ATOM      3  O   UNL     1      -5.761   0.982  -3.637  0.00  0.00    -0.278 OA
ATOM      4  H   UNL     1      -4.938   3.383  -1.885  0.00  0.00    +0.156 HD
ENDROOT
BRANCH   1   9
ATOM      5  C   UNL     1      -1.705   2.085  -6.484  0.00  0.00    +0.047 C 
ATOM      6  C   UNL     1      -2.281   2.402  -5.128  0.00  0.00    -0.011 A 
ATOM      7  C   UNL     1      -1.609   2.856  -4.057  0.00  0.00    +0.022 A 
ATOM      8  N   UNL     1      -2.479   3.020  -3.013  0.00  0.00    -0.329 N 
ATOM      9  C   UNL     1      -3.737   2.682  -3.395  0.00  0.00    +0.123 A 
ATOM     10  C   UNL     1      -3.687   2.281  -4.723  0.00  0.00    +0.095 A 
ATOM     11  C   UNL     1      -0.129   3.137  -4.012  0.00  0.00    +0.064 C 
BRANCH  10  12
ATOM     12  C   UNL     1      -4.783   1.841  -5.532  0.00  0.00    +0.103 C 
ATOM     13  N   UNL     1      -5.652   1.491  -6.175  0.00  0.00    -0.191 NA
ENDBRANCH  10  12
BRANCH   8  14
ATOM     14  C   UNL     1      -2.107   3.497  -1.678  0.00  0.00    +0.154 C 
BRANCH  14  15
ATOM     15  C   UNL     1      -1.860   2.299  -0.759  0.00  0.00    +0.138 C 
ATOM     16  C   UNL     1      -1.519   2.779   0.674  0.00  0.00    +0.035 C 
ATOM     17  C   UNL     1      -0.711   1.563   1.209  0.00  0.00    +0.031 C 
ATOM     18  C   UNL     1       0.018   1.073  -0.060  0.00  0.00    +0.160 C 
ATOM     19  O   UNL     1      -0.704   1.566  -1.194  0.00  0.00    -0.375 OA
ENDBRANCH  14  15
ENDBRANCH   8  14
ENDBRANCH   1   9
BRANCH   2  20
ATOM     20  C   UNL     1      -7.171   2.003  -2.043  0.00  0.00    +0.020 C 
BRANCH  20  30
ATOM     21  C   UNL     1      -7.611  -0.378  -2.083  0.00  0.00    -0.055 C 
ATOM     22  C   UNL     1      -8.386  -1.459  -2.847  0.00  0.00    +0.103 C 
ATOM     23  N   UNL     1      -9.821  -1.193  -2.688  0.00  0.00    -0.354 N 
ATOM     24  C   UNL     1     -10.858  -2.038  -2.919  0.00  0.00    +0.086 A 
ATOM     25  C   UNL     1     -12.005  -1.382  -2.639  0.00  0.00    +0.019 A 
ATOM     26  C   UNL     1     -11.658  -0.080  -2.220  0.00  0.00    +0.021 A 
ATOM     27  C   UNL     1     -10.320   0.009  -2.260  0.00  0.00    +0.005 A 
ATOM     28  C   UNL     1      -9.453   1.194  -1.911  0.00  0.00    -0.023 C 
ATOM     29  C   UNL     1     -10.043   2.465  -2.526  0.00  0.00    -0.007 C 
ATOM     30  N   UNL     1      -8.110   0.954  -2.491  0.00  0.00    +0.392 N 
ATOM     31  H   UNL     1      -8.179   0.983  -3.515  0.00  0.00    -0.080 HD
ENDBRANCH  20  30
ENDBRANCH   2  20
TORSDOF 6
