REMARK  Name = ZINC36027766
REMARK  8 active torsions:
REMARK  status: ('A' for Active; 'I' for Inactive)
REMARK    1  A    between atoms: C_1  and  C_2
REMARK    2  A    between atoms: C_2  and  C_3
REMARK    3  A    between atoms: C_3  and  C_5
REMARK    4  A    between atoms: C_3  and  C_6
REMARK    5  A    between atoms: N_10  and  C_25
REMARK    6  A    between atoms: C_18  and  C_20
REMARK    7  A    between atoms: C_25  and  C_26
REMARK    8  A    between atoms: C_30  and  C_32
REMARK                            x       y       z     vdW  Elec       q    Type
REMARK                         _______ _______ _______ _____ _____    ______ ____
ROOT
ATOM      1  C   UNL     1      -2.642  -1.771   0.710  0.00  0.00    +0.022 C 
ATOM      2  C   UNL     1      -1.677  -2.328  -0.314  0.00  0.00    +0.201 C 
ATOM      3  O   UNL     1      -0.534  -1.960  -0.485  0.00  0.00    -0.277 OA
ATOM      4  N   UNL     1      -2.303  -3.303  -1.005  0.00  0.00    -0.309 N 
ATOM      5  C   UNL     1      -3.670  -3.459  -0.501  0.00  0.00    +0.006 C 
ATOM      6  N   UNL     1      -3.979  -2.231   0.264  0.00  0.00    +0.401 N 
ATOM      7  C   UNL     1      -3.758  -4.675   0.420  0.00  0.00    +0.025 C 
ATOM      8  C   UNL     1      -3.398  -5.938  -0.370  0.00  0.00    +0.108 C 
ATOM      9  N   UNL     1      -4.254  -6.009  -1.562  0.00  0.00    -0.301 N 
ATOM     10  C   UNL     1      -4.296  -4.857  -2.473  0.00  0.00    +0.108 C 
ATOM     11  C   UNL     1      -4.649  -3.603  -1.666  0.00  0.00    +0.025 C 
ATOM     12  C   UNL     1      -4.987  -7.111  -1.816  0.00  0.00    +0.219 C 
ATOM     13  O   UNL     1      -5.607  -7.201  -2.855  0.00  0.00    -0.275 OA
ATOM     14  H   UNL     1      -4.566  -2.442   1.057  0.00  0.00    -0.082 HD
ATOM     15  H   UNL     1      -4.413  -1.541  -0.330  0.00  0.00    -0.082 HD
ENDROOT
BRANCH  12  16
ATOM     16  C   UNL     1      -5.036  -8.232  -0.810  0.00  0.00    +0.075 C 
ATOM     17  C   UNL     1      -3.686  -8.978  -0.784  0.00  0.00    +0.013 C 
ATOM     18  C   UNL     1      -4.077 -10.463  -0.576  0.00  0.00    +0.001 C 
ATOM     19  C   UNL     1      -5.361 -10.601  -1.431  0.00  0.00    +0.001 C 
ATOM     20  C   UNL     1      -6.101  -9.263  -1.221  0.00  0.00    +0.013 C 
ENDBRANCH  12  16
BRANCH   1  21
ATOM     21  C   UNL     1      -2.581  -0.242   0.723  0.00  0.00    -0.020 C 
ATOM     22  C   UNL     1      -2.885   0.292  -0.678  0.00  0.00    +0.006 C 
BRANCH  21  24
ATOM     23  C   UNL     1      -1.158   1.734   1.281  0.00  0.00    +0.004 C 
ATOM     24  C   UNL     1      -1.183   0.210   1.148  0.00  0.00    -0.001 C 
ENDBRANCH  21  24
ENDBRANCH   1  21
BRANCH   4  25
ATOM     25  C   UNL     1      -1.707  -4.086  -2.091  0.00  0.00    +0.141 C 
BRANCH  25  26
ATOM     26  C   UNL     1      -1.685  -3.261  -3.351  0.00  0.00    -0.030 A 
ATOM     27  C   UNL     1      -2.689  -3.407  -4.291  0.00  0.00    +0.005 A 
ATOM     28  C   UNL     1      -2.670  -2.651  -5.447  0.00  0.00    +0.001 A 
ATOM     29  C   UNL     1      -1.646  -1.747  -5.664  0.00  0.00    +0.012 A 
ATOM     30  C   UNL     1      -0.643  -1.600  -4.725  0.00  0.00    +0.055 A 
ATOM     31  C   UNL     1      -0.665  -2.354  -3.566  0.00  0.00    +0.017 A 
BRANCH  30  32
ATOM     32  C   UNL     1       0.473  -0.615  -4.962  0.00  0.00    +0.417 C 
ATOM     33  F   UNL     1       0.277   0.025  -6.191  0.00  0.00    -0.166 F 
ATOM     34  F   UNL     1       0.481   0.336  -3.937  0.00  0.00    -0.166 F 
ATOM     35  F   UNL     1       1.697  -1.293  -4.980  0.00  0.00    -0.166 F 
ENDBRANCH  30  32
ENDBRANCH  25  26
ENDBRANCH   4  25
TORSDOF 6
