REMARK  Name = ZINC50360936
REMARK  5 active torsions:
REMARK  status: ('A' for Active; 'I' for Inactive)
REMARK    1  A    between atoms: C_1  and  C_2
REMARK    2  A    between atoms: C_6  and  C_8
REMARK    3  A    between atoms: C_12  and  N_14
REMARK    4  A    between atoms: N_14  and  C_15
REMARK    5  A    between atoms: C_15  and  C_16
REMARK                            x       y       z     vdW  Elec       q    Type
REMARK                         _______ _______ _______ _____ _____    ______ ____
ROOT
ATOM      1  C   UNL     1       0.055  -3.230   1.592  0.00  0.00    +0.023 A 
ATOM      2  C   UNL     1       0.052  -3.039   2.973  0.00  0.00    +0.012 A 
ATOM      3  C   UNL     1       0.071  -4.128   3.821  0.00  0.00    +0.002 A 
ATOM      4  C   UNL     1       0.092  -5.411   3.305  0.00  0.00    +0.023 A 
ATOM      5  C   UNL     1       0.095  -5.611   1.930  0.00  0.00    +0.028 A 
ATOM      6  C   UNL     1       0.070  -4.521   1.071  0.00  0.00    +0.034 A 
ENDROOT
BRANCH   1  12
ATOM      7  C   UNL     1      -0.018   1.503   0.010  0.00  0.00    +0.087 C 
ATOM      8  C   UNL     1       0.002  -0.004   0.002  0.00  0.00    +0.122 A 
ATOM      9  N   UNL     1       0.008  -0.786  -1.093  0.00  0.00    -0.262 N 
ATOM     10  H   UNL     1      -0.001  -0.491  -2.017  0.00  0.00    +0.190 HD
ATOM     11  N   UNL     1       0.029  -2.114  -0.635  0.00  0.00    -0.152 NA
ATOM     12  C   UNL     1       0.034  -2.060   0.679  0.00  0.00    +0.181 A 
ATOM     13  N   UNL     1       0.023  -0.775   1.057  0.00  0.00    -0.212 NA
ENDBRANCH   1  12
BRANCH   5  14
ATOM     14  N   UNL     1       0.117  -6.908   1.413  0.00  0.00    -0.337 N 
ATOM     15  H   UNL     1       0.118  -7.047   0.453  0.00  0.00    +0.147 HD
BRANCH  14  16
ATOM     16  C   UNL     1       0.138  -8.058   2.320  0.00  0.00    +0.176 C 
BRANCH  16  17
ATOM     17  C   UNL     1       0.159  -9.332   1.515  0.00  0.00    +0.124 A 
ATOM     18  C   UNL     1       1.262  -9.981   1.099  0.00  0.00    +0.062 A 
ATOM     19  C   UNL     1       0.822 -11.119   0.384  0.00  0.00    +0.070 A 
ATOM     20  C   UNL     1      -0.524 -11.098   0.406  0.00  0.00    +0.184 A 
ATOM     21  O   UNL     1      -0.919 -10.015   1.097  0.00  0.00    -0.450 OA
ATOM     22 BR   UNL     1      -1.664 -12.377  -0.394  0.00  0.00    -0.007 Br
ATOM     23 BR   UNL     1       1.915 -12.421  -0.445  0.00  0.00    -0.046 Br
ENDBRANCH  16  17
ENDBRANCH  14  16
ENDBRANCH   5  14
TORSDOF 4
