REMARK  Name = ZINC63887189
REMARK  13 active torsions:
REMARK  status: ('A' for Active; 'I' for Inactive)
REMARK    1  A    between atoms: C_1  and  C_2
REMARK    2  A    between atoms: C_2  and  C_3
REMARK    3  A    between atoms: C_3  and  N_4
REMARK    4  A    between atoms: C_5  and  O_35
REMARK    5  A    between atoms: C_9  and  S_10
REMARK    6  A    between atoms: S_10  and  C_11
REMARK    7  A    between atoms: C_11  and  C_12
REMARK    8  A    between atoms: N_14  and  C_15
REMARK    9  A    between atoms: C_15  and  C_16
REMARK   10  A    between atoms: C_16  and  C_18
REMARK   11  A    between atoms: C_16  and  C_26
REMARK   12  A    between atoms: C_21  and  O_24
REMARK   13  A    between atoms: O_24  and  C_25
REMARK                            x       y       z     vdW  Elec       q    Type
REMARK                         _______ _______ _______ _____ _____    ______ ____
ROOT
ATOM      1  C   UNL     1      -1.283  -5.357   8.413  0.00  0.00    +0.064 C 
ENDROOT
BRANCH   1   2
ATOM      2  C   UNL     1       0.012  -6.088   8.168  0.00  0.00    -0.033 C 
ATOM      3  C   UNL     1       0.160  -7.335   7.665  0.00  0.00    -0.000 A 
ATOM      4  C   UNL     1      -0.805  -8.345   7.214  0.00  0.00    +0.010 A 
ATOM      5  C   UNL     1      -0.345  -9.530   6.751  0.00  0.00    +0.001 A 
ATOM      6  C   UNL     1       1.026  -9.816   6.691  0.00  0.00    +0.002 A 
ATOM      7  C   UNL     1       1.972  -8.938   7.087  0.00  0.00    +0.026 A 
ATOM      8  C   UNL     1       1.602  -7.661   7.592  0.00  0.00    +0.043 A 
ATOM      9  N   UNL     1       2.318  -6.655   8.032  0.00  0.00    -0.380 N 
ATOM     10  C   UNL     1       1.410  -5.573   8.429  0.00  0.00    +0.145 C 
ATOM     11  H   UNL     1       3.286  -6.629   8.082  0.00  0.00    +0.160 HD
ENDBRANCH   1   2
BRANCH   1  12
ATOM     12  C   UNL     1      -1.396  -5.011   9.875  0.00  0.00    -0.038 A 
ATOM     13  C   UNL     1      -0.444  -4.204  10.469  0.00  0.00    +0.008 A 
ATOM     14  C   UNL     1      -0.545  -3.885  11.810  0.00  0.00    +0.046 A 
ATOM     15  C   UNL     1      -1.604  -4.377  12.560  0.00  0.00    +0.120 A 
ATOM     16  C   UNL     1      -2.558  -5.186  11.961  0.00  0.00    +0.046 A 
ATOM     17  C   UNL     1      -2.455  -5.497  10.619  0.00  0.00    +0.008 A 
BRANCH  15  18
ATOM     18  O   UNL     1      -1.706  -4.066  13.879  0.00  0.00    -0.495 OA
ATOM     19  C   UNL     1      -2.822  -4.607  14.589  0.00  0.00    +0.277 C 
ENDBRANCH  15  18
ENDBRANCH   1  12
BRANCH   1  20
ATOM     20  C   UNL     1      -1.308  -4.073   7.582  0.00  0.00    +0.116 C 
BRANCH  20  23
ATOM     21  C   UNL     1      -1.341  -3.435   5.230  0.00  0.00    +0.223 C 
ATOM     22  O   UNL     1      -1.353  -2.272   5.576  0.00  0.00    -0.275 OA
ATOM     23  N   UNL     1      -1.319  -4.413   6.157  0.00  0.00    -0.314 N 
ATOM     24  H   UNL     1      -1.309  -5.343   5.880  0.00  0.00    +0.149 HD
BRANCH  21  25
ATOM     25  C   UNL     1      -1.351  -3.785   3.764  0.00  0.00    +0.172 C 
BRANCH  25  26
ATOM     26  S   UNL     1      -1.381  -2.262   2.779  0.00  0.00    -0.080 S 
BRANCH  26  31
ATOM     27  N   UNL     1      -1.413  -1.998   0.005  0.00  0.00    -0.267 N 
ATOM     28  C   UNL     1      -1.407  -2.872  -1.181  0.00  0.00    +0.314 C 
ATOM     29  N   UNL     1      -1.386  -4.233  -0.617  0.00  0.00    -0.223 N 
ATOM     30  N   UNL     1      -1.382  -4.079   0.775  0.00  0.00    -0.161 NA
ATOM     31  C   UNL     1      -1.391  -2.833   1.112  0.00  0.00    +0.177 C 
ATOM     32  H   UNL     1      -1.377  -5.068  -1.111  0.00  0.00    +0.172 HD
BRANCH  28  33
ATOM     33  O   UNL     1      -0.240  -2.636  -1.971  0.00  0.00    -0.358 OA
ATOM     34  H   UNL     1      -0.185  -3.186  -2.765  0.00  0.00    +0.213 HD
ENDBRANCH  28  33
BRANCH  27  35
ATOM     35  C   UNL     1      -1.433  -0.534   0.013  0.00  0.00    +0.111 C 
BRANCH  35  37
ATOM     36  C   UNL     1      -0.019   1.526   0.010  0.00  0.00    +0.005 C 
ATOM     37  C   UNL     1       0.002  -0.004   0.002  0.00  0.00    +0.016 C 
ENDBRANCH  35  37
ENDBRANCH  27  35
ENDBRANCH  26  31
ENDBRANCH  25  26
ENDBRANCH  21  25
ENDBRANCH  20  23
ENDBRANCH   1  20
TORSDOF 11
