REMARK  Name = ZINC36026963
REMARK  7 active torsions:
REMARK  status: ('A' for Active; 'I' for Inactive)
REMARK    1  A    between atoms: C_4  and  C_7
REMARK    2  A    between atoms: C_7  and  C_8
REMARK    3  A    between atoms: N_12  and  C_30
REMARK    4  A    between atoms: N_17  and  C_20
REMARK    5  A    between atoms: C_20  and  N_22
REMARK    6  A    between atoms: N_22  and  C_23
REMARK    7  A    between atoms: C_30  and  C_31
REMARK                            x       y       z     vdW  Elec       q    Type
REMARK                         _______ _______ _______ _____ _____    ______ ____
ROOT
ATOM      1  C   UNL     1       4.012  -1.489   1.478  0.00  0.00    +0.023 C 
ATOM      2  C   UNL     1       5.260  -2.323   1.672  0.00  0.00    +0.201 C 
ATOM      3  O   UNL     1       5.383  -3.493   1.380  0.00  0.00    -0.277 OA
ATOM      4  N   UNL     1       6.213  -1.543   2.225  0.00  0.00    -0.309 N 
ATOM      5  C   UNL     1       5.682  -0.194   2.433  0.00  0.00    +0.006 C 
ATOM      6  N   UNL     1       4.472  -0.084   1.588  0.00  0.00    +0.401 N 
ATOM      7  C   UNL     1       6.709   0.852   2.003  0.00  0.00    +0.025 C 
ATOM      8  C   UNL     1       7.972   0.705   2.859  0.00  0.00    +0.107 C 
ATOM      9  N   UNL     1       7.591   0.768   4.277  0.00  0.00    -0.312 N 
ATOM     10  C   UNL     1       6.554  -0.148   4.772  0.00  0.00    +0.107 C 
ATOM     11  C   UNL     1       5.304   0.005   3.899  0.00  0.00    +0.025 C 
ATOM     12  H   UNL     1       4.705   0.287   0.679  0.00  0.00    -0.082 HD
ATOM     13  H   UNL     1       3.771   0.486   2.038  0.00  0.00    -0.082 HD
ENDROOT
BRANCH   9  14
ATOM     14  C   UNL     1       8.181   1.649   5.108  0.00  0.00    +0.137 C 
ATOM     15  S   UNL     1       9.291   2.797   4.490  0.00  0.00    -0.018 S 
BRANCH  14  16
ATOM     16  N   UNL     1       7.899   1.626   6.426  0.00  0.00    -0.295 N 
ATOM     17  H   UNL     1       7.279   2.272   6.800  0.00  0.00    +0.154 HD
BRANCH  16  18
ATOM     18  C   UNL     1       8.499   0.670   7.254  0.00  0.00    +0.068 A 
ATOM     19  C   UNL     1       9.309  -0.315   6.706  0.00  0.00    +0.026 A 
ATOM     20  C   UNL     1       9.900  -1.256   7.526  0.00  0.00    +0.002 A 
ATOM     21  C   UNL     1       9.687  -1.219   8.892  0.00  0.00    +0.003 A 
ATOM     22  C   UNL     1       8.881  -0.240   9.442  0.00  0.00    +0.040 A 
ATOM     23  C   UNL     1       8.290   0.709   8.628  0.00  0.00    +0.144 A 
ATOM     24  F   UNL     1       7.506   1.669   9.167  0.00  0.00    -0.204 F 
ENDBRANCH  16  18
ENDBRANCH  14  16
ENDBRANCH   9  14
BRANCH   1  25
ATOM     25  C   UNL     1       3.410  -1.746   0.095  0.00  0.00    +0.028 C 
BRANCH  25  29
ATOM     26  C   UNL     1      -0.183   0.523  -0.341  0.00  0.00    +0.000 A 
ATOM     27  C   UNL     1       1.030   1.070  -0.714  0.00  0.00    +0.000 A 
ATOM     28  C   UNL     1       2.193   0.336  -0.573  0.00  0.00    +0.003 A 
ATOM     29  C   UNL     1       2.143  -0.946  -0.058  0.00  0.00    -0.048 A 
ATOM     30  C   UNL     1       0.930  -1.493   0.316  0.00  0.00    +0.003 A 
ATOM     31  C   UNL     1      -0.233  -0.759   0.174  0.00  0.00    +0.000 A 
ENDBRANCH  25  29
ENDBRANCH   1  25
BRANCH   4  32
ATOM     32  C   UNL     1       7.570  -1.979   2.564  0.00  0.00    +0.141 C 
BRANCH  32  33
ATOM     33  C   UNL     1       8.405  -2.045   1.311  0.00  0.00    -0.030 A 
ATOM     34  C   UNL     1       8.368  -3.175   0.515  0.00  0.00    +0.005 A 
ATOM     35  C   UNL     1       9.133  -3.235  -0.635  0.00  0.00    +0.000 A 
ATOM     36  C   UNL     1       9.936  -2.167  -0.988  0.00  0.00    +0.000 A 
ATOM     37  C   UNL     1       9.972  -1.037  -0.192  0.00  0.00    +0.000 A 
ATOM     38  C   UNL     1       9.203  -0.974   0.955  0.00  0.00    +0.005 A 
ENDBRANCH  32  33
ENDBRANCH   4  32
TORSDOF 7
