REMARK  Name = ZINC39675770
REMARK  9 active torsions:
REMARK  status: ('A' for Active; 'I' for Inactive)
REMARK    1  A    between atoms: C_1  and  N_2
REMARK    2  A    between atoms: C_6  and  C_7
REMARK    3  A    between atoms: C_11  and  C_20
REMARK    4  A    between atoms: N_22  and  C_23
REMARK    5  A    between atoms: C_23  and  C_24
REMARK    6  A    between atoms: C_24  and  C_26
REMARK    7  A    between atoms: C_24  and  N_32
REMARK    8  A    between atoms: N_32  and  C_33
REMARK    9  A    between atoms: N_32  and  C_34
REMARK                            x       y       z     vdW  Elec       q    Type
REMARK                         _______ _______ _______ _____ _____    ______ ____
ROOT
ATOM      1  C   UNL     1      -0.257  -0.342   2.959  0.00  0.00    +0.263 C 
ATOM      2  O   UNL     1      -0.170  -1.082   3.921  0.00  0.00    -0.268 OA
ATOM      3  N   UNL     1      -0.436   0.981   3.141  0.00  0.00    -0.295 N 
ATOM      4  C   UNL     1      -0.707   2.011   2.110  0.00  0.00    +0.121 C 
ATOM      5  C   UNL     1      -1.741   2.955   2.764  0.00  0.00    +0.100 C 
ATOM      6  C   UNL     1      -1.538   2.772   4.277  0.00  0.00    -0.004 C 
ATOM      7  C   UNL     1      -0.414   1.734   4.417  0.00  0.00    +0.115 C 
ATOM      8  C   UNL     1      -2.817   2.245   4.921  0.00  0.00    -0.010 C 
ATOM      9  C   UNL     1      -2.608   2.125   6.434  0.00  0.00    -0.082 C 
ATOM     10  N   UNL     1      -2.262   3.439   6.988  0.00  0.00    +0.379 N 
ATOM     11  C   UNL     1      -0.983   3.897   6.431  0.00  0.00    -0.082 C 
ATOM     12  C   UNL     1      -1.123   4.092   4.919  0.00  0.00    -0.010 C 
ATOM     13  H   UNL     1      -2.986   4.103   6.754  0.00  0.00    -0.086 HD
ATOM     14  H   UNL     1      -2.185   3.370   7.992  0.00  0.00    -0.086 HD
ENDROOT
BRANCH   1  20
ATOM     15  C   UNL     1      -0.184  -3.346   2.205  0.00  0.00    +0.149 C 
ATOM     16  N   UNL     1      -0.134  -2.225   1.264  0.00  0.00    -0.346 N 
ATOM     17  C   UNL     1      -0.052  -2.328  -0.085  0.00  0.00    +0.086 A 
ATOM     18  C   UNL     1      -0.027  -1.083  -0.619  0.00  0.00    +0.020 A 
ATOM     19  C   UNL     1      -0.095  -0.164   0.432  0.00  0.00    +0.032 A 
ATOM     20  C   UNL     1      -0.166  -0.891   1.602  0.00  0.00    +0.104 A 
ENDBRANCH   1  20
BRANCH   5  21
ATOM     21  C   UNL     1      -1.471   4.384   2.365  0.00  0.00    +0.218 C 
ATOM     22  O   UNL     1      -0.331   4.763   2.200  0.00  0.00    -0.275 OA
ATOM     23  N   UNL     1      -2.498   5.240   2.193  0.00  0.00    -0.316 N 
ATOM     24  H   UNL     1      -3.410   4.937   2.326  0.00  0.00    +0.149 HD
BRANCH  23  25
ATOM     25  C   UNL     1      -2.236   6.629   1.806  0.00  0.00    +0.093 C 
BRANCH  25  26
ATOM     26  C   UNL     1      -3.550   7.413   1.801  0.00  0.00    -0.021 C 
BRANCH  26  27
ATOM     27  C   UNL     1      -4.103   7.476   3.201  0.00  0.00    -0.059 A 
ATOM     28  C   UNL     1      -3.602   8.399   4.101  0.00  0.00    +0.002 A 
ATOM     29  C   UNL     1      -4.109   8.457   5.386  0.00  0.00    +0.000 A 
ATOM     30  C   UNL     1      -5.117   7.593   5.771  0.00  0.00    +0.000 A 
ATOM     31  C   UNL     1      -5.619   6.671   4.871  0.00  0.00    +0.000 A 
ATOM     32  C   UNL     1      -5.114   6.616   3.585  0.00  0.00    +0.002 A 
ENDBRANCH  26  27
BRANCH  26  33
ATOM     33  N   UNL     1      -3.305   8.775   1.309  0.00  0.00    +0.382 N 
ATOM     34  C   UNL     1      -2.874   8.719  -0.094  0.00  0.00    -0.096 C 
ATOM     35  C   UNL     1      -4.541   9.562   1.411  0.00  0.00    -0.096 C 
ATOM     36  H   UNL     1      -2.583   9.209   1.865  0.00  0.00    -0.082 HD
ENDBRANCH  26  33
ENDBRANCH  25  26
ENDBRANCH  23  25
ENDBRANCH   5  21
TORSDOF 6
