REMARK  Name = ZINC07552930
REMARK  7 active torsions:
REMARK  status: ('A' for Active; 'I' for Inactive)
REMARK    1  A    between atoms: C_1  and  C_2
REMARK    2  A    between atoms: C_3  and  C_17
REMARK    3  A    between atoms: C_4  and  C_10
REMARK    4  A    between atoms: N_19  and  C_20
REMARK    5  A    between atoms: C_25  and  C_26
REMARK    6  A    between atoms: C_26  and  C_27
REMARK    7  A    between atoms: C_26  and  C_28
REMARK                            x       y       z     vdW  Elec       q    Type
REMARK                         _______ _______ _______ _____ _____    ______ ____
ROOT
ATOM      1  C   UNL     1       2.154  -3.903  -3.322  0.00  0.00    +0.061 C 
ATOM      2  C   UNL     1       2.171  -3.409  -1.898  0.00  0.00    +0.017 C 
ATOM      3  C   UNL     1       1.162  -2.631  -1.453  0.00  0.00    +0.056 C 
ATOM      4  C   UNL     1       1.218  -2.157  -0.015  0.00  0.00    +0.139 C 
ATOM      5  N   UNL     1       2.377  -2.588   0.785  0.00  0.00    -0.315 N 
ATOM      6  C   UNL     1       3.307  -3.368   0.199  0.00  0.00    +0.135 C 
ATOM      7  S   UNL     1       4.660  -3.876   1.116  0.00  0.00    -0.019 S 
ATOM      8  N   UNL     1       3.207  -3.757  -1.079  0.00  0.00    -0.300 N 
ATOM      9  H   UNL     1       2.469  -2.317   1.712  0.00  0.00    +0.149 HD
ATOM     10  H   UNL     1       3.909  -4.319  -1.442  0.00  0.00    +0.154 HD
ENDROOT
BRANCH   4  11
ATOM     11  C   UNL     1       1.192  -0.650  -0.021  0.00  0.00    -0.020 A 
ATOM     12  C   UNL     1       2.377   0.061  -0.035  0.00  0.00    +0.006 A 
ATOM     13  C   UNL     1       2.355   1.443  -0.040  0.00  0.00    +0.003 A 
ATOM     14  C   UNL     1       1.147   2.116  -0.031  0.00  0.00    +0.038 A 
ATOM     15  C   UNL     1      -0.040   1.404  -0.017  0.00  0.00    +0.124 A 
ATOM     16  C   UNL     1      -0.017   0.020  -0.011  0.00  0.00    +0.044 A 
ATOM     17  F   UNL     1      -1.221   2.060  -0.013  0.00  0.00    -0.205 F 
ENDBRANCH   4  11
BRANCH   3  18
ATOM     18  C   UNL     1       0.088  -2.269  -2.302  0.00  0.00    +0.248 C 
ATOM     19  O   UNL     1      -1.020  -2.740  -2.117  0.00  0.00    -0.270 OA
ATOM     20  N   UNL     1       0.291  -1.403  -3.314  0.00  0.00    -0.281 N 
ATOM     21  H   UNL     1       1.188  -1.091  -3.513  0.00  0.00    +0.155 HD
BRANCH  20  22
ATOM     22  C   UNL     1      -0.790  -0.954  -4.078  0.00  0.00    +0.037 A 
ATOM     23  C   UNL     1      -2.070  -0.949  -3.538  0.00  0.00    +0.023 A 
ATOM     24  C   UNL     1      -3.136  -0.505  -4.295  0.00  0.00    +0.002 A 
ATOM     25  C   UNL     1      -2.931  -0.063  -5.589  0.00  0.00    +0.000 A 
ATOM     26  C   UNL     1      -1.658  -0.066  -6.130  0.00  0.00    +0.006 A 
ATOM     27  C   UNL     1      -0.587  -0.505  -5.377  0.00  0.00    -0.024 A 
BRANCH  27  28
ATOM     28  C   UNL     1       0.800  -0.502  -5.965  0.00  0.00    +0.015 C 
ATOM     29  C   UNL     1       0.800  -1.290  -7.276  0.00  0.00    +0.012 C 
ATOM     30  C   UNL     1       1.236   0.939  -6.236  0.00  0.00    +0.012 C 
ENDBRANCH  27  28
ENDBRANCH  20  22
ENDBRANCH   3  18
TORSDOF 4
