REMARK  Name = ZINC39440670
REMARK  6 active torsions:
REMARK  status: ('A' for Active; 'I' for Inactive)
REMARK    1  A    between atoms: C_7  and  C_10
REMARK    2  A    between atoms: N_11  and  N_12
REMARK    3  A    between atoms: C_15  and  S_18
REMARK    4  A    between atoms: S_18  and  C_19
REMARK    5  A    between atoms: C_19  and  C_20
REMARK    6  A    between atoms: N_22  and  C_23
REMARK                            x       y       z     vdW  Elec       q    Type
REMARK                         _______ _______ _______ _____ _____    ______ ____
ROOT
ATOM      1  N   UNL     1      -1.819  -7.768  -3.384  0.00  0.00    -0.205 N 
ATOM      2  C   UNL     1      -0.939  -8.627  -2.752  0.00  0.00    +0.232 A 
ATOM      3  N   UNL     1       0.158  -9.134  -3.274  0.00  0.00    -0.186 NA
ATOM      4  C   UNL     1       0.761  -9.921  -2.378  0.00  0.00    +0.211 A 
ATOM      5  N   UNL     1       0.056  -9.926  -1.271  0.00  0.00    -0.144 NA
ATOM      6  N   UNL     1      -1.051  -9.089  -1.488  0.00  0.00    -0.245 N 
ATOM      7  H   UNL     1      -2.602  -7.442  -2.913  0.00  0.00    +0.177 HD
ATOM      8  H   UNL     1      -1.757  -8.884  -0.855  0.00  0.00    +0.192 HD
ENDROOT
BRANCH   1  10
ATOM      9  C   UNL     1      -2.434  -6.584  -5.201  0.00  0.00    +0.136 C 
ATOM     10  N   UNL     1      -1.599  -7.399  -4.601  0.00  0.00    -0.188 NA
BRANCH   9  17
ATOM     11  C   UNL     1      -4.728  -3.855  -8.002  0.00  0.00    +0.001 A 
ATOM     12  C   UNL     1      -4.135  -3.720  -9.259  0.00  0.00    +0.002 A 
ATOM     13  C   UNL     1      -2.982  -4.359  -9.578  0.00  0.00    +0.026 A 
ATOM     14  C   UNL     1      -2.348  -5.191  -8.620  0.00  0.00    +0.043 A 
ATOM     15  N   UNL     1      -1.243  -5.907  -8.682  0.00  0.00    -0.380 N 
ATOM     16  C   UNL     1      -1.035  -6.590  -7.401  0.00  0.00    +0.150 C 
ATOM     17  C   UNL     1      -2.195  -6.185  -6.518  0.00  0.00    +0.000 C 
ATOM     18  C   UNL     1      -2.978  -5.329  -7.297  0.00  0.00    +0.004 A 
ATOM     19  C   UNL     1      -4.178  -4.635  -7.036  0.00  0.00    +0.010 A 
ATOM     20  H   UNL     1      -0.659  -5.972  -9.453  0.00  0.00    +0.160 HD
ENDBRANCH   9  17
ENDBRANCH   1  10
BRANCH   4  21
ATOM     21  S   UNL     1       2.260 -10.808  -2.641  0.00  0.00    -0.075 S 
BRANCH  21  22
ATOM     22  C   UNL     1       2.541 -11.670  -1.069  0.00  0.00    +0.173 C 
BRANCH  22  23
ATOM     23  C   UNL     1       3.810 -12.478  -1.159  0.00  0.00    +0.228 C 
ATOM     24  O   UNL     1       4.461 -12.473  -2.183  0.00  0.00    -0.275 OA
ATOM     25  N   UNL     1       4.222 -13.206  -0.102  0.00  0.00    -0.280 N 
ATOM     26  H   UNL     1       3.743 -13.153   0.740  0.00  0.00    +0.155 HD
BRANCH  25  27
ATOM     27  C   UNL     1       5.342 -14.040  -0.219  0.00  0.00    +0.105 A 
ATOM     28  C   UNL     1       5.191 -15.354  -0.646  0.00  0.00    +0.147 A 
ATOM     29  C   UNL     1       6.300 -16.174  -0.760  0.00  0.00    +0.040 A 
ATOM     30  C   UNL     1       7.557 -15.687  -0.450  0.00  0.00    +0.006 A 
ATOM     31  C   UNL     1       7.711 -14.380  -0.026  0.00  0.00    +0.040 A 
ATOM     32  C   UNL     1       6.608 -13.553   0.086  0.00  0.00    +0.147 A 
ATOM     33  F   UNL     1       6.760 -12.274   0.495  0.00  0.00    -0.203 F 
ATOM     34  F   UNL     1       3.964 -15.830  -0.948  0.00  0.00    -0.203 F 
ENDBRANCH  25  27
ENDBRANCH  22  23
ENDBRANCH  21  22
ENDBRANCH   4  21
TORSDOF 6
