REMARK  Name = ZINC08156080
REMARK  5 active torsions:
REMARK  status: ('A' for Active; 'I' for Inactive)
REMARK    1  A    between atoms: C_1  and  C_2
REMARK    2  A    between atoms: C_2  and  C_4
REMARK    3  A    between atoms: C_2  and  N_14
REMARK    4  A    between atoms: C_15  and  C_17
REMARK    5  A    between atoms: C_17  and  N_18
REMARK                            x       y       z     vdW  Elec       q    Type
REMARK                         _______ _______ _______ _____ _____    ______ ____
ROOT
ATOM      1  C   UNL     1      -3.442  -1.177   1.191  0.00  0.00    +0.213 C 
ENDROOT
BRANCH   1   2
ATOM      2  N   UNL     1      -3.929  -1.240   2.572  0.00  0.00    -0.215 N 
ATOM      3  C   UNL     1      -3.791  -2.316   3.377  0.00  0.00    +0.251 C 
ATOM      4  O   UNL     1      -3.260  -3.373   3.109  0.00  0.00    -0.272 OA
ATOM      5  C   UNL     1      -4.435  -1.921   4.680  0.00  0.00    +0.138 C 
ATOM      6  C   UNL     1      -5.593  -2.862   5.037  0.00  0.00    +0.045 C 
ATOM      7  C   UNL     1      -5.532  -2.882   6.581  0.00  0.00    +0.038 C 
ATOM      8  C   UNL     1      -4.095  -2.553   6.927  0.00  0.00    -0.042 A 
ATOM      9  C   UNL     1      -3.464  -1.996   5.827  0.00  0.00    -0.012 A 
ATOM     10  C   UNL     1      -2.135  -1.615   5.918  0.00  0.00    +0.006 A 
ATOM     11  C   UNL     1      -1.440  -1.788   7.098  0.00  0.00    +0.000 A 
ATOM     12  C   UNL     1      -2.070  -2.346   8.195  0.00  0.00    +0.000 A 
ATOM     13  C   UNL     1      -3.395  -2.726   8.108  0.00  0.00    +0.004 A 
ATOM     14  N   UNL     1      -4.909  -0.554   4.458  0.00  0.00    -0.281 N 
ATOM     15  C   UNL     1      -4.562  -0.237   3.194  0.00  0.00    +0.310 C 
ATOM     16  O   UNL     1      -4.800   0.837   2.677  0.00  0.00    -0.252 OA
ATOM     17  H   UNL     1      -5.375   0.011   5.094  0.00  0.00    +0.152 HD
ENDBRANCH   1   2
BRANCH   1  19
ATOM     18  N   UNL     1      -1.372  -0.511   0.012  0.00  0.00    -0.307 N 
ATOM     19  C   UNL     1      -2.029  -0.655   1.181  0.00  0.00    +0.231 C 
ATOM     20  O   UNL     1      -1.481  -0.365   2.224  0.00  0.00    -0.274 OA
ATOM     21  H   UNL     1      -1.810  -0.743  -0.822  0.00  0.00    +0.149 HD
BRANCH  18  23
ATOM     22  C   UNL     1      -0.019   1.526   0.010  0.00  0.00    +0.033 C 
ATOM     23  C   UNL     1       0.002  -0.004   0.002  0.00  0.00    +0.100 C 
BRANCH  23  24
ATOM     24  C   UNL     1       0.707  -0.490  -1.238  0.00  0.00    -0.024 A 
ATOM     25  C   UNL     1       0.036  -0.521  -2.446  0.00  0.00    +0.009 A 
ATOM     26  C   UNL     1       0.679  -0.967  -3.585  0.00  0.00    +0.050 A 
ATOM     27  C   UNL     1       2.000  -1.385  -3.519  0.00  0.00    +0.162 A 
ATOM     28  C   UNL     1       2.676  -1.352  -2.305  0.00  0.00    +0.162 A 
ATOM     29  C   UNL     1       2.026  -0.899  -1.166  0.00  0.00    +0.055 A 
ATOM     30  O   UNL     1       3.974  -1.750  -2.219  0.00  0.00    -0.485 OA
ATOM     31  C   UNL     1       4.478  -2.540  -3.301  0.00  0.00    +0.270 C 
ATOM     32  C   UNL     1       4.050  -1.880  -4.619  0.00  0.00    +0.270 C 
ATOM     33  O   UNL     1       2.619  -1.826  -4.648  0.00  0.00    -0.485 OA
ENDBRANCH  23  24
ENDBRANCH  18  23
ENDBRANCH   1  19
TORSDOF 4
