REMARK  Name = ZINC05347902
REMARK  9 active torsions:
REMARK  status: ('A' for Active; 'I' for Inactive)
REMARK    1  A    between atoms: C_1  and  C_2
REMARK    2  A    between atoms: C_2  and  C_3
REMARK    3  A    between atoms: C_2  and  C_4
REMARK    4  A    between atoms: C_4  and  C_5
REMARK    5  A    between atoms: N_13  and  C_16
REMARK    6  A    between atoms: C_16  and  C_17
REMARK    7  A    between atoms: C_17  and  C_18
REMARK    8  A    between atoms: C_18  and  O_19
REMARK    9  A    between atoms: O_19  and  C_20
REMARK                            x       y       z     vdW  Elec       q    Type
REMARK                         _______ _______ _______ _____ _____    ______ ____
ROOT
ATOM      1  C   UNL     1      -1.416  -2.058  -0.121  0.00  0.00    -0.057 C 
ATOM      2  C   UNL     1      -2.849  -2.622  -0.025  0.00  0.00    +0.073 C 
ATOM      3  C   UNL     1      -2.888  -3.791  -1.048  0.00  0.00    +0.088 C 
ATOM      4  C   UNL     1      -3.887  -3.316  -2.080  0.00  0.00    +0.225 C 
ATOM      5  O   UNL     1      -4.226  -3.938  -3.064  0.00  0.00    -0.275 OA
ATOM      6  N   UNL     1      -4.338  -2.104  -1.738  0.00  0.00    -0.242 N 
ATOM      7  C   UNL     1      -3.822  -1.612  -0.588  0.00  0.00    +0.224 C 
ATOM      8  O   UNL     1      -4.089  -0.540  -0.087  0.00  0.00    -0.275 OA
ATOM      9  C   UNL     1      -1.478  -3.821  -1.652  0.00  0.00    +0.050 C 
ATOM     10  N   UNL     1      -0.937  -2.453  -1.473  0.00  0.00    +0.394 N 
ATOM     11  C   UNL     1      -1.508  -4.202  -3.105  0.00  0.00    -0.025 A 
ATOM     12  C   UNL     1      -2.113  -3.658  -4.216  0.00  0.00    +0.043 A 
ATOM     13  C   UNL     1      -1.949  -4.253  -5.456  0.00  0.00    +0.124 A 
ATOM     14  C   UNL     1      -1.177  -5.396  -5.574  0.00  0.00    +0.040 A 
ATOM     15  C   UNL     1      -0.571  -5.945  -4.463  0.00  0.00    +0.026 A 
ATOM     16  C   UNL     1      -0.730  -5.351  -3.213  0.00  0.00    +0.036 A 
ATOM     17  N   UNL     1      -0.225  -5.712  -1.960  0.00  0.00    -0.286 N 
ATOM     18  C   UNL     1      -0.618  -4.863  -0.991  0.00  0.00    +0.211 C 
ATOM     19  O   UNL     1      -0.334  -4.927   0.186  0.00  0.00    -0.277 OA
ATOM     20  F   UNL     1      -2.541  -3.719  -6.548  0.00  0.00    -0.205 F 
ATOM     21  H   UNL     1      -1.301  -1.825  -2.174  0.00  0.00    -0.083 HD
ATOM     22  H   UNL     1       0.343  -6.483  -1.807  0.00  0.00    +0.155 HD
ATOM     23  H   UNL     1       0.071  -2.469  -1.500  0.00  0.00    -0.083 HD
ENDROOT
BRANCH   1  24
ATOM     24  C   UNL     1      -1.433  -0.534   0.013  0.00  0.00    -0.012 C 
BRANCH  24  26
ATOM     25  C   UNL     1      -0.019   1.526   0.010  0.00  0.00    +0.007 C 
ATOM     26  C   UNL     1       0.002  -0.004   0.002  0.00  0.00    -0.019 C 
ATOM     27  C   UNL     1       0.742  -0.511   1.242  0.00  0.00    +0.007 C 
ENDBRANCH  24  26
ENDBRANCH   1  24
BRANCH   6  28
ATOM     28  C   UNL     1      -5.318  -1.368  -2.540  0.00  0.00    +0.118 C 
BRANCH  28  29
ATOM     29  C   UNL     1      -6.731  -1.722  -2.071  0.00  0.00    +0.047 C 
BRANCH  29  30
ATOM     30  C   UNL     1      -7.754  -0.954  -2.909  0.00  0.00    +0.161 C 
BRANCH  30  31
ATOM     31  O   UNL     1      -9.073  -1.284  -2.470  0.00  0.00    -0.383 OA
ATOM     32  C   UNL     1     -10.110  -0.617  -3.192  0.00  0.00    +0.193 C 
ENDBRANCH  30  31
ENDBRANCH  29  30
ENDBRANCH  28  29
ENDBRANCH   6  28
TORSDOF 6
