REMARK  Name = ZINC12323191
REMARK  5 active torsions:
REMARK  status: ('A' for Active; 'I' for Inactive)
REMARK    1  A    between atoms: C_9  and  S_14
REMARK    2  A    between atoms: S_14  and  C_15
REMARK    3  A    between atoms: C_15  and  C_16
REMARK    4  A    between atoms: C_16  and  C_17
REMARK    5  A    between atoms: N_19  and  C_20
REMARK                            x       y       z     vdW  Elec       q    Type
REMARK                         _______ _______ _______ _____ _____    ______ ____
ROOT
ATOM      1  C   UNL     1       5.919  -4.454  -0.001  0.00  0.00    +0.079 C 
ENDROOT
BRANCH   1   2
ATOM      2  S   UNL     1       4.426  -4.304  -1.021  0.00  0.00    -0.148 S 
BRANCH   2  11
ATOM      3  C   UNL     1      -0.017   1.372   0.010  0.00  0.00    +0.000 A 
ATOM      4  C   UNL     1       1.179   2.068   0.002  0.00  0.00    +0.002 A 
ATOM      5  C   UNL     1       2.365   1.376  -0.009  0.00  0.00    +0.023 A 
ATOM      6  C   UNL     1       2.396  -0.029  -0.019  0.00  0.00    +0.037 A 
ATOM      7  C   UNL     1       1.202  -0.717  -0.015  0.00  0.00    -0.026 A 
ATOM      8  C   UNL     1       0.002  -0.004   0.002  0.00  0.00    +0.005 A 
ATOM      9  C   UNL     1       1.065  -2.205  -0.038  0.00  0.00    +0.038 C 
ATOM     10  C   UNL     1       2.088  -2.941  -0.845  0.00  0.00    +0.028 C 
ATOM     11  C   UNL     1       3.424  -3.065  -0.153  0.00  0.00    +0.133 C 
ATOM     12  C   UNL     1       4.162  -1.775  -0.136  0.00  0.00    +0.230 C 
ATOM     13  O   UNL     1       5.368  -1.841  -0.249  0.00  0.00    -0.274 OA
ATOM     14  N   UNL     1       3.656  -0.581  -0.012  0.00  0.00    -0.284 N 
ATOM     15  H   UNL     1       4.343   0.091   0.116  0.00  0.00    +0.155 HD
ENDBRANCH   2  11
ENDBRANCH   1   2
BRANCH   1  16
ATOM     16  C   UNL     1       6.863  -5.481  -0.628  0.00  0.00    +0.106 C 
BRANCH  16  17
ATOM     17  C   UNL     1       8.103  -5.606   0.219  0.00  0.00    +0.214 C 
ATOM     18  O   UNL     1       8.220  -4.938   1.225  0.00  0.00    -0.276 OA
ATOM     19  N   UNL     1       9.082  -6.459  -0.141  0.00  0.00    -0.312 N 
ATOM     20  H   UNL     1       8.989  -6.993  -0.945  0.00  0.00    +0.149 HD
BRANCH  19  21
ATOM     21  C   UNL     1      10.288  -6.580   0.683  0.00  0.00    +0.082 C 
ATOM     22  C   UNL     1      11.387  -5.614   0.191  0.00  0.00    +0.058 C 
ATOM     23  C   UNL     1      12.690  -6.355   0.405  0.00  0.00    -0.042 A 
ATOM     24  C   UNL     1      13.992  -5.886   0.448  0.00  0.00    +0.004 A 
ATOM     25  C   UNL     1      15.040  -6.761   0.659  0.00  0.00    +0.000 A 
ATOM     26  C   UNL     1      14.788  -8.110   0.830  0.00  0.00    +0.000 A 
ATOM     27  C   UNL     1      13.490  -8.580   0.788  0.00  0.00    +0.004 A 
ATOM     28  C   UNL     1      12.438  -7.704   0.576  0.00  0.00    -0.042 A 
ATOM     29  C   UNL     1      10.949  -7.961   0.488  0.00  0.00    +0.058 C 
ENDBRANCH  19  21
ENDBRANCH  16  17
ENDBRANCH   1  16
TORSDOF 5
