REMARK  Name = ZINC63176252
REMARK  9 active torsions:
REMARK  status: ('A' for Active; 'I' for Inactive)
REMARK    1  A    between atoms: C_1  and  C_2
REMARK    2  A    between atoms: C_3  and  C_23
REMARK    3  A    between atoms: C_4  and  C_22
REMARK    4  A    between atoms: C_5  and  S_10
REMARK    5  A    between atoms: C_6  and  C_9
REMARK    6  A    between atoms: C_7  and  C_8
REMARK    7  A    between atoms: S_10  and  N_13
REMARK    8  A    between atoms: N_13  and  C_14
REMARK    9  A    between atoms: C_19  and  N_21
REMARK                            x       y       z     vdW  Elec       q    Type
REMARK                         _______ _______ _______ _____ _____    ______ ____
ROOT
ATOM      1  S   UNL     1       1.162  -4.912  -0.422  0.00  0.00    +0.059 S 
ATOM      2  O   UNL     1       1.700  -5.185  -1.709  0.00  0.00    -0.153 OA
ATOM      3  O   UNL     1       1.832  -5.276   0.776  0.00  0.00    -0.153 OA
ENDROOT
BRANCH   1   8
ATOM      4  C   UNL     1       0.262   1.048  -0.155  0.00  0.00    +0.044 C 
ATOM      5  C   UNL     1       0.487  -0.441  -0.222  0.00  0.00    -0.044 A 
ATOM      6  C   UNL     1       0.664  -1.059  -1.446  0.00  0.00    -0.043 A 
ATOM      7  C   UNL     1       0.870  -2.425  -1.507  0.00  0.00    -0.021 A 
ATOM      8  C   UNL     1       0.900  -3.172  -0.344  0.00  0.00    +0.112 A 
ATOM      9  C   UNL     1       0.724  -2.553   0.879  0.00  0.00    -0.021 A 
ATOM     10  C   UNL     1       0.522  -1.187   0.941  0.00  0.00    -0.043 A 
ATOM     11  C   UNL     1       0.336  -0.512   2.275  0.00  0.00    +0.044 C 
ATOM     12  C   UNL     1       0.757  -3.368   2.147  0.00  0.00    +0.046 C 
ATOM     13  C   UNL     1       1.062  -3.099  -2.841  0.00  0.00    +0.046 C 
ATOM     14  C   UNL     1       0.631  -0.244  -2.713  0.00  0.00    +0.044 C 
ENDBRANCH   1   8
BRANCH   1  15
ATOM     15  N   UNL     1      -0.327  -5.635  -0.370  0.00  0.00    -0.188 NA
ATOM     16  H   UNL     1      -0.572  -6.187   0.389  0.00  0.00    +0.148 HD
BRANCH  15  17
ATOM     17  C   UNL     1      -1.275  -5.439  -1.470  0.00  0.00    +0.062 C 
ATOM     18  C   UNL     1      -2.451  -4.532  -1.026  0.00  0.00    +0.019 C 
ATOM     19  C   UNL     1      -3.599  -4.905  -1.986  0.00  0.00    -0.000 C 
ATOM     20  C   UNL     1      -3.303  -6.327  -2.495  0.00  0.00    -0.015 C 
ATOM     21  C   UNL     1      -1.981  -6.769  -1.829  0.00  0.00    -0.056 C 
BRANCH  21  22
ATOM     22  N   UNL     1      -1.163  -7.548  -2.769  0.00  0.00    +0.381 N 
ATOM     23  H   UNL     1      -0.270  -7.754  -2.347  0.00  0.00    -0.090 HD
ATOM     24  H   UNL     1      -1.636  -8.410  -2.993  0.00  0.00    -0.090 HD
ATOM     25  H   UNL     1      -1.020  -7.013  -3.613  0.00  0.00    -0.090 HD
ENDBRANCH  21  22
ENDBRANCH  15  17
ENDBRANCH   1  15
TORSDOF 4
