REMARK  Name = ZINC28761913
REMARK  8 active torsions:
REMARK  status: ('A' for Active; 'I' for Inactive)
REMARK    1  A    between atoms: C_1  and  C_2
REMARK    2  A    between atoms: C_2  and  C_4
REMARK    3  A    between atoms: C_2  and  S_19
REMARK    4  A    between atoms: N_6  and  C_7
REMARK    5  A    between atoms: C_15  and  C_16
REMARK    6  A    between atoms: C_16  and  C_18
REMARK    7  A    between atoms: S_19  and  C_20
REMARK    8  A    between atoms: N_24  and  C_29
REMARK                            x       y       z     vdW  Elec       q    Type
REMARK                         _______ _______ _______ _____ _____    ______ ____
ROOT
ATOM      1  C   UNL     1      -1.464   5.279  -0.352  0.00  0.00    +0.230 C 
ATOM      2  O   UNL     1      -0.636   5.802  -1.067  0.00  0.00    -0.274 OA
ATOM      3  N   UNL     1      -2.553   5.971   0.036  0.00  0.00    -0.281 N 
ATOM      4  H   UNL     1      -3.361   5.464   0.584  0.00  0.00    +0.155 HD
ENDROOT
BRANCH   3   5
ATOM      5  C   UNL     1      -2.655   7.324  -0.255  0.00  0.00    +0.090 A 
ATOM      6  C   UNL     1      -1.784   8.402   0.226  0.00  0.00    +0.042 A 
ATOM      7  C   UNL     1      -0.662   8.443   1.056  0.00  0.00    +0.013 A 
ATOM      8  C   UNL     1      -0.057   9.640   1.318  0.00  0.00    +0.001 A 
ATOM      9  C   UNL     1      -0.550  10.813   0.763  0.00  0.00    +0.004 A 
ATOM     10  C   UNL     1      -1.656  10.792  -0.059  0.00  0.00    +0.047 A 
ATOM     11  C   UNL     1      -2.289   9.586  -0.340  0.00  0.00    +0.138 A 
ATOM     12  O   UNL     1      -3.361   9.267  -1.091  0.00  0.00    -0.450 OA
ATOM     13  C   UNL     1      -3.597   7.936  -1.063  0.00  0.00    +0.192 A 
BRANCH  13  14
ATOM     14  C   UNL     1      -4.637   7.278  -1.744  0.00  0.00    +0.197 C 
ATOM     15  O   UNL     1      -4.657   6.064  -1.796  0.00  0.00    -0.289 OA
ATOM     16  C   UNL     1      -5.726   8.079  -2.411  0.00  0.00    +0.095 C 
ENDBRANCH  13  14
ENDBRANCH   3   5
BRANCH   1  18
ATOM     17  C   UNL     1      -0.727   3.842   1.529  0.00  0.00    +0.029 C 
ATOM     18  C   UNL     1      -1.276   3.854   0.101  0.00  0.00    +0.136 C 
BRANCH  18  19
ATOM     19  S   UNL     1      -0.108   3.019  -1.002  0.00  0.00    -0.093 S 
BRANCH  19  20
ATOM     20  C   UNL     1      -0.191   1.383  -0.353  0.00  0.00    +0.112 A 
ATOM     21  C   UNL     1       0.578   0.344  -0.914  0.00  0.00    +0.070 A 
ATOM     22  C   UNL     1       1.501   0.256  -1.978  0.00  0.00    +0.147 A 
ATOM     23  N   UNL     1       1.920  -0.975  -2.061  0.00  0.00    -0.177 NA
ATOM     24  N   UNL     1       1.304  -1.750  -1.070  0.00  0.00    -0.249 N 
ATOM     25  C   UNL     1       0.470  -0.943  -0.354  0.00  0.00    +0.162 A 
ATOM     26  N   UNL     1      -0.350  -1.127   0.680  0.00  0.00    -0.216 NA
ATOM     27  C   UNL     1      -1.047  -0.126   1.171  0.00  0.00    +0.224 A 
ATOM     28  N   UNL     1      -0.980   1.099   0.678  0.00  0.00    -0.228 NA
ATOM     29  C   UNL     1       1.518  -3.181  -0.842  0.00  0.00    +0.174 C 
ENDBRANCH  19  20
ENDBRANCH  18  19
ENDBRANCH   1  18
TORSDOF 5
