REMARK  Name = ZINC39653899
REMARK  11 active torsions:
REMARK  status: ('A' for Active; 'I' for Inactive)
REMARK    1  A    between atoms: C_1  and  C_2
REMARK    2  A    between atoms: C_2  and  C_3
REMARK    3  A    between atoms: C_2  and  C_4
REMARK    4  A    between atoms: C_4  and  C_6
REMARK    5  A    between atoms: C_4  and  N_25
REMARK    6  A    between atoms: C_6  and  O_8
REMARK    7  A    between atoms: O_8  and  C_9
REMARK    8  A    between atoms: C_9  and  C_10
REMARK    9  A    between atoms: C_12  and  O_13
REMARK   10  A    between atoms: C_22  and  C_24
REMARK   11  A    between atoms: C_26  and  C_28
REMARK                            x       y       z     vdW  Elec       q    Type
REMARK                         _______ _______ _______ _____ _____    ______ ____
ROOT
ATOM      1  O   UNL     1      -0.994  -0.887  -2.493  0.00  0.00    -0.459 OA
ENDROOT
BRANCH   1   2
ATOM      2  C   UNL     1      -1.133  -0.527  -1.207  0.00  0.00    +0.328 C 
ATOM      3  O   UNL     1      -1.917   0.340  -0.904  0.00  0.00    -0.249 OA
BRANCH   2   4
ATOM      4  C   UNL     1      -0.310  -1.206  -0.142  0.00  0.00    +0.185 C 
BRANCH   4   5
ATOM      5  N   UNL     1      -0.644  -0.640   1.167  0.00  0.00    -0.298 N 
ATOM      6  C   UNL     1      -0.454  -1.369   2.285  0.00  0.00    +0.247 C 
ATOM      7  O   UNL     1      -0.005  -2.496   2.207  0.00  0.00    -0.270 OA
ATOM      8  H   UNL     1      -1.002   0.259   1.230  0.00  0.00    +0.150 HD
BRANCH   6   9
ATOM      9  C   UNL     1      -0.790  -0.798   3.605  0.00  0.00    +0.072 A 
ATOM     10  C   UNL     1      -1.311   0.494   3.698  0.00  0.00    +0.016 A 
ATOM     11  C   UNL     1      -1.624   1.021   4.934  0.00  0.00    +0.001 A 
ATOM     12  C   UNL     1      -1.422   0.273   6.081  0.00  0.00    +0.003 A 
ATOM     13  C   UNL     1      -0.906  -1.006   5.999  0.00  0.00    +0.039 A 
ATOM     14  C   UNL     1      -0.594  -1.551   4.767  0.00  0.00    +0.135 A 
ATOM     15  F   UNL     1      -0.095  -2.804   4.686  0.00  0.00    -0.205 F 
ENDBRANCH   6   9
ENDBRANCH   4   5
BRANCH   4  17
ATOM     16  C   UNL     1       1.505   0.503  -0.306  0.00  0.00    +0.009 C 
ATOM     17  C   UNL     1       1.176  -0.987  -0.429  0.00  0.00    +0.014 C 
ATOM     18  C   UNL     1       2.012  -1.778   0.579  0.00  0.00    +0.009 C 
ENDBRANCH   4  17
ENDBRANCH   2   4
ENDBRANCH   1   2
BRANCH   1  19
ATOM     19  C   UNL     1      -1.805  -0.202  -3.449  0.00  0.00    +0.268 C 
BRANCH  19  20
ATOM     20  C   UNL     1      -1.514  -0.735  -4.829  0.00  0.00    +0.007 A 
ATOM     21  C   UNL     1      -1.623  -2.084  -5.101  0.00  0.00    +0.095 A 
ATOM     22  C   UNL     1      -1.351  -2.556  -6.377  0.00  0.00    +0.285 A 
ATOM     23  O   UNL     1      -0.983  -1.730  -7.362  0.00  0.00    -0.425 OA
ATOM     24  C   UNL     1      -0.861  -0.403  -7.150  0.00  0.00    +0.141 A 
ATOM     25  C   UNL     1      -1.131   0.134  -5.872  0.00  0.00    +0.024 A 
ATOM     26  C   UNL     1      -1.011   1.518  -5.649  0.00  0.00    +0.014 A 
ATOM     27  C   UNL     1      -0.640   2.339  -6.666  0.00  0.00    +0.024 A 
ATOM     28  C   UNL     1      -0.375   1.814  -7.943  0.00  0.00    +0.037 A 
ATOM     29  C   UNL     1      -0.479   0.442  -8.177  0.00  0.00    +0.070 A 
ATOM     30  N   UNL     1      -0.005   2.647  -8.954  0.00  0.00    -0.286 N 
ATOM     31  C   UNL     1      -0.058   2.231 -10.204  0.00  0.00    +0.214 C 
ATOM     32  O   UNL     1      -0.552   1.149 -10.466  0.00  0.00    -0.276 OA
ATOM     33  C   UNL     1       0.493   3.094 -11.310  0.00  0.00    +0.109 C 
ATOM     34  H   UNL     1       0.298   3.546  -8.755  0.00  0.00    +0.155 HD
BRANCH  22  35
ATOM     35  O   UNL     1      -1.460  -3.875  -6.629  0.00  0.00    -0.480 OA
ATOM     36  H   UNL     1      -1.253  -4.119  -7.542  0.00  0.00    +0.295 HD
ENDBRANCH  22  35
ENDBRANCH  19  20
ENDBRANCH   1  19
TORSDOF 8
