REMARK  Name = ZINC43762030
REMARK  11 active torsions:
REMARK  status: ('A' for Active; 'I' for Inactive)
REMARK    1  A    between atoms: C_1  and  C_2
REMARK    2  A    between atoms: C_2  and  O_3
REMARK    3  A    between atoms: O_3  and  C_4
REMARK    4  A    between atoms: N_6  and  N_7
REMARK    5  A    between atoms: N_10  and  C_11
REMARK    6  A    between atoms: C_11  and  C_12
REMARK    7  A    between atoms: C_12  and  C_31
REMARK    8  A    between atoms: C_16  and  C_30
REMARK    9  A    between atoms: C_25  and  C_27
REMARK   10  A    between atoms: C_27  and  C_28
REMARK   11  A    between atoms: C_27  and  C_29
REMARK                            x       y       z     vdW  Elec       q    Type
REMARK                         _______ _______ _______ _____ _____    ______ ____
ROOT
ATOM      1  C   UNL     1      -6.853  -5.500  -0.328  0.00  0.00    -0.013 C 
ATOM      2  C   UNL     1      -5.676  -5.843   0.588  0.00  0.00    +0.008 C 
ATOM      3  C   UNL     1      -6.044  -5.709   2.061  0.00  0.00    +0.001 C 
ATOM      4  C   UNL     1      -7.223  -6.626   2.391  0.00  0.00    +0.011 C 
ATOM      5  C   UNL     1      -8.436  -6.213   1.562  0.00  0.00    -0.003 C 
ATOM      6  C   UNL     1      -8.107  -6.239   0.082  0.00  0.00    +0.007 C 
ATOM      7  C   UNL     1      -9.343  -5.837  -0.720  0.00  0.00    +0.009 C 
ATOM      8  C   UNL     1     -10.367  -6.968  -0.604  0.00  0.00    +0.036 C 
ATOM      9  C   UNL     1     -10.467  -7.499   0.801  0.00  0.00    -0.043 A 
ATOM     10  C   UNL     1      -9.586  -7.167   1.808  0.00  0.00    -0.038 A 
ATOM     11  C   UNL     1      -9.745  -7.700   3.076  0.00  0.00    +0.005 A 
ATOM     12  C   UNL     1     -10.783  -8.571   3.344  0.00  0.00    +0.004 A 
ATOM     13  C   UNL     1     -11.668  -8.909   2.338  0.00  0.00    -0.045 A 
ATOM     14  C   UNL     1     -11.511  -8.375   1.076  0.00  0.00    +0.007 A 
ATOM     15  C   UNL     1      -8.905  -4.835   2.030  0.00  0.00    +0.016 C 
ATOM     16  C   UNL     1      -6.458  -5.967  -1.750  0.00  0.00    +0.013 C 
ENDROOT
BRANCH  13  17
ATOM     17  C   UNL     1     -12.803  -9.860   2.619  0.00  0.00    +0.013 C 
ATOM     18  C   UNL     1     -12.238 -11.205   3.081  0.00  0.00    +0.012 C 
ATOM     19  C   UNL     1     -13.696  -9.278   3.717  0.00  0.00    +0.012 C 
ENDBRANCH  13  17
BRANCH   1  20
ATOM     20  C   UNL     1      -7.052  -3.986  -0.386  0.00  0.00    +0.112 C 
BRANCH  20  24
ATOM     21  N   UNL     1      -4.664  -1.433  -1.526  0.00  0.00    -0.216 N 
ATOM     22  C   UNL     1      -5.781  -2.015  -1.046  0.00  0.00    +0.316 C 
ATOM     23  O   UNL     1      -6.739  -1.331  -0.740  0.00  0.00    -0.251 OA
ATOM     24  N   UNL     1      -5.837  -3.354  -0.907  0.00  0.00    -0.298 N 
ATOM     25  H   UNL     1      -4.624  -0.469  -1.626  0.00  0.00    +0.174 HD
ATOM     26  H   UNL     1      -5.073  -3.899  -1.151  0.00  0.00    +0.150 HD
BRANCH  21  29
ATOM     27  C   UNL     1      -2.443  -1.639  -2.358  0.00  0.00    +0.417 C 
ATOM     28  O   UNL     1      -1.486  -2.322  -2.665  0.00  0.00    -0.225 OA
ATOM     29  N   UNL     1      -3.561  -2.221  -1.879  0.00  0.00    -0.198 N 
ATOM     30  H   UNL     1      -3.601  -3.185  -1.778  0.00  0.00    +0.176 HD
BRANCH  27  31
ATOM     31  O   UNL     1      -2.388  -0.301  -2.498  0.00  0.00    -0.450 OA
BRANCH  31  33
ATOM     32  C   UNL     1      -1.297   1.770  -3.098  0.00  0.00    +0.048 C 
ATOM     33  C   UNL     1      -1.172   0.248  -3.011  0.00  0.00    +0.230 C 
ENDBRANCH  31  33
ENDBRANCH  27  31
ENDBRANCH  21  29
ENDBRANCH  20  24
ENDBRANCH   1  20
TORSDOF 6
