REMARK  Name = ZINC14460968
REMARK  5 active torsions:
REMARK  status: ('A' for Active; 'I' for Inactive)
REMARK    1  A    between atoms: C_1  and  O_2
REMARK    2  A    between atoms: O_2  and  C_3
REMARK    3  A    between atoms: C_3  and  C_5
REMARK    4  A    between atoms: C_12  and  C_21
REMARK    5  A    between atoms: C_26  and  O_27
REMARK                            x       y       z     vdW  Elec       q    Type
REMARK                         _______ _______ _______ _____ _____    ______ ____
ROOT
ATOM      1  C   UNL     1      -1.289   1.918   0.059  0.00  0.00    +0.080 A 
ATOM      2  C   UNL     1      -1.296   3.312   0.068  0.00  0.00    +0.017 A 
ATOM      3  C   UNL     1      -2.490   3.997   0.066  0.00  0.00    +0.001 A 
ATOM      4  C   UNL     1      -3.686   3.297   0.060  0.00  0.00    +0.006 A 
ATOM      5  C   UNL     1      -3.699   1.920   0.050  0.00  0.00    -0.019 A 
ATOM      6  C   UNL     1      -2.502   1.198   0.034  0.00  0.00    +0.045 A 
ATOM      7  N   UNL     1      -2.426  -0.183  -0.013  0.00  0.00    -0.336 N 
ATOM      8  C   UNL     1      -3.697  -0.922   0.056  0.00  0.00    +0.108 C 
ATOM      9  C   UNL     1      -4.707  -0.145  -0.762  0.00  0.00    +0.029 C 
ATOM     10  C   UNL     1      -4.965   1.155   0.062  0.00  0.00    +0.049 C 
ATOM     11  C   UNL     1      -6.216   1.672  -0.546  0.00  0.00    -0.023 C 
ATOM     12  C   UNL     1      -6.915   0.644  -1.014  0.00  0.00    -0.030 C 
ATOM     13  C   UNL     1      -6.147  -0.659  -0.779  0.00  0.00    +0.033 C 
ATOM     14  H   UNL     1      -1.766  -0.534   0.665  0.00  0.00    +0.147 HD
ENDROOT
BRANCH   8  15
ATOM     15  C   UNL     1      -3.521  -2.303  -0.522  0.00  0.00    +0.015 A 
ATOM     16  C   UNL     1      -4.067  -3.396   0.122  0.00  0.00    +0.024 A 
ATOM     17  C   UNL     1      -3.906  -4.664  -0.407  0.00  0.00    +0.018 A 
ATOM     18  C   UNL     1      -3.197  -4.839  -1.582  0.00  0.00    +0.019 A 
ATOM     19  C   UNL     1      -2.649  -3.749  -2.229  0.00  0.00    +0.047 A 
ATOM     20  C   UNL     1      -2.815  -2.476  -1.703  0.00  0.00    +0.122 A 
ATOM     21 BR   UNL     1      -4.654  -6.158   0.477  0.00  0.00    -0.050 Br
BRANCH  20  22
ATOM     22  O   UNL     1      -2.282  -1.401  -2.341  0.00  0.00    -0.506 OA
ATOM     23  H   UNL     1      -1.355  -1.234  -2.123  0.00  0.00    +0.292 HD
ENDBRANCH  20  22
ENDBRANCH   8  15
BRANCH   1  24
ATOM     24  C   UNL     1      -0.008   1.192   0.070  0.00  0.00    +0.341 C 
ATOM     25  O   UNL     1       0.003  -0.023   0.062  0.00  0.00    -0.245 OA
BRANCH  24  27
ATOM     26  C   UNL     1       2.378   1.095   0.086  0.00  0.00    +0.280 C 
ATOM     27  O   UNL     1       1.154   1.876   0.082  0.00  0.00    -0.464 OA
ENDBRANCH  24  27
ENDBRANCH   1  24
TORSDOF 4
