REMARK  Name = ZINC09824325
REMARK  4 active torsions:
REMARK  status: ('A' for Active; 'I' for Inactive)
REMARK    1  A    between atoms: C_4  and  C_7
REMARK    2  A    between atoms: C_7  and  C_28
REMARK    3  A    between atoms: N_10  and  C_14
REMARK    4  A    between atoms: C_14  and  C_15
REMARK                            x       y       z     vdW  Elec       q    Type
REMARK                         _______ _______ _______ _____ _____    ______ ____
ROOT
ATOM      1  C   UNL     1      -6.124   0.704  -2.692  0.00  0.00    +0.164 C 
ATOM      2  C   UNL     1      -4.773   1.076  -3.270  0.00  0.00    +0.256 C 
ATOM      3  O   UNL     1      -4.413   0.961  -4.422  0.00  0.00    -0.272 OA
ATOM      4  N   UNL     1      -4.056   1.561  -2.237  0.00  0.00    -0.215 N 
ATOM      5  C   UNL     1      -4.760   1.554  -1.100  0.00  0.00    +0.310 C 
ATOM      6  O   UNL     1      -4.327   1.947  -0.035  0.00  0.00    -0.252 OA
ATOM      7  N   UNL     1      -6.002   1.063  -1.268  0.00  0.00    -0.278 N 
ATOM      8  H   UNL     1      -6.683   0.965  -0.585  0.00  0.00    +0.152 HD
ENDROOT
BRANCH   1  12
ATOM      9  C   UNL     1      -6.859  -3.481  -3.130  0.00  0.00    +0.000 A 
ATOM     10  C   UNL     1      -6.426  -2.738  -4.212  0.00  0.00    +0.000 A 
ATOM     11  C   UNL     1      -6.188  -1.384  -4.070  0.00  0.00    +0.006 A 
ATOM     12  C   UNL     1      -6.383  -0.772  -2.846  0.00  0.00    -0.011 A 
ATOM     13  C   UNL     1      -6.811  -1.516  -1.762  0.00  0.00    +0.006 A 
ATOM     14  C   UNL     1      -7.053  -2.869  -1.905  0.00  0.00    +0.000 A 
ENDBRANCH   1  12
BRANCH   1  15
ATOM     15  C   UNL     1      -7.220   1.505  -3.347  0.00  0.00    -0.011 A 
ATOM     16  C   UNL     1      -7.333   1.522  -4.725  0.00  0.00    +0.006 A 
ATOM     17  C   UNL     1      -8.341   2.253  -5.326  0.00  0.00    +0.000 A 
ATOM     18  C   UNL     1      -9.229   2.974  -4.551  0.00  0.00    +0.000 A 
ATOM     19  C   UNL     1      -9.112   2.962  -3.173  0.00  0.00    +0.000 A 
ATOM     20  C   UNL     1      -8.107   2.227  -2.572  0.00  0.00    +0.006 A 
ENDBRANCH   1  15
BRANCH   4  21
ATOM     21  C   UNL     1      -2.676   2.042  -2.348  0.00  0.00    +0.214 C 
BRANCH  21  22
ATOM     22  C   UNL     1      -1.725   0.900  -2.098  0.00  0.00    +0.238 C 
ATOM     23  O   UNL     1      -2.156  -0.206  -1.852  0.00  0.00    -0.273 OA
ATOM     24  N   UNL     1      -0.394   1.108  -2.148  0.00  0.00    -0.260 N 
ATOM     25  C   UNL     1       0.155   2.440  -2.444  0.00  0.00    +0.209 C 
ATOM     26  C   UNL     1       1.319   2.292  -3.391  0.00  0.00    +0.235 C 
ATOM     27  O   UNL     1       1.580   3.190  -4.163  0.00  0.00    -0.274 OA
ATOM     28  N   UNL     1       2.071   1.176  -3.389  0.00  0.00    -0.283 N 
ATOM     29  C   UNL     1       1.761   0.106  -2.542  0.00  0.00    +0.055 A 
ATOM     30  C   UNL     1       0.512   0.061  -1.919  0.00  0.00    +0.058 A 
ATOM     31  C   UNL     1       0.187  -0.996  -1.089  0.00  0.00    +0.025 A 
ATOM     32  C   UNL     1       1.105  -2.009  -0.875  0.00  0.00    +0.002 A 
ATOM     33  C   UNL     1       2.344  -1.965  -1.488  0.00  0.00    +0.002 A 
ATOM     34  C   UNL     1       2.675  -0.911  -2.321  0.00  0.00    +0.025 A 
ATOM     35  H   UNL     1       2.837   1.113  -3.981  0.00  0.00    +0.155 HD
ENDBRANCH  21  22
ENDBRANCH   4  21
TORSDOF 4
