REMARK  Name = ZINC07682189
REMARK  11 active torsions:
REMARK  status: ('A' for Active; 'I' for Inactive)
REMARK    1  A    between atoms: C_1  and  C_2
REMARK    2  A    between atoms: C_2  and  N_54
REMARK    3  A    between atoms: C_3  and  C_4
REMARK    4  A    between atoms: C_3  and  N_54
REMARK    5  A    between atoms: N_6  and  C_7
REMARK    6  A    between atoms: C_7  and  C_8
REMARK    7  A    between atoms: C_8  and  C_9
REMARK    8  A    between atoms: C_19  and  C_20
REMARK    9  A    between atoms: C_19  and  N_54
REMARK   10  A    between atoms: N_22  and  C_23
REMARK   11  A    between atoms: C_23  and  C_24
REMARK                            x       y       z     vdW  Elec       q    Type
REMARK                         _______ _______ _______ _____ _____    ______ ____
ROOT
ATOM      1  C   UNL     1      -0.765   2.032  -3.812  0.00  0.00    +0.019 C 
ENDROOT
BRANCH   1   2
ATOM      2  C   UNL     1       0.128   1.671  -2.653  0.00  0.00    +0.196 C 
ATOM      3  O   UNL     1       1.016   0.859  -2.801  0.00  0.00    -0.278 OA
ATOM      4  N   UNL     1      -0.060   2.252  -1.451  0.00  0.00    -0.317 N 
ATOM      5  H   UNL     1      -0.770   2.902  -1.332  0.00  0.00    +0.149 HD
BRANCH   4   6
ATOM      6  C   UNL     1       0.808   1.901  -0.324  0.00  0.00    +0.109 C 
BRANCH   6   7
ATOM      7  C   UNL     1       0.385   2.696   0.913  0.00  0.00    +0.056 C 
BRANCH   7   8
ATOM      8  C   UNL     1       1.278   2.335   2.072  0.00  0.00    -0.021 A 
ATOM      9  C   UNL     1       1.024   1.419   3.020  0.00  0.00    +0.087 A 
ATOM     10  N   UNL     1       2.065   1.365   3.906  0.00  0.00    -0.360 N 
ATOM     11  H   UNL     1       2.111   0.777   4.676  0.00  0.00    +0.165 HD
ATOM     12  C   UNL     1       3.034   2.275   3.546  0.00  0.00    +0.047 A 
ATOM     13  C   UNL     1       2.583   2.922   2.381  0.00  0.00    +0.003 A 
ATOM     14  C   UNL     1       3.372   3.907   1.782  0.00  0.00    +0.010 A 
ATOM     15  C   UNL     1       4.579   4.237   2.332  0.00  0.00    +0.001 A 
ATOM     16  C   UNL     1       5.027   3.602   3.481  0.00  0.00    +0.002 A 
ATOM     17  C   UNL     1       4.266   2.627   4.088  0.00  0.00    +0.026 A 
ENDBRANCH   7   8
ENDBRANCH   6   7
ENDBRANCH   4   6
ENDBRANCH   1   2
BRANCH   1  18
ATOM     18  N   UNL     1      -0.330   1.273  -5.003  0.00  0.00    +0.391 N 
ATOM     19  H   UNL     1       0.679   1.410  -5.136  0.00  0.00    -0.080 HD
BRANCH  18  21
ATOM     20  C   UNL     1      -2.083  -0.406  -4.535  0.00  0.00    -0.017 C 
ATOM     21  C   UNL     1      -0.596  -0.168  -4.809  0.00  0.00    -0.081 C 
ENDBRANCH  18  21
BRANCH  18  22
ATOM     22  C   UNL     1      -1.043   1.761  -6.202  0.00  0.00    +0.019 C 
BRANCH  22  23
ATOM     23  C   UNL     1      -0.340   1.241  -7.429  0.00  0.00    +0.197 C 
ATOM     24  O   UNL     1       0.693   0.617  -7.317  0.00  0.00    -0.278 OA
ATOM     25  N   UNL     1      -0.861   1.470  -8.651  0.00  0.00    -0.312 N 
ATOM     26  H   UNL     1      -1.687   1.969  -8.741  0.00  0.00    +0.149 HD
BRANCH  25  27
ATOM     27  C   UNL     1      -0.177   0.964  -9.844  0.00  0.00    +0.146 C 
BRANCH  27  28
ATOM     28  C   UNL     1      -0.959   1.352 -11.073  0.00  0.00    +0.007 A 
ATOM     29  C   UNL     1      -0.857   2.470 -11.832  0.00  0.00    +0.013 A 
ATOM     30  C   UNL     1      -1.684   2.614 -12.930  0.00  0.00    +0.008 A 
ATOM     31  C   UNL     1      -2.581   1.636 -13.209  0.00  0.00    +0.045 A 
ATOM     32  S   UNL     1      -2.264   0.461 -11.903  0.00  0.00    -0.100 S 
ENDBRANCH  27  28
ENDBRANCH  25  27
ENDBRANCH  22  23
ENDBRANCH  18  22
ENDBRANCH   1  18
TORSDOF 10
