REMARK  Name = ZINC37359609
REMARK  4 active torsions:
REMARK  status: ('A' for Active; 'I' for Inactive)
REMARK    1  A    between atoms: C_5  and  N_7
REMARK    2  A    between atoms: C_8  and  N_27
REMARK    3  A    between atoms: C_10  and  C_20
REMARK    4  A    between atoms: N_16  and  C_17
REMARK                            x       y       z     vdW  Elec       q    Type
REMARK                         _______ _______ _______ _____ _____    ______ ____
ROOT
ATOM      1  N   UNL     1       1.177  -2.160  -0.282  0.00  0.00    -0.215 N 
ATOM      2  C   UNL     1       0.145  -2.914   0.144  0.00  0.00    +0.131 A 
ATOM      3  C   UNL     1       0.640  -4.183   0.420  0.00  0.00    +0.086 A 
ATOM      4  C   UNL     1       0.099  -5.401   0.886  0.00  0.00    +0.089 A 
ATOM      5  N   UNL     1       0.915  -6.437   1.031  0.00  0.00    -0.214 NA
ATOM      6  C   UNL     1       2.212  -6.360   0.751  0.00  0.00    +0.218 A 
ATOM      7  N   UNL     1       2.799  -5.265   0.313  0.00  0.00    -0.193 NA
ATOM      8  C   UNL     1       2.084  -4.140   0.122  0.00  0.00    +0.189 A 
ATOM      9  N   UNL     1       2.350  -2.922  -0.296  0.00  0.00    -0.144 NA
ATOM     10  N   UNL     1       2.989  -7.491   0.931  0.00  0.00    -0.311 N 
ATOM     11  H   UNL     1       2.583  -8.311   1.254  0.00  0.00    +0.149 HD
ENDROOT
BRANCH   1  16
ATOM     12  C   UNL     1      -0.175   1.218  -0.824  0.00  0.00    +0.002 A 
ATOM     13  C   UNL     1       0.910   1.844  -1.410  0.00  0.00    +0.002 A 
ATOM     14  C   UNL     1       2.084   1.145  -1.623  0.00  0.00    +0.022 A 
ATOM     15  C   UNL     1       2.176  -0.183  -1.250  0.00  0.00    +0.066 A 
ATOM     16  C   UNL     1       1.087  -0.814  -0.661  0.00  0.00    +0.086 A 
ATOM     17  C   UNL     1      -0.089  -0.108  -0.449  0.00  0.00    +0.029 A 
ATOM     18 CL   UNL     1       3.650  -1.060  -1.518  0.00  0.00    -0.081 Cl
ENDBRANCH   1  16
BRANCH   4  19
ATOM     19  C   UNL     1      -1.342  -5.519   1.207  0.00  0.00    +0.003 A 
ATOM     20  C   UNL     1      -2.299  -5.021   0.322  0.00  0.00    +0.010 A 
ATOM     21  C   UNL     1      -3.640  -5.134   0.625  0.00  0.00    +0.002 A 
ATOM     22  C   UNL     1      -4.038  -5.738   1.804  0.00  0.00    +0.020 A 
ATOM     23  C   UNL     1      -3.093  -6.234   2.687  0.00  0.00    +0.042 A 
ATOM     24  C   UNL     1      -1.748  -6.132   2.392  0.00  0.00    +0.030 A 
ATOM     25 CL   UNL     1      -3.601  -6.989   4.165  0.00  0.00    -0.084 Cl
ENDBRANCH   4  19
BRANCH  10  26
ATOM     26  C   UNL     1       4.423  -7.449   0.636  0.00  0.00    +0.073 C 
ATOM     27  C   UNL     1       5.021  -8.633  -0.127  0.00  0.00    +0.024 C 
ATOM     28  C   UNL     1       5.323  -8.451   1.362  0.00  0.00    +0.024 C 
ENDBRANCH  10  26
BRANCH   2  29
ATOM     29  N   UNL     1      -1.167  -2.501   0.282  0.00  0.00    -0.342 N 
ATOM     30  H   UNL     1      -1.594  -1.998  -0.428  0.00  0.00    +0.144 HD
ATOM     31  H   UNL     1      -1.660  -2.714   1.090  0.00  0.00    +0.144 HD
ENDBRANCH   2  29
TORSDOF 4
