REMARK  Name = ZINC39634800
REMARK  15 active torsions:
REMARK  status: ('A' for Active; 'I' for Inactive)
REMARK    1  A    between atoms: C_1  and  C_2
REMARK    2  A    between atoms: C_3  and  C_12
REMARK    3  A    between atoms: C_7  and  O_8
REMARK    4  A    between atoms: O_8  and  C_9
REMARK    5  A    between atoms: C_9  and  C_11
REMARK    6  A    between atoms: C_16  and  C_25
REMARK    7  A    between atoms: N_27  and  C_28
REMARK    8  A    between atoms: C_28  and  C_29
REMARK    9  A    between atoms: C_29  and  N_30
REMARK   10  A    between atoms: N_30  and  C_31
REMARK   11  A    between atoms: N_30  and  C_34
REMARK   12  A    between atoms: C_31  and  C_32
REMARK   13  A    between atoms: C_31  and  C_33
REMARK   14  A    between atoms: C_34  and  C_35
REMARK   15  A    between atoms: C_34  and  C_36
REMARK                            x       y       z     vdW  Elec       q    Type
REMARK                         _______ _______ _______ _____ _____    ______ ____
ROOT
ATOM      1  C   UNL     1       0.237  -2.461  -4.237  0.00  0.00    +0.247 C 
ATOM      2  O   UNL     1       0.455  -1.364  -4.713  0.00  0.00    -0.270 OA
ATOM      3  N   UNL     1       0.164  -3.542  -5.039  0.00  0.00    -0.296 N 
ATOM      4  C   UNL     1      -0.218  -4.925  -4.667  0.00  0.00    +0.121 C 
ATOM      5  C   UNL     1      -1.073  -5.425  -5.853  0.00  0.00    +0.100 C 
ATOM      6  C   UNL     1      -0.630  -4.564  -7.047  0.00  0.00    -0.004 C 
ATOM      7  C   UNL     1       0.442  -3.615  -6.493  0.00  0.00    +0.115 C 
ATOM      8  C   UNL     1      -1.810  -3.760  -7.586  0.00  0.00    -0.010 C 
ATOM      9  C   UNL     1      -1.358  -2.956  -8.808  0.00  0.00    -0.082 C 
ATOM     10  N   UNL     1      -0.852  -3.871  -9.838  0.00  0.00    +0.379 N 
ATOM     11  C   UNL     1       0.339  -4.572  -9.344  0.00  0.00    -0.082 C 
ATOM     12  C   UNL     1      -0.041  -5.445  -8.145  0.00  0.00    -0.010 C 
ATOM     13  H   UNL     1      -1.567  -4.545 -10.068  0.00  0.00    -0.086 HD
ATOM     14  H   UNL     1      -0.612  -3.345 -10.665  0.00  0.00    -0.086 HD
ENDROOT
BRANCH   1  17
ATOM     15  C   UNL     1      -1.176  -0.415  -2.757  0.00  0.00    +0.048 C 
ATOM     16  C   UNL     1      -0.627  -1.630  -2.054  0.00  0.00    +0.004 A 
ATOM     17  C   UNL     1       0.053  -2.610  -2.777  0.00  0.00    +0.043 A 
ATOM     18  C   UNL     1       0.559  -3.732  -2.118  0.00  0.00    +0.013 A 
ATOM     19  C   UNL     1       0.385  -3.867  -0.756  0.00  0.00    +0.004 A 
ATOM     20  C   UNL     1      -0.289  -2.895  -0.040  0.00  0.00    +0.047 A 
ATOM     21  C   UNL     1      -0.791  -1.774  -0.686  0.00  0.00    +0.135 A 
BRANCH  21  22
ATOM     22  O   UNL     1      -1.449  -0.819   0.023  0.00  0.00    -0.426 OA
BRANCH  22  23
ATOM     23  C   UNL     1      -0.774   0.292   0.361  0.00  0.00    +0.309 C 
ATOM     24  O   UNL     1       0.406   0.379   0.118  0.00  0.00    -0.251 OA
ATOM     25  C   UNL     1      -1.489   1.429   1.046  0.00  0.00    +0.136 C 
ENDBRANCH  22  23
ENDBRANCH  21  22
ENDBRANCH   1  17
BRANCH   5  26
ATOM     26  C   UNL     1      -2.538  -5.217  -5.567  0.00  0.00    +0.218 C 
ATOM     27  O   UNL     1      -2.900  -4.261  -4.915  0.00  0.00    -0.275 OA
ATOM     28  N   UNL     1      -3.448  -6.094  -6.037  0.00  0.00    -0.317 N 
ATOM     29  H   UNL     1      -3.159  -6.859  -6.559  0.00  0.00    +0.149 HD
BRANCH  28  30
ATOM     30  C   UNL     1      -4.872  -5.892  -5.760  0.00  0.00    +0.085 C 
BRANCH  30  31
ATOM     31  C   UNL     1      -5.682  -7.020  -6.402  0.00  0.00    -0.059 C 
BRANCH  31  32
ATOM     32  N   UNL     1      -7.116  -6.740  -6.253  0.00  0.00    +0.384 N 
ATOM     33  H   UNL     1      -7.320  -5.825  -6.626  0.00  0.00    -0.081 HD
BRANCH  32  34
ATOM     34  C   UNL     1      -7.891  -7.751  -6.984  0.00  0.00    -0.074 C 
ATOM     35  C   UNL     1      -9.379  -7.404  -6.911  0.00  0.00    -0.014 C 
ATOM     36  C   UNL     1      -7.444  -7.778  -8.447  0.00  0.00    -0.014 C 
ENDBRANCH  32  34
BRANCH  32  37
ATOM     37  C   UNL     1      -7.477  -6.780  -4.830  0.00  0.00    -0.074 C 
ATOM     38  C   UNL     1      -6.624  -7.831  -4.116  0.00  0.00    -0.014 C 
ATOM     39  C   UNL     1      -7.227  -5.408  -4.201  0.00  0.00    -0.014 C 
ENDBRANCH  32  37
ENDBRANCH  31  32
ENDBRANCH  30  31
ENDBRANCH  28  30
ENDBRANCH   5  26
TORSDOF 9
