REMARK  Name = ZINC42415081
REMARK  2 active torsions:
REMARK  status: ('A' for Active; 'I' for Inactive)
REMARK    1  A    between atoms: C_4  and  N_14
REMARK    2  A    between atoms: C_5  and  C_7
REMARK                            x       y       z     vdW  Elec       q    Type
REMARK                         _______ _______ _______ _____ _____    ______ ____
ROOT
ATOM      1  C   UNL     1       0.001   1.385   0.172  0.00  0.00    +0.001 A 
ATOM      2  C   UNL     1       1.135   2.066  -0.234  0.00  0.00    +0.002 A 
ATOM      3  C   UNL     1       2.328   1.389  -0.412  0.00  0.00    +0.033 A 
ATOM      4  C   UNL     1       2.393   0.029  -0.185  0.00  0.00    +0.135 A 
ATOM      5  C   UNL     1       1.255  -0.662   0.224  0.00  0.00    +0.034 A 
ATOM      6  C   UNL     1       0.056   0.025   0.402  0.00  0.00    +0.012 A 
ENDROOT
BRANCH   5   7
ATOM      7  C   UNL     1       1.319  -2.124   0.469  0.00  0.00    +0.113 A 
ATOM      8  C   UNL     1       0.538  -3.107  -0.171  0.00  0.00    +0.086 A 
ATOM      9  C   UNL     1       0.896  -4.310   0.329  0.00  0.00    +0.125 A 
ATOM     10  N   UNL     1       1.865  -4.108   1.249  0.00  0.00    -0.283 N 
ATOM     11  H   UNL     1       2.310  -4.796   1.768  0.00  0.00    +0.188 HD
ATOM     12  N   UNL     1       2.120  -2.732   1.318  0.00  0.00    -0.172 NA
ATOM     13 CL   UNL     1      -0.670  -2.822  -1.384  0.00  0.00    -0.080 Cl
ENDBRANCH   5   7
BRANCH   4  14
ATOM     14  N   UNL     1       3.671  -0.694  -0.377  0.00  0.00    +0.057 N 
ATOM     15  O   UNL     1       4.683  -0.078  -0.618  0.00  0.00    -0.126 OA
ATOM     16  O   UNL     1       3.702  -1.899  -0.292  0.00  0.00    -0.126 OA
ENDBRANCH   4  14
TORSDOF 2
