REMARK  Name = ZINC13810040
REMARK  14 active torsions:
REMARK  status: ('A' for Active; 'I' for Inactive)
REMARK    1  A    between atoms: C_1  and  C_2
REMARK    2  A    between atoms: C_2  and  C_3
REMARK    3  A    between atoms: C_3  and  C_4
REMARK    4  A    between atoms: C_4  and  O_33
REMARK    5  A    between atoms: C_5  and  C_32
REMARK    6  A    between atoms: C_7  and  C_23
REMARK    7  A    between atoms: C_9  and  C_14
REMARK    8  A    between atoms: C_11  and  C_13
REMARK    9  A    between atoms: C_17  and  N_20
REMARK   10  A    between atoms: N_20  and  C_21
REMARK   11  A    between atoms: N_20  and  C_22
REMARK   12  A    between atoms: C_26  and  N_29
REMARK   13  A    between atoms: N_29  and  C_30
REMARK   14  A    between atoms: N_29  and  C_31
REMARK                            x       y       z     vdW  Elec       q    Type
REMARK                         _______ _______ _______ _____ _____    ______ ____
ROOT
ATOM      1  C   UNL     1      -4.118   3.936  -0.798  0.00  0.00    +0.069 C 
ATOM      2  C   UNL     1      -5.204   4.343   0.202  0.00  0.00    +0.008 C 
ATOM      3  C   UNL     1      -4.873   3.754   1.575  0.00  0.00    -0.034 C 
ATOM      4  C   UNL     1      -2.498   3.830   1.100  0.00  0.00    -0.034 C 
ATOM      5  C   UNL     1      -2.758   4.422  -0.288  0.00  0.00    +0.008 C 
ATOM      6  C   UNL     1      -1.659   3.967  -1.251  0.00  0.00    +0.009 C 
ATOM      7  C   UNL     1      -6.559   3.811  -0.270  0.00  0.00    +0.009 C 
ATOM      8  N   UNL     1      -3.562   4.256   2.029  0.00  0.00    +0.389 N 
ATOM      9  H   UNL     1      -3.363   3.883   2.965  0.00  0.00    -0.084 HD
ATOM     10  H   UNL     1      -3.588   5.281   2.067  0.00  0.00    -0.084 HD
ENDROOT
BRANCH   4  11
ATOM     11  C   UNL     1      -1.170   4.321   1.614  0.00  0.00    -0.061 A 
ATOM     12  C   UNL     1      -1.068   5.585   2.166  0.00  0.00    +0.004 A 
ATOM     13  C   UNL     1       0.149   6.040   2.634  0.00  0.00    +0.023 A 
ATOM     14  C   UNL     1       1.272   5.227   2.549  0.00  0.00    +0.029 A 
ATOM     15  C   UNL     1       1.166   3.958   1.993  0.00  0.00    +0.023 A 
ATOM     16  C   UNL     1      -0.054   3.509   1.528  0.00  0.00    +0.004 A 
BRANCH  14  17
ATOM     17  N   UNL     1       2.505   5.684   3.020  0.00  0.00    -0.336 N 
ATOM     18  C   UNL     1       3.688   4.825   2.929  0.00  0.00    +0.129 C 
ATOM     19  C   UNL     1       2.615   7.023   3.605  0.00  0.00    +0.129 C 
ENDBRANCH  14  17
ENDBRANCH   4  11
BRANCH   3  20
ATOM     20  C   UNL     1      -5.930   4.168   2.567  0.00  0.00    -0.061 A 
ATOM     21  C   UNL     1      -5.883   5.426   3.139  0.00  0.00    +0.004 A 
ATOM     22  C   UNL     1      -6.852   5.811   4.044  0.00  0.00    +0.023 A 
ATOM     23  C   UNL     1      -7.869   4.929   4.387  0.00  0.00    +0.029 A 
ATOM     24  C   UNL     1      -7.910   3.665   3.814  0.00  0.00    +0.023 A 
ATOM     25  C   UNL     1      -6.941   3.288   2.906  0.00  0.00    +0.004 A 
BRANCH  23  26
ATOM     26  N   UNL     1      -8.848   5.314   5.307  0.00  0.00    -0.336 N 
ATOM     27  C   UNL     1      -9.920   4.382   5.668  0.00  0.00    +0.129 C 
ATOM     28  C   UNL     1      -8.803   6.648   5.910  0.00  0.00    +0.129 C 
ENDBRANCH  23  26
ENDBRANCH   3  20
BRANCH   1  29
ATOM     29  O   UNL     1      -4.391   4.531  -2.068  0.00  0.00    -0.388 OA
ATOM     30  H   UNL     1      -3.741   4.315  -2.751  0.00  0.00    +0.210 HD
ENDBRANCH   1  29
BRANCH   1  31
ATOM     31  C   UNL     1      -4.098   2.413  -0.940  0.00  0.00    +0.035 C 
BRANCH  31  33
ATOM     32  C   UNL     1      -4.785   0.743   0.787  0.00  0.00    +0.004 C 
ATOM     33  C   UNL     1      -3.728   1.781   0.404  0.00  0.00    -0.001 C 
ENDBRANCH  31  33
ENDBRANCH   1  31
TORSDOF 7
