REMARK  Name = ZINC35919182
REMARK  9 active torsions:
REMARK  status: ('A' for Active; 'I' for Inactive)
REMARK    1  A    between atoms: C_1  and  C_2
REMARK    2  A    between atoms: C_2  and  N_3
REMARK    3  A    between atoms: N_3  and  C_4
REMARK    4  A    between atoms: N_14  and  C_17
REMARK    5  A    between atoms: N_26  and  C_28
REMARK    6  A    between atoms: C_28  and  C_29
REMARK    7  A    between atoms: C_33  and  O_36
REMARK    8  A    between atoms: C_34  and  O_35
REMARK    9  A    between atoms: O_36  and  C_37
REMARK                            x       y       z     vdW  Elec       q    Type
REMARK                         _______ _______ _______ _____ _____    ______ ____
ROOT
ATOM      1  N   UNL     1      -1.117  -0.962  -0.169  0.00  0.00    -0.318 N 
ATOM      2  C   UNL     1      -1.154   0.362  -0.794  0.00  0.00    +0.130 C 
ATOM      3  C   UNL     1      -1.721  -1.164   1.062  0.00  0.00    +0.128 A 
ATOM      4  C   UNL     1      -3.039  -1.626   1.138  0.00  0.00    -0.003 A 
ATOM      5  C   UNL     1      -3.599  -1.814   2.380  0.00  0.00    +0.048 A 
ATOM      6  N   UNL     1      -2.879  -1.549   3.463  0.00  0.00    -0.219 NA
ATOM      7  C   UNL     1      -1.633  -1.112   3.364  0.00  0.00    +0.220 A 
ATOM      8  N   UNL     1      -1.055  -0.926   2.186  0.00  0.00    -0.199 NA
ATOM      9  N   UNL     1      -0.916  -0.848   4.517  0.00  0.00    -0.297 N 
ATOM     10  C   UNL     1      -1.523  -1.056   5.840  0.00  0.00    +0.127 C 
ATOM     11  C   UNL     1      -0.623  -1.997   6.650  0.00  0.00    +0.124 C 
ATOM     12  N   UNL     1       0.759  -1.506   6.575  0.00  0.00    -0.325 N 
ATOM     13  C   UNL     1       1.367  -1.298   5.253  0.00  0.00    +0.124 C 
ATOM     14  C   UNL     1       0.469  -0.362   4.442  0.00  0.00    +0.127 C 
ATOM     15  C   UNL     1      -5.011  -2.316   2.537  0.00  0.00    +0.037 C 
ATOM     16  C   UNL     1      -5.762  -2.163   1.213  0.00  0.00    -0.072 C 
ATOM     17  N   UNL     1      -4.954  -2.763   0.141  0.00  0.00    +0.386 N 
ATOM     18  C   UNL     1      -3.800  -1.900  -0.129  0.00  0.00    -0.037 C 
ATOM     19  H   UNL     1      -4.634  -3.675   0.429  0.00  0.00    -0.081 HD
ENDROOT
BRANCH  12  20
ATOM     20  C   UNL     1       1.484  -1.239   7.740  0.00  0.00    +0.065 A 
ATOM     21  C   UNL     1       2.253  -2.237   8.325  0.00  0.00    +0.026 A 
ATOM     22  C   UNL     1       2.968  -1.971   9.477  0.00  0.00    +0.002 A 
ATOM     23  C   UNL     1       2.920  -0.712  10.048  0.00  0.00    +0.003 A 
ATOM     24  C   UNL     1       2.156   0.285   9.470  0.00  0.00    +0.040 A 
ATOM     25  C   UNL     1       1.442   0.027   8.314  0.00  0.00    +0.144 A 
ATOM     26  F   UNL     1       0.700   1.003   7.745  0.00  0.00    -0.204 F 
ENDBRANCH  12  20
BRANCH   1  28
ATOM     27  C   UNL     1       1.026  -2.113  -0.417  0.00  0.00    +0.024 C 
ATOM     28  C   UNL     1      -0.443  -2.073  -0.844  0.00  0.00    +0.103 C 
ENDBRANCH   1  28
BRANCH  17  29
ATOM     29  C   UNL     1      -5.769  -2.889  -1.076  0.00  0.00    -0.039 C 
BRANCH  29  30
ATOM     30  C   UNL     1      -6.882  -3.876  -0.835  0.00  0.00    -0.019 A 
ATOM     31  C   UNL     1      -8.176  -3.426  -0.648  0.00  0.00    +0.005 A 
ATOM     32  C   UNL     1      -9.199  -4.329  -0.427  0.00  0.00    +0.004 A 
ATOM     33  C   UNL     1      -8.933  -5.685  -0.392  0.00  0.00    +0.049 A 
ATOM     34  C   UNL     1      -7.639  -6.142  -0.579  0.00  0.00    +0.161 A 
ATOM     35  C   UNL     1      -6.609  -5.234  -0.808  0.00  0.00    +0.160 A 
BRANCH  35  36
ATOM     36  O   UNL     1      -5.338  -5.678  -0.997  0.00  0.00    -0.503 OA
ATOM     37  H   UNL     1      -4.824  -5.759  -0.182  0.00  0.00    +0.292 HD
ENDBRANCH  35  36
BRANCH  34  38
ATOM     38  O   UNL     1      -7.375  -7.476  -0.545  0.00  0.00    -0.491 OA
ATOM     39  C   UNL     1      -8.482  -8.350  -0.311  0.00  0.00    +0.277 C 
ENDBRANCH  34  38
ENDBRANCH  29  30
ENDBRANCH  17  29
TORSDOF 6
