REMARK  Name = ZINC39683599
REMARK  10 active torsions:
REMARK  status: ('A' for Active; 'I' for Inactive)
REMARK    1  A    between atoms: C_1  and  C_2
REMARK    2  A    between atoms: C_2  and  C_3
REMARK    3  A    between atoms: C_3  and  C_4
REMARK    4  A    between atoms: C_4  and  N_5
REMARK    5  A    between atoms: C_8  and  C_11
REMARK    6  A    between atoms: C_11  and  N_12
REMARK    7  A    between atoms: C_13  and  C_15
REMARK    8  A    between atoms: C_26  and  C_28
REMARK    9  A    between atoms: C_29  and  C_34
REMARK   10  A    between atoms: C_32  and  C_33
REMARK                            x       y       z     vdW  Elec       q    Type
REMARK                         _______ _______ _______ _____ _____    ______ ____
ROOT
ATOM      1  C   UNL     1      -7.707  -8.224   0.837  0.00  0.00    +0.100 C 
ATOM      2  C   UNL     1      -7.103  -8.752  -0.483  0.00  0.00    +0.121 C 
ATOM      3  N   UNL     1      -7.951  -9.912  -0.845  0.00  0.00    -0.296 N 
ATOM      4  C   UNL     1      -9.327  -9.486  -0.496  0.00  0.00    +0.115 C 
ATOM      5  C   UNL     1      -9.167  -8.707   0.825  0.00  0.00    -0.004 C 
ATOM      6  C   UNL     1     -10.118  -7.514   0.852  0.00  0.00    -0.010 C 
ATOM      7  C   UNL     1     -11.562  -8.020   0.898  0.00  0.00    -0.082 C 
ATOM      8  N   UNL     1     -11.754  -8.851   2.093  0.00  0.00    +0.379 N 
ATOM      9  C   UNL     1     -10.902 -10.045   2.014  0.00  0.00    -0.082 C 
ATOM     10  C   UNL     1      -9.430  -9.624   2.015  0.00  0.00    -0.010 C 
ATOM     11  C   UNL     1      -7.559 -11.089  -1.373  0.00  0.00    +0.252 C 
ATOM     12  O   UNL     1      -8.383 -11.950  -1.617  0.00  0.00    -0.270 OA
ATOM     13  H   UNL     1     -11.509  -8.319   2.914  0.00  0.00    -0.086 HD
ATOM     14  H   UNL     1     -12.721  -9.133   2.154  0.00  0.00    -0.086 HD
ENDROOT
BRANCH  11  15
ATOM     15  C   UNL     1      -6.133 -11.333  -1.653  0.00  0.00    +0.101 A 
ATOM     16  C   UNL     1      -5.152 -11.921  -0.740  0.00  0.00    +0.093 A 
ATOM     17  N   UNL     1      -4.016 -11.960  -1.372  0.00  0.00    -0.083 NA
ATOM     18  O   UNL     1      -4.198 -11.423  -2.667  0.00  0.00    -0.359 OA
ATOM     19  C   UNL     1      -5.474 -11.058  -2.817  0.00  0.00    +0.147 A 
ATOM     20  C   UNL     1      -6.080 -10.447  -4.055  0.00  0.00    +0.090 C 
ATOM     21  C   UNL     1      -5.411 -12.394   0.667  0.00  0.00    +0.070 C 
ENDBRANCH  11  15
BRANCH   1  23
ATOM     22  N   UNL     1      -7.567  -6.075   2.055  0.00  0.00    -0.315 N 
ATOM     23  C   UNL     1      -7.652  -6.718   0.874  0.00  0.00    +0.218 C 
ATOM     24  O   UNL     1      -7.685  -6.085  -0.160  0.00  0.00    -0.275 OA
ATOM     25  H   UNL     1      -7.540  -6.582   2.882  0.00  0.00    +0.149 HD
BRANCH  22  26
ATOM     26  C   UNL     1      -7.514  -4.612   2.091  0.00  0.00    +0.107 C 
BRANCH  26  30
ATOM     27  N   UNL     1      -6.014  -2.590   5.546  0.00  0.00    +0.380 N 
ATOM     28  C   UNL     1      -7.315  -2.142   5.037  0.00  0.00    -0.079 C 
ATOM     29  C   UNL     1      -7.490  -2.611   3.591  0.00  0.00    -0.014 C 
ATOM     30  C   UNL     1      -7.420  -4.140   3.543  0.00  0.00    +0.003 C 
ATOM     31  C   UNL     1      -6.088  -4.599   4.146  0.00  0.00    -0.014 C 
ATOM     32  C   UNL     1      -5.966  -4.057   5.571  0.00  0.00    -0.079 C 
ATOM     33  H   UNL     1      -5.282  -2.241   4.946  0.00  0.00    -0.082 HD
BRANCH  27  34
ATOM     34  C   UNL     1      -5.818  -2.072   6.907  0.00  0.00    -0.079 C 
BRANCH  34  35
ATOM     35  C   UNL     1      -5.742  -0.544   6.865  0.00  0.00    -0.019 C 
BRANCH  35  37
ATOM     36  C   UNL     1      -5.463   1.522   8.241  0.00  0.00    +0.004 C 
ATOM     37  C   UNL     1      -5.538  -0.005   8.283  0.00  0.00    -0.005 C 
ENDBRANCH  35  37
ENDBRANCH  34  35
ENDBRANCH  27  34
ENDBRANCH  26  30
ENDBRANCH  22  26
ENDBRANCH   1  23
TORSDOF 7
