REMARK  Name = ZINC36660429
REMARK  12 active torsions:
REMARK  status: ('A' for Active; 'I' for Inactive)
REMARK    1  A    between atoms: C_1  and  C_2
REMARK    2  A    between atoms: C_4  and  C_36
REMARK    3  A    between atoms: N_11  and  C_12
REMARK    4  A    between atoms: C_12  and  C_13
REMARK    5  A    between atoms: C_13  and  N_14
REMARK    6  A    between atoms: N_14  and  C_15
REMARK    7  A    between atoms: N_14  and  C_16
REMARK    8  A    between atoms: C_17  and  C_19
REMARK    9  A    between atoms: N_24  and  S_25
REMARK   10  A    between atoms: S_25  and  C_28
REMARK   11  A    between atoms: C_31  and  O_34
REMARK   12  A    between atoms: O_34  and  C_35
REMARK                            x       y       z     vdW  Elec       q    Type
REMARK                         _______ _______ _______ _____ _____    ______ ____
ROOT
ATOM      1  C   UNL     1      -1.513   1.126  -0.682  0.00  0.00    +0.044 C 
ATOM      2  C   UNL     1      -1.230  -0.349  -0.562  0.00  0.00    -0.049 A 
ATOM      3  C   UNL     1      -0.979  -1.109  -1.696  0.00  0.00    +0.009 A 
ATOM      4  C   UNL     1      -0.720  -2.452  -1.615  0.00  0.00    -0.024 A 
ATOM      5  C   UNL     1      -0.700  -3.110  -0.363  0.00  0.00    +0.083 A 
ATOM      6  C   UNL     1      -0.960  -2.305   0.769  0.00  0.00    +0.041 A 
ATOM      7  C   UNL     1      -1.214  -0.959   0.679  0.00  0.00    +0.020 A 
ATOM      8  S   UNL     1      -0.845  -3.476   2.100  0.00  0.00    -0.052 S 
ATOM      9  C   UNL     1      -0.471  -4.912   1.104  0.00  0.00    +0.168 A 
ATOM     10  N   UNL     1      -0.463  -4.415  -0.111  0.00  0.00    -0.224 NA
ATOM     11  N   UNL     1      -0.248  -6.218   1.511  0.00  0.00    -0.251 N 
ATOM     12  C   UNL     1       0.023  -7.171   0.597  0.00  0.00    +0.240 C 
ATOM     13  O   UNL     1       0.163  -8.323   0.947  0.00  0.00    -0.273 OA
ATOM     14  C   UNL     1      -0.453  -3.236  -2.873  0.00  0.00    +0.046 C 
ENDROOT
BRANCH  12  15
ATOM     15  C   UNL     1       0.152  -6.804  -0.859  0.00  0.00    +0.166 C 
ATOM     16  C   UNL     1       1.500  -6.095  -1.104  0.00  0.00    +0.031 C 
ATOM     17  C   UNL     1       2.408  -7.243  -1.620  0.00  0.00    +0.019 C 
ATOM     18  C   UNL     1       1.404  -8.087  -2.444  0.00  0.00    +0.110 C 
ATOM     19  N   UNL     1       0.139  -8.021  -1.684  0.00  0.00    -0.165 NA
BRANCH  19  20
ATOM     20  S   UNL     1      -1.088  -9.131  -1.746  0.00  0.00    +0.062 S 
ATOM     21  O   UNL     1      -0.508 -10.355  -2.176  0.00  0.00    -0.153 OA
ATOM     22  O   UNL     1      -1.804  -9.015  -0.524  0.00  0.00    -0.153 OA
BRANCH  20  23
ATOM     23  C   UNL     1      -2.188  -8.620  -3.024  0.00  0.00    +0.106 A 
ATOM     24  C   UNL     1      -3.240  -7.771  -2.731  0.00  0.00    +0.032 A 
ATOM     25  C   UNL     1      -4.104  -7.369  -3.731  0.00  0.00    +0.047 A 
ATOM     26  C   UNL     1      -3.916  -7.817  -5.031  0.00  0.00    +0.120 A 
ATOM     27  C   UNL     1      -2.860  -8.669  -5.322  0.00  0.00    +0.047 A 
ATOM     28  C   UNL     1      -1.996  -9.064  -4.319  0.00  0.00    +0.032 A 
BRANCH  26  29
ATOM     29  O   UNL     1      -4.765  -7.424  -6.016  0.00  0.00    -0.495 OA
ATOM     30  C   UNL     1      -4.511  -7.925  -7.330  0.00  0.00    +0.277 C 
ENDBRANCH  26  29
ENDBRANCH  20  23
ENDBRANCH  19  20
ENDBRANCH  12  15
BRANCH  11  31
ATOM     31  C   UNL     1      -0.306  -6.562   2.934  0.00  0.00    +0.097 C 
BRANCH  31  32
ATOM     32  C   UNL     1      -1.726  -7.006   3.293  0.00  0.00    -0.060 C 
BRANCH  32  33
ATOM     33  N   UNL     1      -1.792  -7.320   4.726  0.00  0.00    +0.377 N 
ATOM     34  C   UNL     1      -3.180  -7.631   5.096  0.00  0.00    -0.097 C 
ATOM     35  C   UNL     1      -0.937  -8.480   5.014  0.00  0.00    -0.097 C 
ATOM     36  H   UNL     1      -1.472  -6.526   5.260  0.00  0.00    -0.083 HD
ENDBRANCH  32  33
ENDBRANCH  31  32
ENDBRANCH  11  31
TORSDOF 7
