REMARK  Name = ZINC05021290
REMARK  6 active torsions:
REMARK  status: ('A' for Active; 'I' for Inactive)
REMARK    1  A    between atoms: C_1  and  C_2
REMARK    2  A    between atoms: C_5  and  N_8
REMARK    3  A    between atoms: C_17  and  S_18
REMARK    4  A    between atoms: S_18  and  C_19
REMARK    5  A    between atoms: C_19  and  C_21
REMARK    6  A    between atoms: C_19  and  C_22
REMARK                            x       y       z     vdW  Elec       q    Type
REMARK                         _______ _______ _______ _____ _____    ______ ____
ROOT
ATOM      1  N   UNL     1      -1.651   4.494  -4.529  0.00  0.00    -0.255 N 
ATOM      2  C   UNL     1      -1.889   3.563  -3.575  0.00  0.00    +0.268 A 
ATOM      3  O   UNL     1      -2.248   2.431  -3.852  0.00  0.00    -0.267 OA
ATOM      4  C   UNL     1      -1.693   3.989  -2.222  0.00  0.00    +0.076 A 
ATOM      5  C   UNL     1      -1.879   3.188  -1.023  0.00  0.00    -0.023 A 
ATOM      6  C   UNL     1      -1.636   3.799   0.159  0.00  0.00    -0.004 A 
ATOM      7  S   UNL     1      -1.151   5.454  -0.263  0.00  0.00    -0.073 S 
ATOM      8  C   UNL     1      -1.275   5.324  -2.019  0.00  0.00    +0.117 A 
ATOM      9  N   UNL     1      -1.058   6.191  -3.000  0.00  0.00    -0.215 NA
ATOM     10  C   UNL     1      -1.248   5.765  -4.241  0.00  0.00    +0.178 A 
ATOM     11  C   UNL     1      -1.754   3.205   1.529  0.00  0.00    +0.043 C 
ATOM     12  C   UNL     1      -2.552   1.897   1.424  0.00  0.00    +0.005 C 
ATOM     13  C   UNL     1      -1.981   1.067   0.270  0.00  0.00    +0.005 C 
ATOM     14  C   UNL     1      -2.326   1.729  -1.064  0.00  0.00    +0.037 C 
ENDROOT
BRANCH   1  19
ATOM     15  C   UNL     1      -2.361   3.045  -9.969  0.00  0.00    +0.044 C 
ATOM     16  C   UNL     1      -2.173   3.429  -8.524  0.00  0.00    -0.050 A 
ATOM     17  C   UNL     1      -3.230   3.958  -7.808  0.00  0.00    +0.005 A 
ATOM     18  C   UNL     1      -3.061   4.312  -6.484  0.00  0.00    +0.026 A 
ATOM     19  C   UNL     1      -1.827   4.136  -5.872  0.00  0.00    +0.052 A 
ATOM     20  C   UNL     1      -0.765   3.610  -6.596  0.00  0.00    +0.026 A 
ATOM     21  C   UNL     1      -0.942   3.253  -7.918  0.00  0.00    +0.005 A 
ENDBRANCH   1  19
BRANCH  10  22
ATOM     22  S   UNL     1      -0.970   6.885  -5.572  0.00  0.00    -0.075 S 
BRANCH  22  23
ATOM     23  C   UNL     1      -0.474   8.358  -4.644  0.00  0.00    +0.137 C 
ATOM     24  C   UNL     1       0.846   8.085  -3.921  0.00  0.00    +0.029 C 
BRANCH  23  25
ATOM     25  C   UNL     1      -0.296   9.514  -5.595  0.00  0.00    +0.224 C 
ATOM     26  O   UNL     1      -0.124   9.306  -6.777  0.00  0.00    -0.275 OA
ATOM     27  N   UNL     1      -0.327  10.779  -5.131  0.00  0.00    -0.328 N 
ATOM     28  H   UNL     1      -0.464  10.946  -4.185  0.00  0.00    +0.145 HD
ATOM     29  H   UNL     1      -0.212  11.523  -5.743  0.00  0.00    +0.145 HD
ENDBRANCH  23  25
ENDBRANCH  22  23
ENDBRANCH  10  22
TORSDOF 4
