REMARK  Name = ZINC13960837
REMARK  7 active torsions:
REMARK  status: ('A' for Active; 'I' for Inactive)
REMARK    1  A    between atoms: C_1  and  C_2
REMARK    2  A    between atoms: C_2  and  N_3
REMARK    3  A    between atoms: C_4  and  C_31
REMARK    4  A    between atoms: C_5  and  C_8
REMARK    5  A    between atoms: C_12  and  C_15
REMARK    6  A    between atoms: N_18  and  N_19
REMARK    7  A    between atoms: N_19  and  C_20
REMARK                            x       y       z     vdW  Elec       q    Type
REMARK                         _______ _______ _______ _____ _____    ______ ____
ROOT
ATOM      1  C   UNL     1       0.002  -0.004   0.002  0.00  0.00    +0.057 C 
ATOM      2  N   UNL     1      -0.016   1.303   0.009  0.00  0.00    -0.218 NA
ATOM      3  C   UNL     1       1.136   2.017   0.002  0.00  0.00    +0.225 C 
ATOM      4  N   UNL     1       2.273   1.485   0.350  0.00  0.00    -0.242 NA
ATOM      5  C   UNL     1       2.352   0.084   0.768  0.00  0.00    +0.180 C 
ATOM      6  C   UNL     1       1.321  -0.736  -0.011  0.00  0.00    +0.088 C 
ATOM      7  N   UNL     1       1.104   3.341  -0.384  0.00  0.00    -0.246 N 
ATOM      8  H   UNL     1       0.264   3.749  -0.646  0.00  0.00    +0.169 HD
ENDROOT
BRANCH   1  11
ATOM      9  N   UNL     1      -3.398  -1.252   0.017  0.00  0.00    -0.268 N 
ATOM     10  C   UNL     1      -2.535  -0.223   0.017  0.00  0.00    +0.045 A 
ATOM     11  C   UNL     1      -1.257  -0.757   0.006  0.00  0.00    +0.037 A 
ATOM     12  C   UNL     1      -1.395  -2.165  -0.007  0.00  0.00    +0.144 A 
ATOM     13  N   UNL     1      -2.669  -2.446   0.005  0.00  0.00    -0.179 NA
ATOM     14  C   UNL     1      -2.890   1.241   0.028  0.00  0.00    +0.066 C 
BRANCH   9  16
ATOM     15  C   UNL     1      -5.376  -1.095  -1.413  0.00  0.00    +0.029 C 
ATOM     16  C   UNL     1      -4.859  -1.142   0.026  0.00  0.00    +0.140 C 
ENDBRANCH   9  16
ENDBRANCH   1  11
BRANCH   5  17
ATOM     17  C   UNL     1       3.755  -0.456   0.483  0.00  0.00    +0.366 C 
ATOM     18  F   UNL     1       3.829  -1.796   0.879  0.00  0.00    -0.207 F 
ATOM     19  F   UNL     1       4.022  -0.360  -0.887  0.00  0.00    -0.207 F 
ENDBRANCH   5  17
BRANCH   7  20
ATOM     20  N   UNL     1       2.255   4.077  -0.398  0.00  0.00    -0.199 NA
ATOM     21  H   UNL     1       2.702   4.065   0.506  0.00  0.00    +0.148 HD
BRANCH  20  22
ATOM     22  C   UNL     1       1.994   5.454  -0.839  0.00  0.00    +0.294 C 
ATOM     23  C   UNL     1       2.977   6.398  -0.194  0.00  0.00    +0.023 A 
ATOM     24  C   UNL     1       3.255   6.725   1.112  0.00  0.00    +0.009 A 
ATOM     25  C   UNL     1       4.243   7.654   1.398  0.00  0.00    +0.000 A 
ATOM     26  C   UNL     1       4.951   8.255   0.372  0.00  0.00    +0.001 A 
ATOM     27  C   UNL     1       4.681   7.934  -0.942  0.00  0.00    +0.015 A 
ATOM     28  C   UNL     1       3.687   6.998  -1.238  0.00  0.00    +0.067 A 
ATOM     29  C   UNL     1       3.175   6.456  -2.510  0.00  0.00    +0.341 C 
ATOM     30  O   UNL     1       3.578   6.771  -3.611  0.00  0.00    -0.245 OA
ATOM     31  O   UNL     1       2.198   5.565  -2.274  0.00  0.00    -0.437 OA
ENDBRANCH  20  22
ENDBRANCH   7  20
TORSDOF 5
