REMARK  Name = ZINC14551144
REMARK  5 active torsions:
REMARK  status: ('A' for Active; 'I' for Inactive)
REMARK    1  A    between atoms: C_1  and  C_2
REMARK    2  A    between atoms: C_2  and  N_3
REMARK    3  A    between atoms: C_4  and  C_6
REMARK    4  A    between atoms: C_19  and  C_22
REMARK    5  A    between atoms: C_25  and  N_28
REMARK                            x       y       z     vdW  Elec       q    Type
REMARK                         _______ _______ _______ _____ _____    ______ ____
ROOT
ATOM      1  C   UNL     1       3.624  -3.206   0.992  0.00  0.00    +0.037 A 
ATOM      2  C   UNL     1       3.231  -3.966  -0.114  0.00  0.00    +0.015 A 
ATOM      3  C   UNL     1       2.212  -3.515  -0.920  0.00  0.00    +0.024 A 
ATOM      4  C   UNL     1       1.576  -2.309  -0.637  0.00  0.00    +0.031 A 
ATOM      5  C   UNL     1       1.958  -1.545   0.460  0.00  0.00    -0.019 A 
ATOM      6  C   UNL     1       2.983  -1.999   1.271  0.00  0.00    +0.019 A 
ATOM      7  C   UNL     1       1.299  -0.245   0.798  0.00  0.00    +0.049 C 
ATOM      8  C   UNL     1       2.180   0.928   0.439  0.00  0.00    -0.023 C 
ATOM      9  C   UNL     1       1.451   1.924  -0.002  0.00  0.00    -0.030 C 
ATOM     10  C   UNL     1      -0.019   1.553   0.011  0.00  0.00    +0.033 C 
ATOM     11  C   UNL     1       0.002  -0.004   0.002  0.00  0.00    +0.029 C 
ATOM     12  C   UNL     1       0.192  -0.450  -1.451  0.00  0.00    +0.105 C 
ATOM     13  N   UNL     1       0.547  -1.872  -1.469  0.00  0.00    -0.336 N 
ATOM     14  H   UNL     1       0.078  -2.494  -2.047  0.00  0.00    +0.147 HD
ENDROOT
BRANCH  12  15
ATOM     15  C   UNL     1      -1.090  -0.240  -2.214  0.00  0.00    -0.027 A 
ATOM     16  C   UNL     1      -2.116  -1.161  -2.109  0.00  0.00    +0.008 A 
ATOM     17  C   UNL     1      -3.294  -0.966  -2.806  0.00  0.00    +0.033 A 
ATOM     18  C   UNL     1      -3.443   0.144  -3.615  0.00  0.00    +0.126 A 
ATOM     19  C   UNL     1      -2.415   1.062  -3.725  0.00  0.00    +0.033 A 
ATOM     20  C   UNL     1      -1.239   0.870  -3.025  0.00  0.00    +0.008 A 
BRANCH  18  21
ATOM     21  N   UNL     1      -4.702   0.351  -4.365  0.00  0.00    +0.056 N 
ATOM     22  O   UNL     1      -4.834   1.329  -5.078  0.00  0.00    -0.126 OA
ATOM     23  O   UNL     1      -5.608  -0.458  -4.268  0.00  0.00    -0.126 OA
ENDBRANCH  18  21
ENDBRANCH  12  15
BRANCH   1  25
ATOM     24  N   UNL     1       5.334  -4.847   1.594  0.00  0.00    -0.312 N 
ATOM     25  C   UNL     1       4.715  -3.680   1.864  0.00  0.00    +0.244 C 
ATOM     26  O   UNL     1       5.057  -3.019   2.825  0.00  0.00    -0.270 OA
ATOM     27  H   UNL     1       5.062  -5.375   0.827  0.00  0.00    +0.149 HD
BRANCH  24  29
ATOM     28  C   UNL     1       6.944  -6.656   1.937  0.00  0.00    +0.024 C 
ATOM     29  C   UNL     1       6.418  -5.318   2.460  0.00  0.00    +0.101 C 
ENDBRANCH  24  29
ENDBRANCH   1  25
TORSDOF 4
