REMARK  Name = ZINC00956051
REMARK  6 active torsions:
REMARK  status: ('A' for Active; 'I' for Inactive)
REMARK    1  A    between atoms: C_5  and  O_7
REMARK    2  A    between atoms: O_7  and  C_8
REMARK    3  A    between atoms: C_14  and  O_29
REMARK    4  A    between atoms: C_15  and  C_23
REMARK    5  A    between atoms: C_18  and  C_19
REMARK    6  A    between atoms: C_23  and  N_50
REMARK                            x       y       z     vdW  Elec       q    Type
REMARK                         _______ _______ _______ _____ _____    ______ ____
ROOT
ATOM      1  C   UNL     1      -3.792  -0.752  -2.855  0.00  0.00    +0.222 A 
ATOM      2  C   UNL     1      -3.502   0.487  -3.495  0.00  0.00    +0.235 A 
ATOM      3  O   UNL     1      -4.119   0.852  -4.482  0.00  0.00    -0.283 OA
ATOM      4  C   UNL     1      -2.426   1.309  -2.915  0.00  0.00    +0.068 A 
ATOM      5  C   UNL     1      -2.070   2.539  -3.472  0.00  0.00    +0.019 A 
ATOM      6  C   UNL     1      -1.068   3.273  -2.906  0.00  0.00    +0.046 A 
ATOM      7  C   UNL     1      -0.400   2.802  -1.777  0.00  0.00    +0.122 A 
ATOM      8  C   UNL     1      -0.742   1.585  -1.213  0.00  0.00    +0.020 A 
ATOM      9  C   UNL     1      -1.754   0.824  -1.780  0.00  0.00    +0.144 A 
ATOM     10  O   UNL     1      -2.111  -0.363  -1.247  0.00  0.00    -0.447 OA
ATOM     11  C   UNL     1      -3.087  -1.118  -1.766  0.00  0.00    +0.254 A 
ENDROOT
BRANCH  11  12
ATOM     12  C   UNL     1      -3.412  -2.433  -1.105  0.00  0.00    +0.454 C 
ATOM     13  F   UNL     1      -2.633  -3.446  -1.674  0.00  0.00    -0.163 F 
ATOM     14  F   UNL     1      -3.137  -2.347   0.264  0.00  0.00    -0.163 F 
ATOM     15  F   UNL     1      -4.767  -2.727  -1.291  0.00  0.00    -0.163 F 
ENDBRANCH  11  12
BRANCH   7  16
ATOM     16  O   UNL     1       0.595   3.544  -1.226  0.00  0.00    -0.506 OA
ATOM     17  H   UNL     1       1.472   3.353  -1.584  0.00  0.00    +0.292 HD
ENDBRANCH   7  16
BRANCH   1  18
ATOM     18  O   UNL     1      -4.775  -1.560  -3.339  0.00  0.00    -0.447 OA
BRANCH  18  23
ATOM     19  C   UNL     1      -2.778  -3.541  -5.646  0.00  0.00    +0.004 A 
ATOM     20  C   UNL     1      -3.744  -4.383  -6.166  0.00  0.00    +0.002 A 
ATOM     21  C   UNL     1      -5.055  -4.281  -5.740  0.00  0.00    +0.024 A 
ATOM     22  C   UNL     1      -5.404  -3.336  -4.793  0.00  0.00    +0.083 A 
ATOM     23  C   UNL     1      -4.435  -2.489  -4.270  0.00  0.00    +0.147 A 
ATOM     24  C   UNL     1      -3.121  -2.591  -4.704  0.00  0.00    +0.048 A 
ATOM     25 CL   UNL     1      -7.050  -3.208  -4.258  0.00  0.00    -0.080 Cl
ENDBRANCH  18  23
ENDBRANCH   1  18
BRANCH   8  26
ATOM     26  C   UNL     1      -0.013   1.086   0.008  0.00  0.00    -0.036 C 
BRANCH  26  32
ATOM     27  C   UNL     1      -0.620   3.022   1.329  0.00  0.00    -0.078 C 
ATOM     28  C   UNL     1      -1.466   3.491   2.514  0.00  0.00    -0.019 C 
ATOM     29  C   UNL     1      -0.950   2.833   3.797  0.00  0.00    -0.004 C 
ATOM     30  C   UNL     1      -0.998   1.311   3.635  0.00  0.00    -0.019 C 
ATOM     31  C   UNL     1      -0.165   0.905   2.417  0.00  0.00    -0.078 C 
ATOM     32  N   UNL     1      -0.729   1.552   1.213  0.00  0.00    +0.383 N 
ATOM     33  H   UNL     1      -1.720   1.296   1.131  0.00  0.00    -0.081 HD
ENDBRANCH  26  32
ENDBRANCH   8  26
TORSDOF 6
