REMARK  Name = ZINC10716056
REMARK  5 active torsions:
REMARK  status: ('A' for Active; 'I' for Inactive)
REMARK    1  A    between atoms: C_1  and  C_2
REMARK    2  A    between atoms: C_15  and  C_17
REMARK    3  A    between atoms: C_17  and  C_19
REMARK    4  A    between atoms: C_17  and  S_20
REMARK    5  A    between atoms: S_20  and  C_21
REMARK                            x       y       z     vdW  Elec       q    Type
REMARK                         _______ _______ _______ _____ _____    ______ ____
ROOT
ATOM      1  C   UNL     1      -0.019   1.526   0.010  0.00  0.00    +0.008 C 
ATOM      2  C   UNL     1       0.002  -0.004   0.002  0.00  0.00    -0.009 C 
ATOM      3  C   UNL     1       0.726  -0.501  -1.253  0.00  0.00    +0.008 C 
ATOM      4  C   UNL     1       0.536  -2.011  -1.397  0.00  0.00    +0.037 C 
ATOM      5  C   UNL     1       0.949  -2.688  -0.093  0.00  0.00    -0.023 A 
ATOM      6  C   UNL     1       1.031  -1.976   1.055  0.00  0.00    -0.004 A 
ATOM      7  S   UNL     1       1.537  -3.145   2.292  0.00  0.00    -0.073 S 
ATOM      8  C   UNL     1       1.637  -4.581   1.270  0.00  0.00    +0.116 A 
ATOM      9  C   UNL     1       1.271  -4.101  -0.007  0.00  0.00    +0.075 A 
ATOM     10  C   UNL     1       1.257  -5.054  -1.081  0.00  0.00    +0.260 A 
ATOM     11  O   UNL     1       0.955  -4.742  -2.220  0.00  0.00    -0.267 OA
ATOM     12  N   UNL     1       1.599  -6.321  -0.747  0.00  0.00    -0.309 N 
ATOM     13  H   UNL     1       1.603  -6.997  -1.443  0.00  0.00    +0.170 HD
ATOM     14  C   UNL     1       1.938  -6.688   0.512  0.00  0.00    +0.124 A 
ATOM     15  N   UNL     1       1.962  -5.845   1.522  0.00  0.00    -0.225 NA
ATOM     16  C   UNL     1       0.751  -0.516   1.241  0.00  0.00    +0.046 C 
ENDROOT
BRANCH  14  17
ATOM     17  C   UNL     1       2.301  -8.127   0.768  0.00  0.00    +0.117 C 
ATOM     18  C   UNL     1       1.067  -8.886   1.259  0.00  0.00    +0.027 C 
BRANCH  17  19
ATOM     19  S   UNL     1       2.903  -8.882  -0.768  0.00  0.00    -0.073 S 
BRANCH  19  20
ATOM     20  C   UNL     1       3.420 -10.493  -0.278  0.00  0.00    +0.211 A 
ATOM     21  N   UNL     1       3.940 -11.423  -1.087  0.00  0.00    -0.188 NA
ATOM     22  H   UNL     1       3.954 -12.902   1.631  0.00  0.00    +0.192 HD
ATOM     23  C   UNL     1       4.215 -12.508  -0.395  0.00  0.00    +0.209 A 
ATOM     24  N   UNL     1       3.868 -12.283   0.889  0.00  0.00    -0.246 N 
ATOM     25  N   UNL     1       3.362 -10.974   0.941  0.00  0.00    -0.144 NA
ATOM     26  N   UNL     1       4.763 -13.674  -0.897  0.00  0.00    -0.328 N 
ATOM     27  H   UNL     1       4.981 -13.742  -1.840  0.00  0.00    +0.145 HD
ATOM     28  H   UNL     1       4.930 -14.425  -0.306  0.00  0.00    +0.145 HD
ENDBRANCH  19  20
ENDBRANCH  17  19
ENDBRANCH  14  17
TORSDOF 3
