REMARK  Name = ZINC39710965
REMARK  9 active torsions:
REMARK  status: ('A' for Active; 'I' for Inactive)
REMARK    1  A    between atoms: C_1  and  C_2
REMARK    2  A    between atoms: C_8  and  C_14
REMARK    3  A    between atoms: C_14  and  C_16
REMARK    4  A    between atoms: C_14  and  N_28
REMARK    5  A    between atoms: N_21  and  C_22
REMARK    6  A    between atoms: N_28  and  C_29
REMARK    7  A    between atoms: N_28  and  C_35
REMARK    8  A    between atoms: C_29  and  C_30
REMARK    9  A    between atoms: C_35  and  C_36
REMARK                            x       y       z     vdW  Elec       q    Type
REMARK                         _______ _______ _______ _____ _____    ______ ____
ROOT
ATOM      1  C   UNL     1      -2.237  -2.088   4.718  0.00  0.00    -0.009 C 
ENDROOT
BRANCH   1   9
ATOM      2  C   UNL     1      -1.524  -2.933  -1.320  0.00  0.00    +0.045 C 
ATOM      3  C   UNL     1      -2.533  -3.487  -0.347  0.00  0.00    -0.029 A 
ATOM      4  C   UNL     1      -3.671  -4.066  -0.813  0.00  0.00    +0.005 A 
ATOM      5  C   UNL     1      -4.644  -4.599   0.032  0.00  0.00    +0.001 A 
ATOM      6  C   UNL     1      -4.504  -4.566   1.382  0.00  0.00    +0.009 A 
ATOM      7  C   UNL     1      -3.302  -3.955   1.952  0.00  0.00    -0.007 A 
ATOM      8  C   UNL     1      -3.118  -3.900   3.301  0.00  0.00    -0.006 C 
ATOM      9  C   UNL     1      -1.843  -3.250   3.803  0.00  0.00    +0.088 C 
ATOM     10  C   UNL     1      -0.880  -2.717   2.766  0.00  0.00    +0.223 C 
ATOM     11  O   UNL     1       0.158  -2.186   3.113  0.00  0.00    -0.275 OA
ATOM     12  N   UNL     1      -1.171  -2.830   1.481  0.00  0.00    -0.284 N 
ATOM     13  C   UNL     1      -2.288  -3.406   1.036  0.00  0.00    +0.043 A 
ATOM     14  H   UNL     1      -0.540  -2.482   0.832  0.00  0.00    +0.155 HD
ENDBRANCH   1   9
BRANCH   1  15
ATOM     15  C   UNL     1      -2.642  -0.883   3.866  0.00  0.00    +0.205 C 
ATOM     16  N   UNL     1      -3.270   0.148   4.703  0.00  0.00    -0.152 NA
ATOM     17  N   UNL     1      -4.425   0.329   4.314  0.00  0.00    -0.070 NA
ATOM     18  N   UNL     1      -4.766  -0.480   3.230  0.00  0.00    -0.179 N 
ATOM     19  N   UNL     1      -3.690  -1.266   2.897  0.00  0.00    -0.185 NA
ATOM     20  H   UNL     1      -5.626  -0.486   2.782  0.00  0.00    +0.191 HD
BRANCH  19  21
ATOM     21  C   UNL     1      -3.253  -1.006   1.519  0.00  0.00    +0.080 C 
ATOM     22  C   UNL     1      -2.908   0.477   1.364  0.00  0.00    +0.021 C 
ATOM     23  C   UNL     1      -2.452   0.748  -0.071  0.00  0.00    +0.002 C 
ATOM     24  C   UNL     1      -3.578   0.382  -1.041  0.00  0.00    +0.000 C 
ATOM     25  C   UNL     1      -3.922  -1.101  -0.886  0.00  0.00    +0.002 C 
ATOM     26  C   UNL     1      -4.378  -1.371   0.549  0.00  0.00    +0.021 C 
ENDBRANCH  19  21
ENDBRANCH   1  15
BRANCH   1  27
ATOM     27  N   UNL     1      -1.095  -1.725   5.568  0.00  0.00    +0.389 N 
ATOM     28  H   UNL     1      -0.472  -1.121   5.054  0.00  0.00    -0.081 HD
BRANCH  27  29
ATOM     29  C   UNL     1      -0.377  -2.943   5.968  0.00  0.00    -0.035 C 
BRANCH  29  30
ATOM     30  C   UNL     1       0.736  -3.214   4.989  0.00  0.00    -0.027 A 
ATOM     31  C   UNL     1       1.930  -2.586   4.859  0.00  0.00    +0.009 A 
ATOM     32  C   UNL     1       2.807  -3.010   3.879  0.00  0.00    +0.008 A 
ATOM     33  C   UNL     1       2.447  -4.041   3.076  0.00  0.00    +0.045 A 
ATOM     34  S   UNL     1       0.828  -4.451   3.705  0.00  0.00    -0.103 S 
ENDBRANCH  29  30
ENDBRANCH  27  29
BRANCH  27  35
ATOM     35  C   UNL     1      -1.579  -1.026   6.766  0.00  0.00    -0.046 C 
BRANCH  35  36
ATOM     36  C   UNL     1      -2.896  -0.316   6.444  0.00  0.00    +0.102 C 
ATOM     37  C   UNL     1      -3.685  -0.061   7.747  0.00  0.00    +0.032 C 
ATOM     38  C   UNL     1      -5.147  -0.344   7.306  0.00  0.00    +0.030 C 
ATOM     39  C   UNL     1      -4.930  -1.480   6.275  0.00  0.00    +0.160 C 
ATOM     40  O   UNL     1      -3.703  -1.146   5.602  0.00  0.00    -0.378 OA
ENDBRANCH  35  36
ENDBRANCH  27  35
ENDBRANCH   1  27
TORSDOF 8
