REMARK  Name = ZINC55043476
REMARK  6 active torsions:
REMARK  status: ('A' for Active; 'I' for Inactive)
REMARK    1  A    between atoms: C_1  and  C_2
REMARK    2  A    between atoms: C_2  and  O_3
REMARK    3  A    between atoms: O_3  and  C_4
REMARK    4  A    between atoms: C_4  and  C_6
REMARK    5  A    between atoms: C_9  and  C_21
REMARK    6  A    between atoms: C_14  and  C_16
REMARK                            x       y       z     vdW  Elec       q    Type
REMARK                         _______ _______ _______ _____ _____    ______ ____
ROOT
ATOM      1  C   UNL     1      -2.792  -2.459  -0.161  0.00  0.00    +0.269 C 
ATOM      2  O   UNL     1      -3.840  -1.616  -0.006  0.00  0.00    -0.280 OA
ATOM      3  C   UNL     1      -2.997  -3.798  -0.181  0.00  0.00    +0.055 C 
ATOM      4  C   UNL     1      -4.354  -4.373  -0.201  0.00  0.00    +0.073 C 
ATOM      5  N   UNL     1      -4.522  -5.584   0.309  0.00  0.00    -0.192 NA
ATOM      6  C   UNL     1      -3.499  -6.278   0.811  0.00  0.00    +0.155 C 
ATOM      7  S   UNL     1      -3.843  -7.709   1.685  0.00  0.00    -0.017 S 
ATOM      8  N   UNL     1      -2.216  -5.916   0.667  0.00  0.00    -0.314 N 
ATOM      9  C   UNL     1      -1.842  -4.780  -0.190  0.00  0.00    +0.139 C 
ATOM     10  H   UNL     1      -1.525  -6.412   1.133  0.00  0.00    +0.149 HD
ENDROOT
BRANCH   4  11
ATOM     11  C   UNL     1      -5.492  -3.621  -0.772  0.00  0.00    +0.017 A 
ATOM     12  C   UNL     1      -5.293  -2.720  -1.826  0.00  0.00    +0.013 A 
ATOM     13  C   UNL     1      -6.391  -2.042  -2.324  0.00  0.00    +0.020 A 
ATOM     14  C   UNL     1      -7.638  -2.274  -1.772  0.00  0.00    +0.111 A 
ATOM     15  N   UNL     1      -7.796  -3.129  -0.780  0.00  0.00    -0.263 NA
ATOM     16  C   UNL     1      -6.784  -3.802  -0.274  0.00  0.00    +0.120 A 
ENDBRANCH   4  11
BRANCH   9  17
ATOM     17  C   UNL     1      -1.589  -5.258  -1.596  0.00  0.00    -0.016 A 
ATOM     18  C   UNL     1      -0.562  -4.717  -2.347  0.00  0.00    +0.013 A 
ATOM     19  C   UNL     1      -0.361  -5.169  -3.609  0.00  0.00    +0.045 A 
ATOM     20  S   UNL     1      -1.647  -6.397  -3.770  0.00  0.00    -0.105 S 
ATOM     21  C   UNL     1      -2.361  -6.228  -2.143  0.00  0.00    +0.051 A 
ENDBRANCH   9  17
BRANCH   1  22
ATOM     22  C   UNL     1      -1.424  -1.918  -0.307  0.00  0.00    +0.380 C 
ATOM     23  O   UNL     1      -0.499  -2.665  -0.558  0.00  0.00    -0.241 OA
BRANCH  22  24
ATOM     24  O   UNL     1      -1.202  -0.597  -0.163  0.00  0.00    -0.459 OA
BRANCH  24  26
ATOM     25  C   UNL     1       0.198   1.372  -0.120  0.00  0.00    +0.048 C 
ATOM     26  C   UNL     1       0.144  -0.144  -0.318  0.00  0.00    +0.229 C 
ENDBRANCH  24  26
ENDBRANCH  22  24
ENDBRANCH   1  22
TORSDOF 5
