REMARK  Name = ZINC01769128
REMARK  9 active torsions:
REMARK  status: ('A' for Active; 'I' for Inactive)
REMARK    1  A    between atoms: C_1  and  C_2
REMARK    2  A    between atoms: C_4  and  C_33
REMARK    3  A    between atoms: C_6  and  O_8
REMARK    4  A    between atoms: O_8  and  C_9
REMARK    5  A    between atoms: C_15  and  O_32
REMARK    6  A    between atoms: C_16  and  C_24
REMARK    7  A    between atoms: C_19  and  C_20
REMARK    8  A    between atoms: C_24  and  N_59
REMARK    9  A    between atoms: C_29  and  C_31
REMARK                            x       y       z     vdW  Elec       q    Type
REMARK                         _______ _______ _______ _____ _____    ______ ____
ROOT
ATOM      1  C   UNL     1       6.659  -3.056   0.093  0.00  0.00    +0.222 A 
ATOM      2  C   UNL     1       7.336  -1.857  -0.267  0.00  0.00    +0.235 A 
ATOM      3  O   UNL     1       8.511  -1.683   0.011  0.00  0.00    -0.283 OA
ATOM      4  C   UNL     1       6.559  -0.834  -0.987  0.00  0.00    +0.068 A 
ATOM      5  C   UNL     1       7.135   0.375  -1.381  0.00  0.00    +0.019 A 
ATOM      6  C   UNL     1       6.382   1.299  -2.047  0.00  0.00    +0.046 A 
ATOM      7  C   UNL     1       5.045   1.039  -2.340  0.00  0.00    +0.122 A 
ATOM      8  C   UNL     1       4.457  -0.152  -1.951  0.00  0.00    +0.020 A 
ATOM      9  C   UNL     1       5.208  -1.102  -1.273  0.00  0.00    +0.144 A 
ATOM     10  O   UNL     1       4.662  -2.273  -0.887  0.00  0.00    -0.447 OA
ATOM     11  C   UNL     1       5.360  -3.209  -0.232  0.00  0.00    +0.254 A 
ENDROOT
BRANCH  11  12
ATOM     12  C   UNL     1       4.664  -4.488   0.158  0.00  0.00    +0.454 C 
ATOM     13  F   UNL     1       4.096  -4.340   1.429  0.00  0.00    -0.163 F 
ATOM     14  F   UNL     1       3.658  -4.773  -0.771  0.00  0.00    -0.163 F 
ATOM     15  F   UNL     1       5.590  -5.535   0.180  0.00  0.00    -0.163 F 
ENDBRANCH  11  12
BRANCH   7  16
ATOM     16  O   UNL     1       4.311   1.965  -3.008  0.00  0.00    -0.506 OA
ATOM     17  H   UNL     1       3.862   2.601  -2.433  0.00  0.00    +0.292 HD
ENDBRANCH   7  16
BRANCH   1  18
ATOM     18  O   UNL     1       7.319  -4.042   0.760  0.00  0.00    -0.448 OA
BRANCH  18  24
ATOM     19  C   UNL     1       8.500  -5.872  -3.608  0.00  0.00    +0.044 C 
ATOM     20  C   UNL     1       8.546  -5.923  -2.102  0.00  0.00    -0.047 A 
ATOM     21  C   UNL     1       9.229  -6.943  -1.466  0.00  0.00    +0.007 A 
ATOM     22  C   UNL     1       9.273  -6.993  -0.085  0.00  0.00    -0.047 A 
ATOM     23  C   UNL     1       8.634  -6.023   0.663  0.00  0.00    +0.049 A 
ATOM     24  C   UNL     1       7.948  -4.998   0.027  0.00  0.00    +0.129 A 
ATOM     25  C   UNL     1       7.901  -4.953  -1.359  0.00  0.00    +0.049 A 
ATOM     26  C   UNL     1      10.018  -8.106   0.605  0.00  0.00    +0.044 C 
ENDBRANCH  18  24
ENDBRANCH   1  18
BRANCH   8  27
ATOM     27  C   UNL     1       3.008  -0.419  -2.268  0.00  0.00    -0.035 C 
BRANCH  27  34
ATOM     28  C   UNL     1       2.309   1.515  -0.991  0.00  0.00    -0.078 C 
ATOM     29  C   UNL     1       1.538   1.959   0.254  0.00  0.00    -0.019 C 
ATOM     30  C   UNL     1       0.061   1.587   0.093  0.00  0.00    -0.003 C 
ATOM     31  C   UNL     1      -0.055   0.077  -0.134  0.00  0.00    -0.016 C 
ATOM     32  C   UNL     1       0.763  -0.313  -1.367  0.00  0.00    -0.071 C 
ATOM     33  C   UNL     1       0.667  -1.824  -1.586  0.00  0.00    -0.013 C 
ATOM     34  N   UNL     1       2.178   0.050  -1.139  0.00  0.00    +0.384 N 
ATOM     35  H   UNL     1       2.503  -0.403  -0.276  0.00  0.00    -0.081 HD
ENDBRANCH  27  34
ENDBRANCH   8  27
TORSDOF 6
