REMARK  Name = ZINC01435781
REMARK  7 active torsions:
REMARK  status: ('A' for Active; 'I' for Inactive)
REMARK    1  A    between atoms: C_1  and  C_2
REMARK    2  A    between atoms: C_2  and  C_32
REMARK    3  A    between atoms: C_6  and  C_23
REMARK    4  A    between atoms: C_8  and  C_21
REMARK    5  A    between atoms: C_9  and  N_20
REMARK    6  A    between atoms: N_10  and  C_11
REMARK    7  A    between atoms: C_15  and  N_17
REMARK                            x       y       z     vdW  Elec       q    Type
REMARK                         _______ _______ _______ _____ _____    ______ ____
ROOT
ATOM      1  C   UNL     1       3.063   6.234  -1.773  0.00  0.00    +0.011 C 
ATOM      2  C   UNL     1       3.456   5.803  -0.358  0.00  0.00    -0.023 C 
ATOM      3  C   UNL     1       2.327   4.976   0.260  0.00  0.00    +0.058 C 
ATOM      4  C   UNL     1       1.077   5.817   0.354  0.00  0.00    +0.025 C 
ATOM      5  C   UNL     1       1.150   7.152   0.539  0.00  0.00    +0.026 C 
ATOM      6  C   UNL     1      -0.099   7.987   0.659  0.00  0.00    +0.104 C 
ATOM      7  C   UNL     1      -1.293   7.256   0.119  0.00  0.00    +0.077 C 
ATOM      8  C   UNL     1      -1.270   5.909  -0.064  0.00  0.00    +0.107 C 
ATOM      9  N   UNL     1      -0.138   5.191   0.251  0.00  0.00    -0.260 N 
ATOM     10  C   UNL     1       2.393   7.804   0.629  0.00  0.00    +0.162 C 
ATOM     11  O   UNL     1       2.424   9.006   0.804  0.00  0.00    -0.292 OA
ATOM     12  C   UNL     1       3.684   7.042   0.513  0.00  0.00    +0.086 C 
ATOM     13  C   UNL     1       4.738   4.969  -0.413  0.00  0.00    +0.011 C 
ENDROOT
BRANCH   9  14
ATOM     14  C   UNL     1      -0.228   3.811   0.462  0.00  0.00    +0.042 A 
ATOM     15  C   UNL     1      -0.131   2.935  -0.612  0.00  0.00    +0.024 A 
ATOM     16  C   UNL     1      -0.220   1.573  -0.400  0.00  0.00    +0.004 A 
ATOM     17  C   UNL     1      -0.404   1.081   0.879  0.00  0.00    +0.033 A 
ATOM     18  C   UNL     1      -0.506   1.950   1.950  0.00  0.00    +0.128 A 
ATOM     19  C   UNL     1      -0.413   3.313   1.745  0.00  0.00    +0.056 A 
BRANCH  18  20
ATOM     20  N   UNL     1      -0.710   1.420   3.316  0.00  0.00    +0.056 N 
ATOM     21  O   UNL     1      -0.787   0.218   3.498  0.00  0.00    -0.126 OA
ATOM     22  O   UNL     1      -0.800   2.185   4.260  0.00  0.00    -0.126 OA
ENDBRANCH  18  20
ENDBRANCH   9  14
BRANCH   6  23
ATOM     23  C   UNL     1      -0.336   8.317   2.110  0.00  0.00    +0.004 A 
ATOM     24  C   UNL     1      -0.405   9.531   2.709  0.00  0.00    +0.013 A 
ATOM     25  C   UNL     1      -0.633   9.595   4.071  0.00  0.00    +0.023 A 
ATOM     26  C   UNL     1      -0.781   8.440   4.767  0.00  0.00    +0.055 A 
ATOM     27  S   UNL     1      -0.605   7.210   3.485  0.00  0.00    -0.085 S 
ATOM     28 BR   UNL     1      -1.100   8.196   6.615  0.00  0.00    -0.043 Br
ENDBRANCH   6  23
BRANCH   8  29
ATOM     29  N   UNL     1      -2.377   5.262  -0.558  0.00  0.00    -0.345 N 
ATOM     30  H   UNL     1      -2.331   4.317  -0.772  0.00  0.00    +0.144 HD
ATOM     31  H   UNL     1      -3.204   5.750  -0.693  0.00  0.00    +0.144 HD
ENDBRANCH   8  29
BRANCH   7  32
ATOM     32  C   UNL     1      -2.477   7.990  -0.213  0.00  0.00    +0.099 C 
ATOM     33  N   UNL     1      -3.416   8.572  -0.477  0.00  0.00    -0.191 NA
ENDBRANCH   7  32
TORSDOF 5
