REMARK  Name = ZINC54056427
REMARK  5 active torsions:
REMARK  status: ('A' for Active; 'I' for Inactive)
REMARK    1  A    between atoms: C_1  and  C_2
REMARK    2  A    between atoms: N_8  and  C_9
REMARK    3  A    between atoms: C_10  and  S_12
REMARK    4  A    between atoms: S_12  and  C_13
REMARK    5  A    between atoms: N_18  and  C_19
REMARK                            x       y       z     vdW  Elec       q    Type
REMARK                         _______ _______ _______ _____ _____    ______ ____
ROOT
ATOM      1  C   UNL     1       0.042  -1.520   3.948  0.00  0.00    +0.166 A 
ATOM      2  N   UNL     1       0.017  -0.214   3.763  0.00  0.00    -0.133 NA
ATOM      3  N   UNL     1       0.011   0.631   4.849  0.00  0.00    -0.125 NA
ATOM      4  C   UNL     1       0.030   0.132   6.069  0.00  0.00    +0.183 A 
ATOM      5  S   UNL     1       0.051  -1.622   5.731  0.00  0.00    -0.024 S 
ATOM      6  N   UNL     1       0.030   0.793   7.292  0.00  0.00    -0.319 N 
ATOM      7  H   UNL     1       0.046   0.285   8.118  0.00  0.00    +0.148 HD
ENDROOT
BRANCH   6   8
ATOM      8  C   UNL     1       0.004   2.257   7.332  0.00  0.00    +0.072 C 
ATOM      9  C   UNL     1       1.431   2.796   7.208  0.00  0.00    +0.022 C 
ATOM     10  C   UNL     1       1.404   4.325   7.250  0.00  0.00    +0.002 C 
ATOM     11  C   UNL     1       0.797   4.788   8.577  0.00  0.00    +0.000 C 
ATOM     12  C   UNL     1      -0.629   4.249   8.701  0.00  0.00    +0.002 C 
ATOM     13  C   UNL     1      -0.602   2.720   8.659  0.00  0.00    +0.022 C 
ENDBRANCH   6   8
BRANCH   1  14
ATOM     14  S   UNL     1       0.054  -2.816   2.755  0.00  0.00    -0.040 S 
BRANCH  14  24
ATOM     15  C   UNL     1      -0.018   1.503   0.010  0.00  0.00    +0.088 C 
ATOM     16  C   UNL     1       0.002  -0.004   0.002  0.00  0.00    +0.130 A 
ATOM     17  N   UNL     1       0.005  -0.629  -1.155  0.00  0.00    -0.213 NA
ATOM     18  C   UNL     1       0.023  -1.960  -1.210  0.00  0.00    +0.163 A 
ATOM     19  C   UNL     1       0.039  -2.689  -0.005  0.00  0.00    +0.071 A 
ATOM     20  C   UNL     1       0.056  -4.057  -0.349  0.00  0.00    +0.147 A 
ATOM     21  N   UNL     1       0.051  -4.156  -1.648  0.00  0.00    -0.177 NA
ATOM     22  N   UNL     1       0.031  -2.877  -2.219  0.00  0.00    -0.249 N 
ATOM     23  C   UNL     1       0.019  -2.576  -3.652  0.00  0.00    +0.174 C 
ATOM     24  C   UNL     1       0.035  -1.972   1.208  0.00  0.00    +0.118 A 
ATOM     25  N   UNL     1       0.022  -0.644   1.157  0.00  0.00    -0.225 NA
ENDBRANCH  14  24
ENDBRANCH   1  14
TORSDOF 3
