REMARK  Name = ZINC01105676
REMARK  3 active torsions:
REMARK  status: ('A' for Active; 'I' for Inactive)
REMARK    1  A    between atoms: C_6  and  N_7
REMARK    2  A    between atoms: N_7  and  C_8
REMARK    3  A    between atoms: C_13  and  C_14
REMARK                            x       y       z     vdW  Elec       q    Type
REMARK                         _______ _______ _______ _____ _____    ______ ____
ROOT
ATOM      1  C   UNL     1      -1.166  -2.080  -0.223  0.00  0.00    +0.175 C 
ATOM      2  N   UNL     1      -0.122  -2.893  -0.226  0.00  0.00    -0.152 NA
ATOM      3  C   UNL     1      -0.244  -4.200  -0.297  0.00  0.00    +0.276 C 
ATOM      4  O   UNL     1       0.726  -4.939  -0.298  0.00  0.00    -0.267 OA
ATOM      5  C   UNL     1      -1.632  -4.726  -0.374  0.00  0.00    +0.079 C 
ATOM      6  C   UNL     1      -2.072  -6.004  -0.455  0.00  0.00    +0.028 C 
ATOM      7  S   UNL     1      -2.557  -3.196  -0.323  0.00  0.00    -0.050 S 
ENDROOT
BRANCH   6   8
ATOM      8  C   UNL     1      -3.506  -6.277  -0.644  0.00  0.00    -0.021 A 
ATOM      9  C   UNL     1      -4.450  -5.241  -0.604  0.00  0.00    +0.027 A 
ATOM     10  C   UNL     1      -5.783  -5.544  -0.787  0.00  0.00    +0.111 A 
ATOM     11  N   UNL     1      -6.173  -6.787  -0.997  0.00  0.00    -0.263 NA
ATOM     12  C   UNL     1      -5.320  -7.792  -1.042  0.00  0.00    +0.111 A 
ATOM     13  C   UNL     1      -3.967  -7.582  -0.875  0.00  0.00    +0.027 A 
ENDBRANCH   6   8
BRANCH   1  14
ATOM     14  N   UNL     1      -1.178  -0.713  -0.154  0.00  0.00    -0.192 NA
BRANCH  14  20
ATOM     15  C   UNL     1       1.094  -0.551  -0.957  0.00  0.00    +0.026 A 
ATOM     16  C   UNL     1       2.272   0.159  -1.077  0.00  0.00    +0.017 A 
ATOM     17  C   UNL     1       2.381   1.421  -0.520  0.00  0.00    +0.018 A 
ATOM     18  C   UNL     1       1.310   1.976   0.158  0.00  0.00    +0.017 A 
ATOM     19  C   UNL     1       0.129   1.271   0.281  0.00  0.00    +0.026 A 
ATOM     20  C   UNL     1       0.017   0.004  -0.277  0.00  0.00    +0.056 A 
ATOM     21 BR   UNL     1       3.997   2.390  -0.686  0.00  0.00    -0.050 Br
ENDBRANCH  14  20
ENDBRANCH   1  14
TORSDOF 3
