REMARK  Name = ZINC63786964
REMARK  7 active torsions:
REMARK  status: ('A' for Active; 'I' for Inactive)
REMARK    1  A    between atoms: C_4  and  C_7
REMARK    2  A    between atoms: C_7  and  C_8
REMARK    3  A    between atoms: C_14  and  C_16
REMARK    4  A    between atoms: C_16  and  C_18
REMARK    5  A    between atoms: C_16  and  N_28
REMARK    6  A    between atoms: C_18  and  C_19
REMARK    7  A    between atoms: C_29  and  C_31
REMARK                            x       y       z     vdW  Elec       q    Type
REMARK                         _______ _______ _______ _____ _____    ______ ____
ROOT
ATOM      1  C   UNL     1       8.319  -1.488   4.164  0.00  0.00    +0.163 C 
ENDROOT
BRANCH   1   8
ATOM      2  C   UNL     1       4.171  -0.963   1.399  0.00  0.00    -0.004 C 
ATOM      3  C   UNL     1       4.462   0.372   2.087  0.00  0.00    +0.023 C 
ATOM      4  C   UNL     1       4.889   0.114   3.535  0.00  0.00    +0.108 C 
ATOM      5  N   UNL     1       6.021  -0.823   3.534  0.00  0.00    -0.300 N 
ATOM      6  C   UNL     1       5.879  -2.101   2.823  0.00  0.00    +0.108 C 
ATOM      7  C   UNL     1       5.441  -1.818   1.383  0.00  0.00    +0.023 C 
ATOM      8  C   UNL     1       7.167  -0.516   4.174  0.00  0.00    +0.236 C 
ATOM      9  O   UNL     1       7.271   0.542   4.757  0.00  0.00    -0.274 OA
BRANCH   2  10
ATOM     10  C   UNL     1       3.711  -0.707  -0.038  0.00  0.00    +0.038 C 
BRANCH  10  14
ATOM     11  C   UNL     1      -0.017   1.378   0.010  0.00  0.00    +0.000 A 
ATOM     12  C   UNL     1       1.171   2.086   0.002  0.00  0.00    +0.000 A 
ATOM     13  C   UNL     1       2.377   1.411  -0.013  0.00  0.00    +0.003 A 
ATOM     14  C   UNL     1       2.396   0.029  -0.020  0.00  0.00    -0.047 A 
ATOM     15  C   UNL     1       1.208  -0.679  -0.012  0.00  0.00    +0.003 A 
ATOM     16  C   UNL     1       0.002  -0.004   0.002  0.00  0.00    +0.000 A 
ENDBRANCH  10  14
ENDBRANCH   2  10
ENDBRANCH   1   8
BRANCH   1  17
ATOM     17  N   UNL     1       9.560  -0.778   4.482  0.00  0.00    -0.299 N 
ATOM     18  C   UNL     1       9.685  -0.136   5.661  0.00  0.00    +0.251 C 
ATOM     19  O   UNL     1       8.768  -0.147   6.460  0.00  0.00    -0.270 OA
ATOM     20  H   UNL     1      10.291  -0.769   3.845  0.00  0.00    +0.150 HD
BRANCH  18  21
ATOM     21  C   UNL     1      10.927   0.575   5.980  0.00  0.00    +0.074 A 
ATOM     22  C   UNL     1      11.259   1.284   7.124  0.00  0.00    +0.021 A 
ATOM     23  C   UNL     1      12.512   1.849   7.134  0.00  0.00    +0.008 A 
ATOM     24  C   UNL     1      13.319   1.681   6.057  0.00  0.00    +0.046 A 
ATOM     25  S   UNL     1      12.407   0.746   5.001  0.00  0.00    -0.092 S 
ENDBRANCH  18  21
ENDBRANCH   1  17
BRANCH   1  26
ATOM     26  C   UNL     1       8.074  -2.580   5.207  0.00  0.00    +0.065 C 
BRANCH  26  27
ATOM     27  C   UNL     1       9.162  -3.618   5.113  0.00  0.00    -0.039 C 
ATOM     28  C   UNL     1      10.294  -3.678   5.851  0.00  0.00    -0.001 A 
ATOM     29  C   UNL     1      10.831  -2.827   6.920  0.00  0.00    +0.010 A 
ATOM     30  C   UNL     1      12.018  -3.149   7.482  0.00  0.00    +0.001 A 
ATOM     31  C   UNL     1      12.748  -4.272   7.068  0.00  0.00    +0.002 A 
ATOM     32  C   UNL     1      12.321  -5.101   6.093  0.00  0.00    +0.026 A 
ATOM     33  C   UNL     1      11.084  -4.858   5.434  0.00  0.00    +0.043 A 
ATOM     34  N   UNL     1      10.465  -5.503   4.475  0.00  0.00    -0.380 N 
ATOM     35  C   UNL     1       9.207  -4.806   4.180  0.00  0.00    +0.144 C 
ATOM     36  H   UNL     1      10.783  -6.307   4.036  0.00  0.00    +0.160 HD
ENDBRANCH  26  27
ENDBRANCH   1  26
TORSDOF 7
