REMARK  Name = ZINC39666308
REMARK  10 active torsions:
REMARK  status: ('A' for Active; 'I' for Inactive)
REMARK    1  A    between atoms: C_1  and  C_2
REMARK    2  A    between atoms: C_5  and  O_8
REMARK    3  A    between atoms: O_8  and  C_9
REMARK    4  A    between atoms: C_9  and  C_11
REMARK    5  A    between atoms: C_9  and  C_12
REMARK    6  A    between atoms: C_12  and  N_13
REMARK    7  A    between atoms: C_14  and  C_16
REMARK    8  A    between atoms: C_27  and  C_29
REMARK    9  A    between atoms: C_31  and  C_35
REMARK   10  A    between atoms: N_32  and  C_34
REMARK                            x       y       z     vdW  Elec       q    Type
REMARK                         _______ _______ _______ _____ _____    ______ ____
ROOT
ATOM      1  C   UNL     1      -3.798  -6.463  -0.070  0.00  0.00    +0.100 C 
ATOM      2  C   UNL     1      -3.676  -5.856  -1.485  0.00  0.00    +0.121 C 
ATOM      3  N   UNL     1      -3.902  -6.997  -2.403  0.00  0.00    -0.295 N 
ATOM      4  C   UNL     1      -4.986  -7.778  -1.759  0.00  0.00    +0.115 C 
ATOM      5  C   UNL     1      -4.662  -7.722  -0.253  0.00  0.00    -0.004 C 
ATOM      6  C   UNL     1      -5.948  -7.605   0.560  0.00  0.00    -0.010 C 
ATOM      7  C   UNL     1      -6.762  -8.892   0.407  0.00  0.00    -0.082 C 
ATOM      8  N   UNL     1      -5.967 -10.035   0.874  0.00  0.00    +0.379 N 
ATOM      9  C   UNL     1      -4.779 -10.197   0.028  0.00  0.00    -0.082 C 
ATOM     10  C   UNL     1      -3.881  -8.964   0.164  0.00  0.00    -0.010 C 
ATOM     11  C   UNL     1      -3.267  -7.265  -3.561  0.00  0.00    +0.267 C 
ATOM     12  O   UNL     1      -3.632  -8.194  -4.254  0.00  0.00    -0.268 OA
ATOM     13  H   UNL     1      -5.680  -9.875   1.828  0.00  0.00    -0.086 HD
ATOM     14  H   UNL     1      -6.527 -10.873   0.830  0.00  0.00    -0.086 HD
ENDROOT
BRANCH  11  15
ATOM     15  C   UNL     1      -2.127  -6.428  -3.988  0.00  0.00    +0.147 A 
ATOM     16  C   UNL     1      -1.430  -6.518  -5.217  0.00  0.00    +0.057 A 
ATOM     17  C   UNL     1      -0.475  -5.560  -5.162  0.00  0.00    +0.037 A 
ATOM     18  N   UNL     1      -0.600  -4.939  -3.969  0.00  0.00    -0.271 N 
ATOM     19  N   UNL     1      -1.569  -5.452  -3.300  0.00  0.00    -0.167 NA
ATOM     20  C   UNL     1       0.245  -3.835  -3.508  0.00  0.00    +0.172 C 
ATOM     21  C   UNL     1       0.538  -5.246  -6.232  0.00  0.00    +0.065 C 
ENDBRANCH  11  15
BRANCH   1  23
ATOM     22  N   UNL     1      -2.245  -6.959   1.790  0.00  0.00    -0.312 N 
ATOM     23  C   UNL     1      -2.438  -6.833   0.463  0.00  0.00    +0.218 C 
ATOM     24  O   UNL     1      -1.516  -7.018  -0.304  0.00  0.00    -0.275 OA
ATOM     25  H   UNL     1      -2.996  -6.882   2.399  0.00  0.00    +0.149 HD
BRANCH  22  26
ATOM     26  C   UNL     1      -0.900  -7.211   2.314  0.00  0.00    +0.148 C 
BRANCH  26  27
ATOM     27  C   UNL     1      -0.936  -7.186   3.844  0.00  0.00    +0.187 C 
ATOM     28  C   UNL     1       0.453  -7.521   4.392  0.00  0.00    +0.053 C 
BRANCH  27  29
ATOM     29  O   UNL     1      -1.322  -5.884   4.290  0.00  0.00    -0.488 OA
BRANCH  29  34
ATOM     30  C   UNL     1      -3.599  -5.512   9.428  0.00  0.00    +0.044 C 
ATOM     31  C   UNL     1      -2.989  -5.612   8.053  0.00  0.00    -0.050 A 
ATOM     32  C   UNL     1      -2.763  -4.465   7.314  0.00  0.00    +0.007 A 
ATOM     33  C   UNL     1      -2.205  -4.554   6.053  0.00  0.00    +0.046 A 
ATOM     34  C   UNL     1      -1.871  -5.794   5.530  0.00  0.00    +0.121 A 
ATOM     35  C   UNL     1      -2.098  -6.943   6.274  0.00  0.00    +0.046 A 
ATOM     36  C   UNL     1      -2.651  -6.849   7.536  0.00  0.00    +0.007 A 
ENDBRANCH  29  34
ENDBRANCH  27  29
ENDBRANCH  26  27
ENDBRANCH  22  26
ENDBRANCH   1  23
TORSDOF 6
