REMARK  Name = ZINC24695844
REMARK  6 active torsions:
REMARK  status: ('A' for Active; 'I' for Inactive)
REMARK    1  A    between atoms: C_1  and  C_2
REMARK    2  A    between atoms: C_2  and  C_4
REMARK    3  A    between atoms: C_2  and  S_23
REMARK    4  A    between atoms: N_6  and  C_7
REMARK    5  A    between atoms: S_23  and  C_24
REMARK    6  A    between atoms: N_28  and  C_29
REMARK                            x       y       z     vdW  Elec       q    Type
REMARK                         _______ _______ _______ _____ _____    ______ ____
ROOT
ATOM      1  C   UNL     1       2.406  -0.001  -0.027  0.00  0.00    +0.045 A 
ATOM      2  C   UNL     1       1.198  -0.698  -0.027  0.00  0.00    +0.024 A 
ATOM      3  C   UNL     1      -0.000  -0.016  -0.018  0.00  0.00    +0.003 A 
ATOM      4  C   UNL     1      -0.024   1.371  -0.010  0.00  0.00    +0.012 A 
ATOM      5  C   UNL     1       1.168   2.086  -0.010  0.00  0.00    +0.035 A 
ATOM      6  C   UNL     1       2.397   1.397  -0.019  0.00  0.00    +0.054 A 
ATOM      7  C   UNL     1       3.661   2.157  -0.020  0.00  0.00    +0.196 C 
ATOM      8  O   UNL     1       4.714   1.600   0.222  0.00  0.00    -0.287 OA
ATOM      9  C   UNL     1       3.633   3.607  -0.318  0.00  0.00    +0.033 A 
ATOM     10  C   UNL     1       4.807   4.292  -0.609  0.00  0.00    +0.012 A 
ATOM     11  C   UNL     1       4.762   5.648  -0.886  0.00  0.00    +0.001 A 
ATOM     12  C   UNL     1       3.556   6.326  -0.877  0.00  0.00    +0.001 A 
ATOM     13  C   UNL     1       2.378   5.658  -0.589  0.00  0.00    +0.012 A 
ATOM     14  C   UNL     1       2.406   4.296  -0.308  0.00  0.00    +0.033 A 
ATOM     15  C   UNL     1       1.158   3.565  -0.001  0.00  0.00    +0.195 C 
ATOM     16  O   UNL     1       0.137   4.172   0.256  0.00  0.00    -0.287 OA
ENDROOT
BRANCH   1  19
ATOM     17  C   UNL     1       3.724  -1.860   0.627  0.00  0.00    +0.230 C 
ATOM     18  O   UNL     1       2.752  -2.351   1.160  0.00  0.00    -0.274 OA
ATOM     19  N   UNL     1       3.613  -0.692  -0.036  0.00  0.00    -0.284 N 
ATOM     20  H   UNL     1       4.476  -0.285  -0.583  0.00  0.00    +0.155 HD
BRANCH  17  22
ATOM     21  C   UNL     1       5.864  -1.986   1.874  0.00  0.00    +0.029 C 
ATOM     22  C   UNL     1       5.058  -2.558   0.706  0.00  0.00    +0.137 C 
BRANCH  22  23
ATOM     23  S   UNL     1       4.798  -4.330   0.961  0.00  0.00    -0.075 S 
BRANCH  23  24
ATOM     24  C   UNL     1       6.463  -4.901   0.864  0.00  0.00    +0.169 A 
ATOM     25  N   UNL     1       7.521  -4.151   0.659  0.00  0.00    -0.230 NA
ATOM     26  C   UNL     1       8.618  -4.926   0.647  0.00  0.00    +0.131 A 
ATOM     27  C   UNL     1       8.239  -6.199   0.850  0.00  0.00    +0.107 A 
ATOM     28  N   UNL     1       6.870  -6.193   0.995  0.00  0.00    -0.329 N 
ATOM     29  C   UNL     1       6.014  -7.356   1.240  0.00  0.00    +0.151 C 
ENDBRANCH  23  24
ENDBRANCH  22  23
ENDBRANCH  17  22
ENDBRANCH   1  19
TORSDOF 4
