REMARK  Name = ZINC09560042
REMARK  8 active torsions:
REMARK  status: ('A' for Active; 'I' for Inactive)
REMARK    1  A    between atoms: C_1  and  C_2
REMARK    2  A    between atoms: C_2  and  O_3
REMARK    3  A    between atoms: O_3  and  C_4
REMARK    4  A    between atoms: C_6  and  C_12
REMARK    5  A    between atoms: C_9  and  O_10
REMARK    6  A    between atoms: C_23  and  C_26
REMARK    7  A    between atoms: C_29  and  O_32
REMARK    8  A    between atoms: O_32  and  C_33
REMARK                            x       y       z     vdW  Elec       q    Type
REMARK                         _______ _______ _______ _____ _____    ______ ____
ROOT
ATOM      1  C   UNL     1       2.777  -0.825   3.681  0.00  0.00    +0.063 C 
ATOM      2  C   UNL     1       3.887  -0.073   4.417  0.00  0.00    +0.109 C 
ATOM      3  C   UNL     1       3.559  -0.022   5.886  0.00  0.00    +0.218 C 
ATOM      4  O   UNL     1       3.881   0.944   6.545  0.00  0.00    -0.275 OA
ATOM      5  N   UNL     1       2.910  -1.045   6.469  0.00  0.00    -0.289 N 
ATOM      6  C   UNL     1       2.555  -2.161   5.755  0.00  0.00    +0.018 C 
ATOM      7  C   UNL     1       2.478  -2.115   4.408  0.00  0.00    +0.020 C 
ATOM      8  C   UNL     1       2.125  -3.248   3.657  0.00  0.00    +0.162 C 
ATOM      9  O   UNL     1       2.056  -3.165   2.447  0.00  0.00    -0.292 OA
ATOM     10  C   UNL     1       1.831  -4.563   4.328  0.00  0.00    +0.088 C 
ATOM     11  C   UNL     1       2.621  -4.641   5.638  0.00  0.00    +0.032 C 
ATOM     12  C   UNL     1       2.250  -3.434   6.504  0.00  0.00    +0.059 C 
ATOM     13  H   UNL     1       2.689  -0.993   7.412  0.00  0.00    +0.155 HD
ENDROOT
BRANCH   1  16
ATOM     14  C   UNL     1      -0.148   1.182   2.380  0.00  0.00    +0.163 A 
ATOM     15  C   UNL     1       0.994   0.398   2.422  0.00  0.00    +0.053 A 
ATOM     16  C   UNL     1       1.535   0.028   3.639  0.00  0.00    -0.034 A 
ATOM     17  C   UNL     1       0.940   0.438   4.817  0.00  0.00    +0.028 A 
ATOM     18  C   UNL     1      -0.200   1.221   4.783  0.00  0.00    +0.086 A 
ATOM     19  C   UNL     1      -0.745   1.600   3.566  0.00  0.00    +0.177 A 
ATOM     20 CL   UNL     1      -0.944   1.736   6.265  0.00  0.00    -0.080 Cl
BRANCH  19  21
ATOM     21  O   UNL     1      -1.862   2.374   3.530  0.00  0.00    -0.502 OA
ATOM     22  H   UNL     1      -2.689   1.872   3.523  0.00  0.00    +0.292 HD
ENDBRANCH  19  21
BRANCH  14  23
ATOM     23  O   UNL     1      -0.682   1.547   1.184  0.00  0.00    -0.489 OA
BRANCH  23  25
ATOM     24  C   UNL     1      -0.753   1.593  -1.232  0.00  0.00    +0.048 C 
ATOM     25  C   UNL     1      -0.013   1.086   0.008  0.00  0.00    +0.226 C 
ENDBRANCH  23  25
ENDBRANCH  14  23
ENDBRANCH   1  16
BRANCH  11  26
ATOM     26  C   UNL     1       2.273  -5.912   6.368  0.00  0.00    -0.043 A 
ATOM     27  C   UNL     1       0.966  -6.157   6.745  0.00  0.00    +0.007 A 
ATOM     28  C   UNL     1       0.643  -7.324   7.409  0.00  0.00    +0.046 A 
ATOM     29  C   UNL     1       1.635  -8.247   7.707  0.00  0.00    +0.120 A 
ATOM     30  C   UNL     1       2.948  -7.997   7.333  0.00  0.00    +0.046 A 
ATOM     31  C   UNL     1       3.264  -6.831   6.664  0.00  0.00    +0.007 A 
BRANCH  29  32
ATOM     32  O   UNL     1       1.322  -9.395   8.365  0.00  0.00    -0.495 OA
ATOM     33  C   UNL     1      -0.049  -9.585   8.719  0.00  0.00    +0.277 C 
ENDBRANCH  29  32
ENDBRANCH  11  26
TORSDOF 6
