REMARK  Name = ZINC65452351
REMARK  3 active torsions:
REMARK  status: ('A' for Active; 'I' for Inactive)
REMARK    1  A    between atoms: C_4  and  C_7
REMARK    2  A    between atoms: C_11  and  C_13
REMARK    3  A    between atoms: C_23  and  N_25
REMARK                            x       y       z     vdW  Elec       q    Type
REMARK                         _______ _______ _______ _____ _____    ______ ____
ROOT
ATOM      1  C   UNL     1       3.375  -3.017   1.234  0.00  0.00    +0.044 C 
ATOM      2  C   UNL     1       1.851  -2.925   1.316  0.00  0.00    +0.105 C 
ATOM      3  C   UNL     1       1.231  -3.794   0.254  0.00  0.00    +0.218 C 
ATOM      4  O   UNL     1       0.233  -3.418  -0.323  0.00  0.00    -0.275 OA
ATOM      5  N   UNL     1       1.774  -4.983  -0.059  0.00  0.00    -0.285 N 
ATOM      6  C   UNL     1       2.984  -5.389   0.511  0.00  0.00    +0.039 A 
ATOM      7  C   UNL     1       3.792  -4.463   1.159  0.00  0.00    -0.022 A 
ATOM      8  C   UNL     1       4.981  -4.868   1.735  0.00  0.00    +0.007 A 
ATOM      9  C   UNL     1       5.379  -6.189   1.651  0.00  0.00    +0.024 A 
ATOM     10  C   UNL     1       4.587  -7.112   0.981  0.00  0.00    +0.040 A 
ATOM     11  C   UNL     1       3.392  -6.711   0.409  0.00  0.00    +0.047 A 
ATOM     12  H   UNL     1       1.321  -5.566  -0.688  0.00  0.00    +0.155 HD
ENDROOT
BRANCH  10  13
ATOM     13  N   UNL     1       4.997  -8.447   0.885  0.00  0.00    -0.254 N 
ATOM     14  C   UNL     1       4.327  -9.489   0.092  0.00  0.00    +0.134 C 
ATOM     15  C   UNL     1       5.180 -10.748   0.342  0.00  0.00    +0.125 C 
ATOM     16  N   UNL     1       6.239 -10.282   1.248  0.00  0.00    -0.297 N 
ATOM     17  C   UNL     1       6.064  -8.978   1.497  0.00  0.00    +0.307 C 
ATOM     18  O   UNL     1       6.803  -8.334   2.216  0.00  0.00    -0.252 OA
ATOM     19  H   UNL     1       6.955 -10.831   1.606  0.00  0.00    +0.150 HD
ENDBRANCH  10  13
BRANCH   1  24
ATOM     20  C   UNL     1       5.378  -2.212  -0.037  0.00  0.00    +0.080 C 
ATOM     21  N   UNL     1       5.747  -2.858  -1.108  0.00  0.00    -0.153 NA
ATOM     22  N   UNL     1       4.662  -3.355  -1.822  0.00  0.00    -0.161 NA
ATOM     23  C   UNL     1       3.530  -3.067  -1.266  0.00  0.00    +0.118 C 
ATOM     24  C   UNL     1       3.864  -2.280  -0.015  0.00  0.00    +0.091 C 
BRANCH  20  28
ATOM     25  C   UNL     1       7.896  -0.322   2.806  0.00  0.00    +0.000 A 
ATOM     26  C   UNL     1       8.452  -1.076   1.788  0.00  0.00    +0.001 A 
ATOM     27  C   UNL     1       7.640  -1.694   0.860  0.00  0.00    +0.010 A 
ATOM     28  C   UNL     1       6.251  -1.556   0.950  0.00  0.00    -0.001 A 
ATOM     29  C   UNL     1       5.697  -0.793   1.982  0.00  0.00    +0.010 A 
ATOM     30  C   UNL     1       6.522  -0.182   2.902  0.00  0.00    +0.001 A 
ENDBRANCH  20  28
ENDBRANCH   1  24
TORSDOF 3
