REMARK  Name = ZINC14374341
REMARK  6 active torsions:
REMARK  status: ('A' for Active; 'I' for Inactive)
REMARK    1  A    between atoms: C_1  and  N_2
REMARK    2  A    between atoms: C_4  and  S_10
REMARK    3  A    between atoms: C_6  and  C_7
REMARK    4  A    between atoms: S_10  and  N_13
REMARK    5  A    between atoms: C_16  and  C_19
REMARK    6  A    between atoms: N_21  and  C_22
REMARK                            x       y       z     vdW  Elec       q    Type
REMARK                         _______ _______ _______ _____ _____    ______ ____
ROOT
ATOM      1  N   UNL     1       4.796   7.212  -3.336  0.00  0.00    -0.176 NA
ATOM      2  C   UNL     1       4.571   8.098  -2.186  0.00  0.00    +0.110 C 
ATOM      3  C   UNL     1       3.720   7.356  -1.151  0.00  0.00    +0.030 C 
ATOM      4  C   UNL     1       2.438   6.852  -1.817  0.00  0.00    +0.077 C 
ATOM      5  C   UNL     1       2.794   5.875  -2.940  0.00  0.00    +0.030 C 
ATOM      6  C   UNL     1       3.634   6.601  -3.995  0.00  0.00    +0.110 C 
ENDROOT
BRANCH   4   7
ATOM      7  C   UNL     1       1.582   6.150  -0.794  0.00  0.00    +0.217 C 
ATOM      8  O   UNL     1       1.961   6.061   0.355  0.00  0.00    -0.275 OA
ATOM      9  N   UNL     1       0.396   5.622  -1.155  0.00  0.00    -0.308 N 
ATOM     10  H   UNL     1       0.093   5.693  -2.074  0.00  0.00    +0.149 HD
BRANCH   9  11
ATOM     11  C   UNL     1      -0.435   4.940  -0.160  0.00  0.00    +0.104 C 
ATOM     12  C   UNL     1      -1.909   4.917  -0.618  0.00  0.00    +0.032 C 
ATOM     13  C   UNL     1      -2.402   3.556  -0.083  0.00  0.00    +0.037 C 
ATOM     14  C   UNL     1      -1.163   2.690  -0.003  0.00  0.00    -0.042 A 
ATOM     15  C   UNL     1      -0.033   3.485  -0.048  0.00  0.00    -0.024 A 
ATOM     16  C   UNL     1       1.222   2.903   0.011  0.00  0.00    +0.006 A 
ATOM     17  C   UNL     1       1.348   1.531   0.114  0.00  0.00    +0.000 A 
ATOM     18  C   UNL     1       0.218   0.736   0.158  0.00  0.00    +0.000 A 
ATOM     19  C   UNL     1      -1.035   1.315   0.094  0.00  0.00    +0.004 A 
ENDBRANCH   9  11
ENDBRANCH   4   7
BRANCH   1  20
ATOM     20  S   UNL     1       6.331   6.908  -3.879  0.00  0.00    +0.062 S 
ATOM     21  O   UNL     1       6.212   6.528  -5.243  0.00  0.00    -0.153 OA
ATOM     22  O   UNL     1       7.134   8.003  -3.460  0.00  0.00    -0.153 OA
BRANCH  20  26
ATOM     23  C   UNL     1       8.593   3.805  -0.277  0.00  0.00    +0.149 C 
ATOM     24  N   UNL     1       7.875   4.220  -1.485  0.00  0.00    -0.344 N 
ATOM     25  C   UNL     1       7.596   5.499  -1.838  0.00  0.00    +0.114 A 
ATOM     26  C   UNL     1       6.919   5.491  -3.011  0.00  0.00    +0.124 A 
ATOM     27  C   UNL     1       6.776   4.160  -3.415  0.00  0.00    +0.061 A 
ATOM     28  C   UNL     1       7.377   3.378  -2.453  0.00  0.00    +0.106 A 
BRANCH  28  29
ATOM     29  C   UNL     1       7.470   1.914  -2.458  0.00  0.00    +0.258 C 
ATOM     30  O   UNL     1       8.118   1.341  -1.602  0.00  0.00    -0.269 OA
ATOM     31  N   UNL     1       6.836   1.202  -3.412  0.00  0.00    -0.324 N 
ATOM     32  H   UNL     1       6.380   1.660  -4.136  0.00  0.00    +0.145 HD
ATOM     33  H   UNL     1       6.837   0.233  -3.375  0.00  0.00    +0.145 HD
ENDBRANCH  28  29
ENDBRANCH  20  26
ENDBRANCH   1  20
TORSDOF 5
