REMARK  Name = ZINC63698970
REMARK  4 active torsions:
REMARK  status: ('A' for Active; 'I' for Inactive)
REMARK    1  A    between atoms: C_1  and  C_2
REMARK    2  A    between atoms: C_4  and  C_23
REMARK    3  A    between atoms: N_12  and  C_14
REMARK    4  A    between atoms: C_28  and  N_29
REMARK                            x       y       z     vdW  Elec       q    Type
REMARK                         _______ _______ _______ _____ _____    ______ ____
ROOT
ATOM      1  C   UNL     1      -1.670   1.251   1.952  0.00  0.00    +0.062 C 
ATOM      2  C   UNL     1      -1.609  -0.251   1.835  0.00  0.00    +0.019 C 
ATOM      3  C   UNL     1      -2.515  -0.979   1.247  0.00  0.00    -0.008 C 
ATOM      4  C   UNL     1      -3.876  -0.622   0.703  0.00  0.00    +0.060 C 
ATOM      5  C   UNL     1      -4.890  -1.437   1.519  0.00  0.00    +0.108 C 
ATOM      6  C   UNL     1      -4.379  -2.805   1.837  0.00  0.00    +0.215 C 
ATOM      7  O   UNL     1      -5.213  -3.632   2.140  0.00  0.00    -0.276 OA
ATOM      8  N   UNL     1      -3.112  -3.222   1.827  0.00  0.00    -0.295 N 
ATOM      9  C   UNL     1      -2.027  -2.419   1.280  0.00  0.00    +0.194 C 
ATOM     10  N   UNL     1      -0.842  -2.365   2.142  0.00  0.00    -0.164 NA
ATOM     11  N   UNL     1      -0.581  -1.034   2.335  0.00  0.00    -0.277 N 
ATOM     12  H   UNL     1      -2.905  -4.094   2.199  0.00  0.00    +0.151 HD
ATOM     13  H   UNL     1       0.216  -0.686   2.766  0.00  0.00    +0.166 HD
ENDROOT
BRANCH  10  14
ATOM     14  C   UNL     1       0.302  -3.035   1.508  0.00  0.00    +0.270 C 
ATOM     15  N   UNL     1       0.580  -2.428   0.201  0.00  0.00    -0.350 N 
ATOM     16  C   UNL     1       0.440  -3.357  -0.700  0.00  0.00    +0.061 A 
ATOM     17  C   UNL     1       0.584  -3.361  -2.162  0.00  0.00    +0.027 A 
ATOM     18  C   UNL     1       0.370  -4.501  -2.848  0.00  0.00    +0.002 A 
ATOM     19  C   UNL     1       0.011  -5.707  -2.221  0.00  0.00    +0.002 A 
ATOM     20  C   UNL     1      -0.147  -5.814  -0.887  0.00  0.00    +0.027 A 
ATOM     21  C   UNL     1       0.060  -4.634  -0.036  0.00  0.00    +0.061 A 
ATOM     22  N   UNL     1      -0.020  -4.444   1.250  0.00  0.00    -0.350 N 
ATOM     23  H   UNL     1       0.824  -1.503   0.038  0.00  0.00    +0.163 HD
ATOM     24  H   UNL     1      -0.250  -5.112   1.915  0.00  0.00    +0.163 HD
ENDBRANCH  10  14
BRANCH   4  25
ATOM     25  C   UNL     1      -3.964  -0.993  -0.755  0.00  0.00    -0.009 A 
ATOM     26  C   UNL     1      -3.906  -2.321  -1.136  0.00  0.00    +0.006 A 
ATOM     27  C   UNL     1      -3.987  -2.660  -2.473  0.00  0.00    +0.000 A 
ATOM     28  C   UNL     1      -4.126  -1.672  -3.430  0.00  0.00    +0.002 A 
ATOM     29  C   UNL     1      -4.186  -0.345  -3.050  0.00  0.00    +0.033 A 
ATOM     30  C   UNL     1      -4.109  -0.005  -1.712  0.00  0.00    +0.130 A 
BRANCH  30  31
ATOM     31  N   UNL     1      -4.178   1.416  -1.304  0.00  0.00    +0.057 N 
ATOM     32  O   UNL     1      -4.939   2.169  -1.864  0.00  0.00    -0.126 OA
ATOM     33  O   UNL     1      -3.472   1.823  -0.410  0.00  0.00    -0.126 OA
ENDBRANCH  30  31
ENDBRANCH   4  25
TORSDOF 3
