REMARK  Name = ZINC06386638
REMARK  8 active torsions:
REMARK  status: ('A' for Active; 'I' for Inactive)
REMARK    1  A    between atoms: C_1  and  C_2
REMARK    2  A    between atoms: C_2  and  C_3
REMARK    3  A    between atoms: C_2  and  C_4
REMARK    4  A    between atoms: C_2  and  C_5
REMARK    5  A    between atoms: C_12  and  N_20
REMARK    6  A    between atoms: C_13  and  C_14
REMARK    7  A    between atoms: C_21  and  C_23
REMARK    8  A    between atoms: N_27  and  C_28
REMARK                            x       y       z     vdW  Elec       q    Type
REMARK                         _______ _______ _______ _____ _____    ______ ____
ROOT
ATOM      1  C   UNL     1      -0.621   2.097   1.266  0.00  0.00    -0.000 C 
ATOM      2  C   UNL     1      -0.642   3.628   1.293  0.00  0.00    +0.009 C 
ATOM      3  C   UNL     1      -1.574   4.117   2.403  0.00  0.00    +0.037 C 
ATOM      4  C   UNL     1      -1.187   3.433   3.708  0.00  0.00    -0.023 A 
ATOM      5  C   UNL     1      -0.436   2.310   3.709  0.00  0.00    -0.004 A 
ATOM      6  S   UNL     1      -0.247   1.893   5.420  0.00  0.00    -0.077 S 
ATOM      7  C   UNL     1      -1.153   3.190   6.126  0.00  0.00    +0.085 A 
ATOM      8  C   UNL     1      -1.580   3.916   5.021  0.00  0.00    +0.069 A 
ATOM      9  C   UNL     1       0.110   1.588   2.517  0.00  0.00    +0.046 C 
ENDROOT
BRANCH   8  10
ATOM     10  C   UNL     1      -2.397   5.122   5.174  0.00  0.00    +0.254 C 
ATOM     11  O   UNL     1      -1.861   6.210   5.283  0.00  0.00    -0.270 OA
ATOM     12  N   UNL     1      -3.741   5.028   5.193  0.00  0.00    -0.236 N 
ATOM     13  C   UNL     1      -4.492   6.138   5.333  0.00  0.00    +0.304 C 
ATOM     14  O   UNL     1      -3.957   7.224   5.443  0.00  0.00    -0.253 OA
ATOM     15  N   UNL     1      -5.836   6.044   5.353  0.00  0.00    -0.313 N 
ATOM     16  H   UNL     1      -4.168   4.162   5.106  0.00  0.00    +0.159 HD
ATOM     17  H   UNL     1      -6.263   5.178   5.265  0.00  0.00    +0.146 HD
ATOM     18  H   UNL     1      -6.377   6.843   5.454  0.00  0.00    +0.146 HD
ENDBRANCH   8  10
BRANCH   1  20
ATOM     19  C   UNL     1       0.139   0.087  -0.009  0.00  0.00    +0.011 C 
ATOM     20  C   UNL     1       0.113   1.617   0.012  0.00  0.00    -0.035 C 
ATOM     21  C   UNL     1       1.546   2.151   0.024  0.00  0.00    +0.011 C 
ATOM     22  C   UNL     1      -0.613   2.132  -1.232  0.00  0.00    +0.011 C 
ENDBRANCH   1  20
BRANCH   7  23
ATOM     23  N   UNL     1      -1.392   3.443   7.466  0.00  0.00    -0.274 N 
ATOM     24  C   UNL     1      -0.890   2.619   8.407  0.00  0.00    +0.267 C 
ATOM     25  O   UNL     1      -0.309   1.602   8.078  0.00  0.00    -0.268 OA
ATOM     26  H   UNL     1      -1.922   4.212   7.728  0.00  0.00    +0.156 HD
BRANCH  24  27
ATOM     27  C   UNL     1      -1.045   2.949   9.832  0.00  0.00    +0.123 A 
ATOM     28  C   UNL     1      -1.757   4.009  10.367  0.00  0.00    +0.054 A 
ATOM     29  C   UNL     1      -1.606   3.895  11.751  0.00  0.00    +0.135 A 
ATOM     30  N   UNL     1      -0.855   2.850  11.988  0.00  0.00    -0.179 NA
ATOM     31  N   UNL     1      -0.510   2.275  10.893  0.00  0.00    -0.262 N 
ATOM     32  C   UNL     1       0.330   1.078  10.796  0.00  0.00    +0.173 C 
ENDBRANCH  24  27
ENDBRANCH   7  23
TORSDOF 4
