REMARK  Name = ZINC20612164
REMARK  5 active torsions:
REMARK  status: ('A' for Active; 'I' for Inactive)
REMARK    1  A    between atoms: C_1  and  N_2
REMARK    2  A    between atoms: C_15  and  C_17
REMARK    3  A    between atoms: N_21  and  C_24
REMARK    4  A    between atoms: C_28  and  O_30
REMARK    5  A    between atoms: O_30  and  C_31
REMARK                            x       y       z     vdW  Elec       q    Type
REMARK                         _______ _______ _______ _____ _____    ______ ____
ROOT
ATOM      1  C   UNL     1      -0.296   0.500   2.333  0.00  0.00    +0.074 A 
ATOM      2  C   UNL     1       0.488   0.541   3.447  0.00  0.00    +0.260 A 
ATOM      3  N   UNL     1      -0.042   0.178   4.659  0.00  0.00    -0.274 N 
ATOM      4  C   UNL     1      -1.325  -0.217   4.751  0.00  0.00    +0.337 A 
ATOM      5  N   UNL     1      -2.115  -0.265   3.663  0.00  0.00    -0.229 N 
ATOM      6  C   UNL     1      -1.635   0.089   2.454  0.00  0.00    +0.267 A 
ATOM      7  O   UNL     1      -2.356   0.049   1.472  0.00  0.00    -0.267 OA
ATOM      8  O   UNL     1      -1.778  -0.536   5.834  0.00  0.00    -0.246 OA
ATOM      9  O   UNL     1       1.776   0.936   3.359  0.00  0.00    -0.267 OA
ATOM     10  H   UNL     1       0.511   0.206   5.455  0.00  0.00    +0.173 HD
ENDROOT
BRANCH   1  25
ATOM     11  C   UNL     1      -0.441   3.178   1.198  0.00  0.00    -0.095 C 
ATOM     12  N   UNL     1      -0.571   1.952   0.399  0.00  0.00    +0.387 N 
ATOM     13  C   UNL     1      -0.146   2.223  -0.981  0.00  0.00    -0.073 C 
ATOM     14  C   UNL     1      -0.572   1.059  -1.886  0.00  0.00    +0.019 C 
ATOM     15  C   UNL     1      -0.126  -0.224  -1.230  0.00  0.00    -0.022 A 
ATOM     16  C   UNL     1      -0.010  -1.551  -1.789  0.00  0.00    +0.003 A 
ATOM     17  C   UNL     1      -0.260  -2.073  -3.062  0.00  0.00    +0.010 A 
ATOM     18  C   UNL     1      -0.033  -3.415  -3.240  0.00  0.00    +0.001 A 
ATOM     19  C   UNL     1       0.421  -4.227  -2.213  0.00  0.00    +0.002 A 
ATOM     20  C   UNL     1       0.677  -3.738  -0.944  0.00  0.00    +0.026 A 
ATOM     21  C   UNL     1       0.457  -2.378  -0.734  0.00  0.00    +0.047 A 
ATOM     22  N   UNL     1       0.605  -1.587   0.369  0.00  0.00    -0.359 N 
ATOM     23  H   UNL     1       0.913  -1.892   1.237  0.00  0.00    +0.166 HD
ATOM     24  C   UNL     1       0.254  -0.300   0.066  0.00  0.00    +0.011 A 
ATOM     25  C   UNL     1       0.263   0.894   0.990  0.00  0.00    +0.021 C 
ATOM     26  H   UNL     1      -1.536   1.655   0.397  0.00  0.00    -0.081 HD
ENDBRANCH   1  25
BRANCH   5  27
ATOM     27  C   UNL     1      -3.447  -0.681   3.788  0.00  0.00    +0.058 A 
ATOM     28  C   UNL     1      -3.771  -2.026   3.656  0.00  0.00    +0.026 A 
ATOM     29  C   UNL     1      -5.084  -2.436   3.779  0.00  0.00    +0.006 A 
ATOM     30  C   UNL     1      -6.079  -1.511   4.035  0.00  0.00    +0.046 A 
ATOM     31  C   UNL     1      -5.761  -0.166   4.167  0.00  0.00    +0.122 A 
ATOM     32  C   UNL     1      -4.443   0.248   4.049  0.00  0.00    +0.072 A 
BRANCH  31  33
ATOM     33  O   UNL     1      -6.740   0.742   4.417  0.00  0.00    -0.495 OA
ATOM     34  C   UNL     1      -8.074   0.244   4.532  0.00  0.00    +0.277 C 
ENDBRANCH  31  33
ENDBRANCH   5  27
TORSDOF 3
