REMARK  Name = ZINC51054000
REMARK  9 active torsions:
REMARK  status: ('A' for Active; 'I' for Inactive)
REMARK    1  A    between atoms: C_1  and  C_2
REMARK    2  A    between atoms: C_2  and  C_3
REMARK    3  A    between atoms: C_3  and  C_4
REMARK    4  A    between atoms: C_4  and  C_6
REMARK    5  A    between atoms: C_4  and  N_7
REMARK    6  A    between atoms: C_8  and  C_10
REMARK    7  A    between atoms: N_15  and  C_17
REMARK    8  A    between atoms: C_17  and  C_19
REMARK    9  A    between atoms: C_17  and  C_25
REMARK                            x       y       z     vdW  Elec       q    Type
REMARK                         _______ _______ _______ _____ _____    ______ ____
ROOT
ATOM      1  C   UNL     1       1.236  -4.892   0.827  0.00  0.00    +0.058 C 
ATOM      2  C   UNL     1       2.341  -3.885   1.155  0.00  0.00    +0.009 C 
ATOM      3  C   UNL     1       2.561  -3.859   2.671  0.00  0.00    -0.018 C 
ATOM      4  C   UNL     1       2.899  -5.270   3.156  0.00  0.00    -0.077 C 
ATOM      5  N   UNL     1       1.793  -6.179   2.836  0.00  0.00    +0.391 N 
ATOM      6  C   UNL     1       1.622  -6.265   1.381  0.00  0.00    -0.065 C 
ATOM      7  H   UNL     1       0.942  -5.832   3.253  0.00  0.00    -0.080 HD
ENDROOT
BRANCH   1   9
ATOM      8  N   UNL     1       0.724  -3.886  -1.374  0.00  0.00    -0.313 N 
ATOM      9  C   UNL     1       1.065  -4.982  -0.668  0.00  0.00    +0.215 C 
ATOM     10  O   UNL     1       1.233  -6.041  -1.234  0.00  0.00    -0.276 OA
ATOM     11  H   UNL     1       0.589  -3.040  -0.921  0.00  0.00    +0.149 HD
BRANCH   8  12
ATOM     12  C   UNL     1       0.558  -3.974  -2.827  0.00  0.00    +0.070 C 
ATOM     13  C   UNL     1      -0.862  -4.444  -3.151  0.00  0.00    +0.028 C 
BRANCH  12  14
ATOM     14  C   UNL     1       0.794  -2.598  -3.452  0.00  0.00    +0.022 C 
BRANCH  14  16
ATOM     15  C   UNL     1       2.487  -0.806  -3.860  0.00  0.00    +0.004 C 
ATOM     16  C   UNL     1       2.251  -2.183  -3.235  0.00  0.00    -0.002 C 
ENDBRANCH  14  16
ENDBRANCH  12  14
ENDBRANCH   8  12
ENDBRANCH   1   9
BRANCH   5  17
ATOM     17  C   UNL     1       2.088  -7.515   3.373  0.00  0.00    +0.050 C 
BRANCH  17  18
ATOM     18  C   UNL     1       0.927  -8.435   3.095  0.00  0.00    +0.211 C 
ATOM     19  O   UNL     1      -0.191  -7.983   2.981  0.00  0.00    -0.277 OA
ATOM     20  N   UNL     1       1.133  -9.762   2.975  0.00  0.00    -0.241 N 
ATOM     21  C   UNL     1       0.095 -10.585   2.728  0.00  0.00    +0.303 C 
ATOM     22  O   UNL     1      -1.026 -10.131   2.612  0.00  0.00    -0.253 OA
ATOM     23  N   UNL     1       0.301 -11.912   2.607  0.00  0.00    -0.313 N 
ATOM     24  H   UNL     1       2.028 -10.124   3.067  0.00  0.00    +0.159 HD
ATOM     25  H   UNL     1       1.196 -12.274   2.699  0.00  0.00    +0.146 HD
ATOM     26  H   UNL     1      -0.446 -12.504   2.429  0.00  0.00    +0.146 HD
ENDBRANCH  17  18
BRANCH  17  27
ATOM     27  C   UNL     1       2.310  -7.421   4.860  0.00  0.00    -0.052 A 
ATOM     28  C   UNL     1       1.510  -6.595   5.628  0.00  0.00    +0.002 A 
ATOM     29  C   UNL     1       1.714  -6.509   6.992  0.00  0.00    +0.000 A 
ATOM     30  C   UNL     1       2.718  -7.248   7.589  0.00  0.00    +0.000 A 
ATOM     31  C   UNL     1       3.518  -8.074   6.822  0.00  0.00    +0.000 A 
ATOM     32  C   UNL     1       3.311  -8.164   5.458  0.00  0.00    +0.002 A 
ENDBRANCH  17  27
ENDBRANCH   5  17
TORSDOF 7
