REMARK  Name = ZINC22635664
REMARK  8 active torsions:
REMARK  status: ('A' for Active; 'I' for Inactive)
REMARK    1  A    between atoms: C_1  and  C_2
REMARK    2  A    between atoms: C_2  and  O_3
REMARK    3  A    between atoms: O_3  and  C_4
REMARK    4  A    between atoms: C_9  and  C_10
REMARK    5  A    between atoms: N_19  and  C_22
REMARK    6  A    between atoms: C_22  and  C_23
REMARK    7  A    between atoms: C_22  and  C_24
REMARK    8  A    between atoms: C_25  and  O_27
REMARK                            x       y       z     vdW  Elec       q    Type
REMARK                         _______ _______ _______ _____ _____    ______ ____
ROOT
ATOM      1  C   UNL     1      -0.103  -6.827   1.720  0.00  0.00    +0.227 C 
ATOM      2  N   UNL     1       1.089  -5.960   1.769  0.00  0.00    -0.313 N 
ATOM      3  C   UNL     1       0.885  -4.628   1.503  0.00  0.00    +0.080 A 
ATOM      4  C   UNL     1      -0.201  -4.171   0.743  0.00  0.00    +0.067 A 
ATOM      5  C   UNL     1      -0.272  -2.737   0.543  0.00  0.00    -0.027 A 
ATOM      6  C   UNL     1       0.717  -2.013   1.120  0.00  0.00    -0.021 A 
ATOM      7  S   UNL     1       1.746  -3.210   1.925  0.00  0.00    -0.080 S 
ATOM      8  C   UNL     1       0.878  -0.527   1.068  0.00  0.00    -0.035 C 
ATOM      9  N   UNL     1       0.002  -0.004   0.002  0.00  0.00    +0.384 N 
ATOM     10  C   UNL     1      -1.356  -0.550   0.132  0.00  0.00    -0.073 C 
ATOM     11  C   UNL     1      -1.366  -2.032  -0.252  0.00  0.00    +0.018 C 
ATOM     12  C   UNL     1      -1.139  -5.196   0.217  0.00  0.00    +0.220 C 
ATOM     13  N   UNL     1      -1.024  -6.415   0.668  0.00  0.00    -0.223 NA
ATOM     14  H   UNL     1       2.072  -6.390   2.009  0.00  0.00    +0.149 HD
ATOM     15  H   UNL     1       0.407  -0.327  -0.968  0.00  0.00    -0.081 HD
ENDROOT
BRANCH   1  21
ATOM     16  C   UNL     1      -2.171  -7.035   3.123  0.00  0.00    +0.127 A 
ATOM     17  C   UNL     1      -2.822  -6.976   4.347  0.00  0.00    +0.046 A 
ATOM     18  C   UNL     1      -2.116  -6.646   5.487  0.00  0.00    +0.004 A 
ATOM     19  C   UNL     1      -0.762  -6.374   5.410  0.00  0.00    +0.001 A 
ATOM     20  C   UNL     1      -0.111  -6.438   4.192  0.00  0.00    +0.011 A 
ATOM     21  C   UNL     1      -0.813  -6.763   3.048  0.00  0.00    +0.036 A 
BRANCH  16  22
ATOM     22  O   UNL     1      -2.863  -7.359   1.999  0.00  0.00    -0.492 OA
BRANCH  22  24
ATOM     23  C   UNL     1      -4.864  -7.971   0.788  0.00  0.00    +0.048 C 
ATOM     24  C   UNL     1      -4.259  -7.627   2.151  0.00  0.00    +0.225 C 
ENDBRANCH  22  24
ENDBRANCH  16  22
ENDBRANCH   1  21
BRANCH   9  25
ATOM     25  C   UNL     1      -0.018   1.465   0.010  0.00  0.00    -0.074 C 
ATOM     26  C   UNL     1       1.417   1.994  -0.001  0.00  0.00    -0.014 C 
ATOM     27  C   UNL     1      -0.758   1.972  -1.229  0.00  0.00    -0.014 C 
ENDBRANCH   9  25
BRANCH  12  28
ATOM     28  O   UNL     1      -2.082  -4.876  -0.699  0.00  0.00    -0.492 OA
ATOM     29  H   UNL     1      -2.768  -5.649  -1.076  0.00  0.00    +0.294 HD
ENDBRANCH  12  28
TORSDOF 5
