REMARK  Name = ZINC06783529
REMARK  6 active torsions:
REMARK  status: ('A' for Active; 'I' for Inactive)
REMARK    1  A    between atoms: C_1  and  C_2
REMARK    2  A    between atoms: C_2  and  C_3
REMARK    3  A    between atoms: C_3  and  C_4
REMARK    4  A    between atoms: C_5  and  C_19
REMARK    5  A    between atoms: C_13  and  S_14
REMARK    6  A    between atoms: S_14  and  C_15
REMARK                            x       y       z     vdW  Elec       q    Type
REMARK                         _______ _______ _______ _____ _____    ______ ____
ROOT
ATOM      1  C   UNL     1      -3.122   0.960   1.224  0.00  0.00    -0.012 A 
ATOM      2  C   UNL     1      -4.026   2.014   1.206  0.00  0.00    +0.043 A 
ATOM      3  N   UNL     1      -4.472   2.524   0.082  0.00  0.00    -0.252 NA
ATOM      4  C   UNL     1      -4.074   2.058  -1.108  0.00  0.00    +0.072 A 
ATOM      5  C   UNL     1      -4.561   2.616  -2.303  0.00  0.00    +0.029 A 
ATOM      6  C   UNL     1      -4.141   2.122  -3.500  0.00  0.00    +0.017 A 
ATOM      7  C   UNL     1      -3.232   1.068  -3.563  0.00  0.00    +0.019 A 
ATOM      8  C   UNL     1      -2.739   0.503  -2.424  0.00  0.00    +0.026 A 
ATOM      9  C   UNL     1      -3.151   0.988  -1.175  0.00  0.00    +0.016 A 
ATOM     10  C   UNL     1      -2.662   0.428   0.030  0.00  0.00    +0.029 A 
ATOM     11 BR   UNL     1      -2.675   0.414  -5.247  0.00  0.00    -0.050 Br
ATOM     12  C   UNL     1      -4.513   2.584   2.513  0.00  0.00    +0.066 C 
ENDROOT
BRANCH   1  13
ATOM     13  C   UNL     1      -2.640   0.399   2.537  0.00  0.00    +0.038 C 
BRANCH  13  15
ATOM     14  C   UNL     1      -0.896   0.583   4.316  0.00  0.00    +0.004 C 
ATOM     15  C   UNL     1      -1.385   1.152   2.983  0.00  0.00    +0.001 C 
ENDBRANCH  13  15
ENDBRANCH   1  13
BRANCH  10  16
ATOM     16  S   UNL     1      -1.512  -0.906   0.012  0.00  0.00    -0.056 S 
BRANCH  16  17
ATOM     17  C   UNL     1       0.002  -0.004   0.002  0.00  0.00    +0.127 C 
ATOM     18  N   UNL     1      -0.016   1.299   0.009  0.00  0.00    -0.382 N 
ATOM     19  N   UNL     1       1.202  -0.676  -0.013  0.00  0.00    -0.339 N 
ATOM     20  H   UNL     1       0.929   1.862   0.003  0.00  0.00    +0.158 HD
ATOM     21  H   UNL     1       2.147  -0.113  -0.019  0.00  0.00    +0.144 HD
ATOM     22  H   UNL     1       1.217  -1.776  -0.019  0.00  0.00    +0.144 HD
ATOM     23  H   UNL     1      -0.976   1.836   0.021  0.00  0.00    +0.158 HD
ENDBRANCH  16  17
ENDBRANCH  10  16
TORSDOF 4
