REMARK  Name = ZINC08941259
REMARK  9 active torsions:
REMARK  status: ('A' for Active; 'I' for Inactive)
REMARK    1  A    between atoms: C_4  and  S_20
REMARK    2  A    between atoms: C_5  and  C_7
REMARK    3  A    between atoms: N_8  and  C_9
REMARK    4  A    between atoms: C_9  and  C_10
REMARK    5  A    between atoms: C_10  and  C_11
REMARK    6  A    between atoms: S_20  and  N_23
REMARK    7  A    between atoms: N_23  and  C_24
REMARK    8  A    between atoms: C_24  and  C_25
REMARK    9  A    between atoms: C_25  and  C_26
REMARK                            x       y       z     vdW  Elec       q    Type
REMARK                         _______ _______ _______ _____ _____    ______ ____
ROOT
ATOM      1  C   UNL     1      -9.794   1.523  -2.771  0.00  0.00    +0.001 A 
ATOM      2  C   UNL     1      -9.859   1.235  -4.123  0.00  0.00    +0.002 A 
ATOM      3  C   UNL     1      -8.840   1.633  -4.970  0.00  0.00    +0.029 A 
ATOM      4  C   UNL     1      -7.752   2.320  -4.471  0.00  0.00    +0.116 A 
ATOM      5  C   UNL     1      -7.682   2.614  -3.109  0.00  0.00    +0.039 A 
ATOM      6  C   UNL     1      -8.710   2.205  -2.259  0.00  0.00    +0.013 A 
ENDROOT
BRANCH   5   7
ATOM      7  C   UNL     1      -6.518   3.351  -2.567  0.00  0.00    +0.099 C 
ATOM      8  N   UNL     1      -5.246   2.846  -2.729  0.00  0.00    -0.330 N 
ATOM      9  H   UNL     1      -7.555   4.880  -1.712  0.00  0.00    +0.157 HD
ATOM     10  H   UNL     1      -5.119   1.973  -3.133  0.00  0.00    +0.147 HD
ATOM     11  N   UNL     1      -6.631   4.502  -1.923  0.00  0.00    -0.387 N 
ATOM     12  H   UNL     1      -5.789   5.014  -1.635  0.00  0.00    +0.157 HD
BRANCH   8  13
ATOM     13  C   UNL     1      -4.086   3.626  -2.291  0.00  0.00    +0.110 C 
BRANCH  13  14
ATOM     14  C   UNL     1      -2.805   2.844  -2.583  0.00  0.00    +0.095 C 
BRANCH  14  15
ATOM     15  C   UNL     1      -1.612   3.647  -2.132  0.00  0.00    +0.139 A 
ATOM     16  N   UNL     1      -1.057   3.610  -0.948  0.00  0.00    -0.134 NA
ATOM     17  N   UNL     1      -0.058   4.419  -0.898  0.00  0.00    -0.129 NA
ATOM     18  C   UNL     1       0.078   5.025  -2.066  0.00  0.00    +0.161 A 
ATOM     19  N   UNL     1      -0.915   4.543  -2.883  0.00  0.00    -0.286 N 
ATOM     20  C   UNL     1      -1.034   4.991  -4.165  0.00  0.00    +0.094 A 
ATOM     21  C   UNL     1      -0.172   5.907  -4.654  0.00  0.00    +0.018 A 
ATOM     22  C   UNL     1       0.855   6.420  -3.842  0.00  0.00    +0.005 A 
ATOM     23  C   UNL     1       0.982   5.986  -2.560  0.00  0.00    +0.048 A 
ENDBRANCH  14  15
ENDBRANCH  13  14
ENDBRANCH   8  13
ENDBRANCH   5   7
BRANCH   4  24
ATOM     24  S   UNL     1      -6.455   2.826  -5.551  0.00  0.00    +0.059 S 
ATOM     25  O   UNL     1      -6.834   2.418  -6.858  0.00  0.00    -0.153 OA
ATOM     26  O   UNL     1      -6.164   4.179  -5.230  0.00  0.00    -0.153 OA
BRANCH  24  27
ATOM     27  N   UNL     1      -5.112   1.944  -5.150  0.00  0.00    -0.190 NA
ATOM     28  H   UNL     1      -4.321   2.393  -4.813  0.00  0.00    +0.148 HD
BRANCH  27  29
ATOM     29  C   UNL     1      -5.119   0.487  -5.304  0.00  0.00    +0.113 C 
BRANCH  29  30
ATOM     30  C   UNL     1      -3.683  -0.037  -5.260  0.00  0.00    +0.093 C 
BRANCH  30  31
ATOM     31  C   UNL     1      -3.690  -1.535  -5.418  0.00  0.00    +0.139 A 
ATOM     32  N   UNL     1      -3.620  -2.194  -6.546  0.00  0.00    -0.134 NA
ATOM     33  N   UNL     1      -3.650  -3.461  -6.326  0.00  0.00    -0.129 NA
ATOM     34  C   UNL     1      -3.742  -3.681  -5.025  0.00  0.00    +0.161 A 
ATOM     35  N   UNL     1      -3.764  -2.451  -4.414  0.00  0.00    -0.286 N 
ATOM     36  C   UNL     1      -3.861  -2.354  -3.057  0.00  0.00    +0.094 A 
ATOM     37  C   UNL     1      -3.927  -3.465  -2.294  0.00  0.00    +0.018 A 
ATOM     38  C   UNL     1      -3.901  -4.738  -2.889  0.00  0.00    +0.005 A 
ATOM     39  C   UNL     1      -3.809  -4.849  -4.242  0.00  0.00    +0.048 A 
ENDBRANCH  30  31
ENDBRANCH  29  30
ENDBRANCH  27  29
ENDBRANCH  24  27
ENDBRANCH   4  24
TORSDOF 9
