REMARK  Name = ZINC63384757
REMARK  5 active torsions:
REMARK  status: ('A' for Active; 'I' for Inactive)
REMARK    1  A    between atoms: C_1  and  C_2
REMARK    2  A    between atoms: C_2  and  N_3
REMARK    3  A    between atoms: C_12  and  O_30
REMARK    4  A    between atoms: N_26  and  C_29
REMARK    5  A    between atoms: O_30  and  C_31
REMARK                            x       y       z     vdW  Elec       q    Type
REMARK                         _______ _______ _______ _____ _____    ______ ____
ROOT
ATOM      1  N   UNL     1       0.651  -0.478  -1.220  0.00  0.00    -0.299 N 
ATOM      2  C   UNL     1       0.827  -1.799  -1.425  0.00  0.00    +0.303 C 
ATOM      3  O   UNL     1       0.498  -2.596  -0.568  0.00  0.00    -0.253 OA
ATOM      4  N   UNL     1       1.367  -2.235  -2.580  0.00  0.00    -0.265 N 
ATOM      5  C   UNL     1       1.907  -1.266  -3.541  0.00  0.00    +0.115 C 
ATOM      6  C   UNL     1       1.211  -1.450  -4.901  0.00  0.00    +0.052 C 
ATOM      7  C   UNL     1       1.190  -2.931  -5.184  0.00  0.00    -0.034 C 
ATOM      8  C   UNL     1       1.582  -3.631  -6.241  0.00  0.00    +0.003 A 
ATOM      9  C   UNL     1       2.072  -3.219  -7.566  0.00  0.00    +0.055 A 
ATOM     10  C   UNL     1       2.416  -4.215  -8.427  0.00  0.00    +0.121 A 
ATOM     11  C   UNL     1       2.327  -5.581  -8.122  0.00  0.00    +0.047 A 
ATOM     12  C   UNL     1       1.881  -6.071  -6.937  0.00  0.00    +0.029 A 
ATOM     13  C   UNL     1       1.471  -5.088  -5.925  0.00  0.00    +0.043 A 
ATOM     14  N   UNL     1       0.987  -5.259  -4.731  0.00  0.00    -0.375 N 
ATOM     15  C   UNL     1       0.671  -3.946  -4.170  0.00  0.00    +0.144 C 
ATOM     16  C   UNL     1       1.414  -3.673  -2.861  0.00  0.00    +0.166 C 
ATOM     17  C   UNL     1       0.839  -4.462  -1.729  0.00  0.00    +0.009 A 
ATOM     18  C   UNL     1      -0.422  -4.480  -1.173  0.00  0.00    +0.008 A 
ATOM     19  C   UNL     1      -0.631  -5.350  -0.108  0.00  0.00    +0.000 A 
ATOM     20  C   UNL     1       0.382  -6.157   0.369  0.00  0.00    +0.002 A 
ATOM     21  C   UNL     1       1.653  -6.144  -0.184  0.00  0.00    +0.024 A 
ATOM     22  C   UNL     1       1.875  -5.277  -1.255  0.00  0.00    +0.042 A 
ATOM     23  N   UNL     1       3.028  -5.064  -1.989  0.00  0.00    -0.272 N 
ATOM     24  C   UNL     1       2.850  -4.139  -2.956  0.00  0.00    +0.250 C 
ATOM     25  O   UNL     1       3.682  -3.754  -3.749  0.00  0.00    -0.272 OA
ATOM     26  C   UNL     1       4.294  -5.760  -1.745  0.00  0.00    +0.138 C 
ATOM     27  H   UNL     1       0.979   0.162  -1.871  0.00  0.00    +0.150 HD
ATOM     28  H   UNL     1       0.857  -6.112  -4.288  0.00  0.00    +0.160 HD
ENDROOT
BRANCH   1  30
ATOM     29  C   UNL     1      -0.102   1.519  -0.026  0.00  0.00    +0.024 C 
ATOM     30  C   UNL     1      -0.035  -0.009  -0.014  0.00  0.00    +0.102 C 
ENDBRANCH   1  30
BRANCH  10  31
ATOM     31  O   UNL     1       2.871  -3.865  -9.659  0.00  0.00    -0.495 OA
ATOM     32  C   UNL     1       3.225  -4.928 -10.546  0.00  0.00    +0.277 C 
ENDBRANCH  10  31
TORSDOF 2
