REMARK  Name = ZINC08624466
REMARK  14 active torsions:
REMARK  status: ('A' for Active; 'I' for Inactive)
REMARK    1  A    between atoms: C_1  and  N_68
REMARK    2  A    between atoms: C_2  and  C_3
REMARK    3  A    between atoms: C_2  and  N_68
REMARK    4  A    between atoms: C_9  and  C_10
REMARK    5  A    between atoms: C_9  and  N_68
REMARK    6  A    between atoms: N_12  and  C_15
REMARK    7  A    between atoms: C_15  and  C_16
REMARK    8  A    between atoms: C_18  and  O_38
REMARK    9  A    between atoms: C_20  and  O_37
REMARK   10  A    between atoms: C_22  and  C_25
REMARK   11  A    between atoms: C_25  and  C_26
REMARK   12  A    between atoms: N_28  and  C_29
REMARK   13  A    between atoms: N_28  and  C_30
REMARK   14  A    between atoms: C_30  and  C_31
REMARK                            x       y       z     vdW  Elec       q    Type
REMARK                         _______ _______ _______ _____ _____    ______ ____
ROOT
ATOM      1  C   UNL     1       5.304   0.503   4.102  0.00  0.00    +0.171 C 
ATOM      2  C   UNL     1       6.320  -0.478   4.726  0.00  0.00    +0.176 C 
ATOM      3  C   UNL     1       6.812   0.248   5.998  0.00  0.00    +0.175 C 
ATOM      4  C   UNL     1       6.034   1.583   5.992  0.00  0.00    +0.159 C 
ATOM      5  O   UNL     1       4.852   1.318   5.205  0.00  0.00    -0.366 OA
ENDROOT
BRANCH   3   6
ATOM      6  O   UNL     1       8.219   0.488   5.926  0.00  0.00    -0.387 OA
ATOM      7  H   UNL     1       8.752  -0.316   5.867  0.00  0.00    +0.210 HD
ENDBRANCH   3   6
BRANCH   2   8
ATOM      8  O   UNL     1       7.407  -0.713   3.829  0.00  0.00    -0.387 OA
ATOM      9  H   UNL     1       8.075  -1.322   4.171  0.00  0.00    +0.210 HD
ENDBRANCH   2   8
BRANCH   1  10
ATOM     10  C   UNL     1       4.130  -0.264   3.490  0.00  0.00    +0.179 C 
BRANCH  10  13
ATOM     11  C   UNL     1       2.039   1.654   1.290  0.00  0.00    +0.066 A 
ATOM     12  C   UNL     1       2.851   0.593   1.507  0.00  0.00    +0.131 A 
ATOM     13  N   UNL     1       3.241   0.674   2.800  0.00  0.00    -0.249 N 
ATOM     14  N   UNL     1       2.695   1.718   3.321  0.00  0.00    -0.065 NA
ATOM     15  N   UNL     1       1.977   2.327   2.444  0.00  0.00    -0.136 NA
BRANCH  11  16
ATOM     16  C   UNL     1       1.346   2.010   0.000  0.00  0.00    -0.019 C 
BRANCH  16  18
ATOM     17  C   UNL     1       0.002  -0.004   0.002  0.00  0.00    -0.095 C 
ATOM     18  N   UNL     1      -0.030   1.473   0.034  0.00  0.00    +0.384 N 
ATOM     19  H   UNL     1      -0.486   1.778   0.903  0.00  0.00    -0.081 HD
BRANCH  18  20
ATOM     20  C   UNL     1      -0.802   1.987  -1.117  0.00  0.00    -0.043 C 
BRANCH  20  21
ATOM     21  C   UNL     1      -2.249   1.608  -0.941  0.00  0.00    -0.064 A 
ATOM     22  C   UNL     1      -2.723   0.421  -1.469  0.00  0.00    +0.002 A 
ATOM     23  C   UNL     1      -4.050   0.071  -1.303  0.00  0.00    +0.000 A 
ATOM     24  C   UNL     1      -4.906   0.912  -0.617  0.00  0.00    +0.000 A 
ATOM     25  C   UNL     1      -4.434   2.102  -0.094  0.00  0.00    +0.000 A 
ATOM     26  C   UNL     1      -3.106   2.449  -0.256  0.00  0.00    +0.002 A 
ENDBRANCH  20  21
ENDBRANCH  18  20
ENDBRANCH  16  18
ENDBRANCH  11  16
ENDBRANCH  10  13
ENDBRANCH   1  10
BRANCH   4  27
ATOM     27  C   UNL     1       5.647   1.982   7.417  0.00  0.00    +0.130 C 
BRANCH  27  28
ATOM     28  C   UNL     1       5.000   3.342   7.400  0.00  0.00    +0.218 C 
ATOM     29  O   UNL     1       4.862   3.935   6.351  0.00  0.00    -0.276 OA
ATOM     30  N   UNL     1       4.574   3.901   8.551  0.00  0.00    -0.300 N 
ATOM     31  C   UNL     1       4.741   3.184   9.818  0.00  0.00    +0.132 C 
BRANCH  30  32
ATOM     32  C   UNL     1       3.945   5.223   8.535  0.00  0.00    +0.142 C 
BRANCH  32  33
ATOM     33  C   UNL     1       2.457   5.069   8.353  0.00  0.00    -0.030 A 
ATOM     34  C   UNL     1       1.913   5.056   7.082  0.00  0.00    +0.005 A 
ATOM     35  C   UNL     1       0.548   4.911   6.916  0.00  0.00    +0.000 A 
ATOM     36  C   UNL     1      -0.273   4.787   8.021  0.00  0.00    +0.000 A 
ATOM     37  C   UNL     1       0.270   4.806   9.292  0.00  0.00    +0.000 A 
ATOM     38  C   UNL     1       1.635   4.947   9.458  0.00  0.00    +0.005 A 
ENDBRANCH  32  33
ENDBRANCH  30  32
ENDBRANCH  27  28
ENDBRANCH   4  27
TORSDOF 12
