REMARK  Name = ZINC41586206
REMARK  13 active torsions:
REMARK  status: ('A' for Active; 'I' for Inactive)
REMARK    1  A    between atoms: C_1  and  C_2
REMARK    2  A    between atoms: C_2  and  N_3
REMARK    3  A    between atoms: C_5  and  C_14
REMARK    4  A    between atoms: C_10  and  O_12
REMARK    5  A    between atoms: O_12  and  C_13
REMARK    6  A    between atoms: C_19  and  C_38
REMARK    7  A    between atoms: C_21  and  O_37
REMARK    8  A    between atoms: C_22  and  C_25
REMARK    9  A    between atoms: C_25  and  N_26
REMARK   10  A    between atoms: C_29  and  C_32
REMARK   11  A    between atoms: C_32  and  O_34
REMARK   12  A    between atoms: O_34  and  C_35
REMARK   13  A    between atoms: C_35  and  C_36
REMARK                            x       y       z     vdW  Elec       q    Type
REMARK                         _______ _______ _______ _____ _____    ______ ____
ROOT
ATOM      1  C   UNL     1       0.760  -1.669  -4.652  0.00  0.00    +0.060 C 
ATOM      2  C   UNL     1      -0.519  -1.823  -5.095  0.00  0.00    +0.176 C 
ATOM      3  C   UNL     1      -1.694  -1.483  -4.373  0.00  0.00    +0.232 C 
ATOM      4  O   UNL     1      -1.763  -1.004  -3.253  0.00  0.00    -0.283 OA
ATOM      5  C   UNL     1      -2.812  -1.833  -5.267  0.00  0.00    +0.071 A 
ATOM      6  C   UNL     1      -4.199  -1.746  -5.150  0.00  0.00    -0.033 A 
ATOM      7  C   UNL     1      -4.995  -2.162  -6.179  0.00  0.00    +0.050 A 
ATOM      8  C   UNL     1      -4.427  -2.674  -7.343  0.00  0.00    +0.122 A 
ATOM      9  C   UNL     1      -3.051  -2.767  -7.473  0.00  0.00    +0.020 A 
ATOM     10  C   UNL     1      -2.228  -2.348  -6.436  0.00  0.00    +0.145 A 
ATOM     11  O   UNL     1      -0.885  -2.321  -6.300  0.00  0.00    -0.451 OA
ATOM     12  C   UNL     1      -4.817  -1.193  -3.892  0.00  0.00    +0.045 C 
ENDROOT
BRANCH   1  15
ATOM     13  N   UNL     1       0.855  -1.115  -1.046  0.00  0.00    -0.346 N 
ATOM     14  C   UNL     1       0.330  -1.704  -2.148  0.00  0.00    +0.094 A 
ATOM     15  C   UNL     1       1.011  -1.274  -3.267  0.00  0.00    +0.004 A 
ATOM     16  C   UNL     1       2.045  -0.336  -2.788  0.00  0.00    +0.011 A 
ATOM     17  C   UNL     1       1.894  -0.273  -1.394  0.00  0.00    +0.050 A 
ATOM     18  C   UNL     1       2.738   0.547  -0.652  0.00  0.00    +0.030 A 
ATOM     19  C   UNL     1       3.708   1.291  -1.285  0.00  0.00    +0.047 A 
ATOM     20  C   UNL     1       3.856   1.232  -2.667  0.00  0.00    +0.121 A 
ATOM     21  C   UNL     1       3.032   0.416  -3.420  0.00  0.00    +0.056 A 
BRANCH  13  23
ATOM     22  C   UNL     1      -0.625  -0.245   0.697  0.00  0.00    +0.027 C 
ATOM     23  C   UNL     1       0.382  -1.335   0.323  0.00  0.00    +0.118 C 
ENDBRANCH  13  23
BRANCH  20  24
ATOM     24  O   UNL     1       4.818   1.973  -3.279  0.00  0.00    -0.495 OA
ATOM     25  C   UNL     1       5.641   2.788  -2.441  0.00  0.00    +0.277 C 
ENDBRANCH  20  24
ENDBRANCH   1  15
BRANCH   8  26
ATOM     26  O   UNL     1      -5.228  -3.085  -8.359  0.00  0.00    -0.506 OA
ATOM     27  H   UNL     1      -5.439  -2.392  -8.999  0.00  0.00    +0.292 HD
ENDBRANCH   8  26
BRANCH   9  28
ATOM     28  C   UNL     1      -2.448  -3.323  -8.737  0.00  0.00    -0.036 C 
BRANCH  28  29
ATOM     29  N   UNL     1      -2.217  -2.230  -9.691  0.00  0.00    +0.383 N 
ATOM     30  C   UNL     1      -1.214  -1.310  -9.145  0.00  0.00    -0.078 C 
ATOM     31  C   UNL     1      -1.029  -0.127 -10.098  0.00  0.00    -0.004 C 
ATOM     32  C   UNL     1      -0.560  -0.645 -11.461  0.00  0.00    +0.094 C 
ATOM     33  C   UNL     1      -1.578  -1.661 -11.987  0.00  0.00    -0.004 C 
ATOM     34  C   UNL     1      -1.743  -2.787 -10.964  0.00  0.00    -0.078 C 
ATOM     35  H   UNL     1      -3.081  -1.731  -9.845  0.00  0.00    -0.081 HD
BRANCH  32  36
ATOM     36  C   UNL     1      -0.451   0.506 -12.427  0.00  0.00    +0.310 C 
ATOM     37  O   UNL     1      -0.720   1.627 -12.065  0.00  0.00    -0.251 OA
BRANCH  36  38
ATOM     38  O   UNL     1      -0.055   0.287 -13.691  0.00  0.00    -0.465 OA
BRANCH  38  39
ATOM     39  C   UNL     1       0.026   1.424 -14.552  0.00  0.00    +0.229 C 
ATOM     40  C   UNL     1       0.490   0.980 -15.941  0.00  0.00    +0.048 C 
ENDBRANCH  38  39
ENDBRANCH  36  38
ENDBRANCH  32  36
ENDBRANCH  28  29
ENDBRANCH   9  28
TORSDOF 9
