REMARK  Name = ZINC37053358
REMARK  4 active torsions:
REMARK  status: ('A' for Active; 'I' for Inactive)
REMARK    1  A    between atoms: C_3  and  S_9
REMARK    2  A    between atoms: C_6  and  N_7
REMARK    3  A    between atoms: S_9  and  N_12
REMARK    4  A    between atoms: N_12  and  C_13
REMARK                            x       y       z     vdW  Elec       q    Type
REMARK                         _______ _______ _______ _____ _____    ______ ____
ROOT
ATOM      1  S   UNL     1       3.976   2.348  -0.057  0.00  0.00    +0.060 S 
ATOM      2  O   UNL     1       4.946   1.873  -0.981  0.00  0.00    -0.153 OA
ATOM      3  O   UNL     1       3.490   3.683  -0.082  0.00  0.00    -0.153 OA
ENDROOT
BRANCH   1   6
ATOM      4  C   UNL     1       1.472  -0.543  -1.285  0.00  0.00    +0.025 A 
ATOM      5  C   UNL     1       2.572   0.282  -1.156  0.00  0.00    +0.031 A 
ATOM      6  C   UNL     1       2.570   1.297  -0.218  0.00  0.00    +0.119 A 
ATOM      7  C   UNL     1       1.467   1.491   0.595  0.00  0.00    +0.046 A 
ATOM      8  C   UNL     1       0.364   0.668   0.471  0.00  0.00    +0.040 A 
ATOM      9  C   UNL     1       0.362  -0.352  -0.471  0.00  0.00    +0.026 A 
ATOM     10 BR   UNL     1       1.470   2.881   1.877  0.00  0.00    -0.048 Br
BRANCH   9  11
ATOM     11  N   UNL     1      -0.751  -1.185  -0.599  0.00  0.00    -0.358 N 
ATOM     12  H   UNL     1      -0.751  -1.898  -1.257  0.00  0.00    +0.142 HD
ATOM     13  H   UNL     1      -1.525  -1.051  -0.030  0.00  0.00    +0.142 HD
ENDBRANCH   9  11
ENDBRANCH   1   6
BRANCH   1  14
ATOM     14  N   UNL     1       4.602   2.099   1.456  0.00  0.00    -0.188 NA
ATOM     15  H   UNL     1       4.602   2.820   2.105  0.00  0.00    +0.148 HD
BRANCH  14  16
ATOM     16  C   UNL     1       5.156   0.791   1.814  0.00  0.00    +0.063 C 
ATOM     17  C   UNL     1       6.674   0.807   1.622  0.00  0.00    -0.058 C 
ATOM     18  N   UNL     1       7.343   0.529   2.895  0.00  0.00    +0.381 N 
ATOM     19  C   UNL     1       6.978  -0.799   3.390  0.00  0.00    -0.078 C 
ATOM     20  C   UNL     1       5.470  -0.869   3.641  0.00  0.00    -0.014 C 
ATOM     21  C   UNL     1       4.843   0.486   3.285  0.00  0.00    +0.002 C 
ATOM     22  C   UNL     1       5.503   1.565   4.154  0.00  0.00    -0.014 C 
ATOM     23  C   UNL     1       7.016   1.558   3.885  0.00  0.00    -0.078 C 
ATOM     24  H   UNL     1       8.341   0.541   2.740  0.00  0.00    -0.082 HD
ENDBRANCH  14  16
ENDBRANCH   1  14
TORSDOF 4
