REMARK  Name = ZINC04701621
REMARK  8 active torsions:
REMARK  status: ('A' for Active; 'I' for Inactive)
REMARK    1  A    between atoms: C_1  and  C_2
REMARK    2  A    between atoms: C_2  and  O_3
REMARK    3  A    between atoms: O_3  and  C_4
REMARK    4  A    between atoms: C_7  and  N_8
REMARK    5  A    between atoms: N_8  and  C_9
REMARK    6  A    between atoms: C_12  and  C_16
REMARK    7  A    between atoms: C_13  and  O_15
REMARK    8  A    between atoms: C_22  and  C_27
REMARK                            x       y       z     vdW  Elec       q    Type
REMARK                         _______ _______ _______ _____ _____    ______ ____
ROOT
ATOM      1  C   UNL     1       1.280   2.024   0.001  0.00  0.00    +0.345 C 
ATOM      2  C   UNL     1       1.148   3.505   0.257  0.00  0.00    +0.081 C 
ATOM      3  C   UNL     1       1.245   3.997   1.511  0.00  0.00    +0.085 C 
ATOM      4  C   UNL     1       0.919   4.371  -0.846  0.00  0.00    +0.200 C 
ATOM      5  O   UNL     1       0.709   5.560  -0.684  0.00  0.00    -0.287 OA
ATOM      6  C   UNL     1       0.947   3.772  -2.199  0.00  0.00    +0.064 A 
ATOM      7  C   UNL     1       0.530   4.490  -3.315  0.00  0.00    +0.018 A 
ATOM      8  C   UNL     1       0.559   3.895  -4.559  0.00  0.00    -0.050 A 
ATOM      9  C   UNL     1       1.009   2.592  -4.699  0.00  0.00    +0.007 A 
ATOM     10  C   UNL     1       1.443   1.877  -3.600  0.00  0.00    +0.047 A 
ATOM     11  C   UNL     1       1.428   2.462  -2.343  0.00  0.00    +0.135 A 
ATOM     12  O   UNL     1       1.898   1.792  -1.264  0.00  0.00    -0.459 OA
ATOM     13  C   UNL     1       0.101   4.665  -5.771  0.00  0.00    +0.044 C 
ENDROOT
BRANCH   3  14
ATOM     14  N   UNL     1       1.465   3.151   2.563  0.00  0.00    -0.320 N 
ATOM     15  H   UNL     1       1.551   2.198   2.409  0.00  0.00    +0.152 HD
BRANCH  14  16
ATOM     16  C   UNL     1       1.565   3.659   3.856  0.00  0.00    +0.034 A 
ATOM     17  C   UNL     1       1.446   5.031   4.074  0.00  0.00    +0.024 A 
ATOM     18  C   UNL     1       1.537   5.539   5.337  0.00  0.00    +0.020 A 
ATOM     19  C   UNL     1       1.762   4.684   6.423  0.00  0.00    +0.105 A 
ATOM     20  C   UNL     1       1.887   3.303   6.207  0.00  0.00    +0.133 A 
ATOM     21  C   UNL     1       1.788   2.798   4.922  0.00  0.00    +0.069 A 
BRANCH  19  22
ATOM     22  C   UNL     1       1.866   5.232   7.784  0.00  0.00    +0.390 C 
ATOM     23  O   UNL     1       2.062   4.488   8.725  0.00  0.00    -0.240 OA
ATOM     24  O   UNL     1       1.745   6.559   7.988  0.00  0.00    -0.240 OA
ENDBRANCH  19  22
BRANCH  20  25
ATOM     25  O   UNL     1       2.105   2.466   7.253  0.00  0.00    -0.506 OA
ATOM     26  H   UNL     1       3.040   2.320   7.451  0.00  0.00    +0.292 HD
ENDBRANCH  20  25
ENDBRANCH  14  16
ENDBRANCH   3  14
BRANCH   1  27
ATOM     27  O   UNL     1      -0.017   1.425   0.010  0.00  0.00    -0.338 OA
BRANCH  27  29
ATOM     28  C   UNL     1      -1.433  -0.534   0.013  0.00  0.00    +0.034 C 
ATOM     29  C   UNL     1       0.002  -0.004   0.002  0.00  0.00    +0.161 C 
ENDBRANCH  27  29
ENDBRANCH   1  27
TORSDOF 6
