REMARK  Name = ZINC20232925
REMARK  10 active torsions:
REMARK  status: ('A' for Active; 'I' for Inactive)
REMARK    1  A    between atoms: C_1  and  C_2
REMARK    2  A    between atoms: C_12  and  C_14
REMARK    3  A    between atoms: C_14  and  C_16
REMARK    4  A    between atoms: C_14  and  N_20
REMARK    5  A    between atoms: C_16  and  C_17
REMARK    6  A    between atoms: C_17  and  C_18
REMARK    7  A    between atoms: C_17  and  C_19
REMARK    8  A    between atoms: N_20  and  S_21
REMARK    9  A    between atoms: S_21  and  C_24
REMARK   10  A    between atoms: C_33  and  C_35
REMARK                            x       y       z     vdW  Elec       q    Type
REMARK                         _______ _______ _______ _____ _____    ______ ____
ROOT
ATOM      1  C   UNL     1      -1.259   2.274   0.069  0.00  0.00    +0.163 C 
ENDROOT
BRANCH   1  13
ATOM      2  C   UNL     1      -1.655   8.215  -7.995  0.00  0.00    +0.044 C 
ATOM      3  C   UNL     1      -1.468   7.279  -6.829  0.00  0.00    -0.049 A 
ATOM      4  C   UNL     1      -0.390   6.407  -6.795  0.00  0.00    +0.005 A 
ATOM      5  C   UNL     1      -0.198   5.545  -5.747  0.00  0.00    +0.029 A 
ATOM      6  C   UNL     1      -1.101   5.518  -4.659  0.00  0.00    +0.080 A 
ATOM      7  C   UNL     1      -2.188   6.420  -4.728  0.00  0.00    +0.041 A 
ATOM      8  C   UNL     1      -2.372   7.279  -5.782  0.00  0.00    +0.020 A 
ATOM      9  S   UNL     1      -3.061   6.074  -3.220  0.00  0.00    -0.052 S 
ATOM     10  C   UNL     1      -1.961   4.804  -2.609  0.00  0.00    +0.165 A 
ATOM     11  N   UNL     1      -1.057   4.737  -3.558  0.00  0.00    -0.225 NA
ATOM     12  N   UNL     1      -2.045   4.072  -1.435  0.00  0.00    -0.263 N 
ATOM     13  C   UNL     1      -1.110   3.144  -1.152  0.00  0.00    +0.237 C 
ATOM     14  O   UNL     1      -0.149   3.010  -1.879  0.00  0.00    -0.274 OA
ATOM     15  H   UNL     1      -2.875   4.249  -0.735  0.00  0.00    +0.157 HD
ENDBRANCH   1  13
BRANCH   1  16
ATOM     16  N   UNL     1      -0.316   1.155  -0.011  0.00  0.00    -0.178 NA
ATOM     17  H   UNL     1       0.614   1.260  -0.589  0.00  0.00    +0.149 HD
BRANCH  16  18
ATOM     18  S   UNL     1      -0.754  -0.339   0.554  0.00  0.00    +0.059 S 
ATOM     19  O   UNL     1       0.338  -1.209   0.289  0.00  0.00    -0.153 OA
ATOM     20  O   UNL     1      -1.272  -0.143   1.862  0.00  0.00    -0.153 OA
BRANCH  18  21
ATOM     21  C   UNL     1      -2.096  -0.899  -0.441  0.00  0.00    +0.106 A 
ATOM     22  C   UNL     1      -1.851  -1.631  -1.588  0.00  0.00    +0.030 A 
ATOM     23  C   UNL     1      -2.899  -2.071  -2.368  0.00  0.00    +0.026 A 
ATOM     24  C   UNL     1      -4.216  -1.779  -2.007  0.00  0.00    +0.040 A 
ATOM     25  C   UNL     1      -4.451  -1.045  -0.856  0.00  0.00    -0.023 A 
ATOM     26  C   UNL     1      -3.398  -0.612  -0.074  0.00  0.00    +0.034 A 
ATOM     27  C   UNL     1      -5.944  -0.869  -0.694  0.00  0.00    +0.056 C 
ATOM     28  C   UNL     1      -6.553  -1.599  -1.902  0.00  0.00    +0.118 C 
ATOM     29  N   UNL     1      -5.409  -2.125  -2.650  0.00  0.00    -0.271 N 
ATOM     30  C   UNL     1      -5.493  -2.837  -3.791  0.00  0.00    +0.217 C 
ATOM     31  O   UNL     1      -4.483  -3.229  -4.338  0.00  0.00    -0.276 OA
ATOM     32  C   UNL     1      -6.841  -3.147  -4.389  0.00  0.00    +0.109 C 
ENDBRANCH  18  21
ENDBRANCH  16  18
ENDBRANCH   1  16
BRANCH   1  33
ATOM     33  C   UNL     1      -0.965   3.099   1.323  0.00  0.00    +0.032 C 
BRANCH  33  34
ATOM     34  C   UNL     1      -2.038   4.178   1.486  0.00  0.00    -0.015 C 
ATOM     35  C   UNL     1      -3.387   3.517   1.775  0.00  0.00    +0.007 C 
ATOM     36  C   UNL     1      -1.662   5.099   2.649  0.00  0.00    +0.007 C 
ENDBRANCH  33  34
ENDBRANCH   1  33
TORSDOF 6
