REMARK  Name = ZINC09169974
REMARK  9 active torsions:
REMARK  status: ('A' for Active; 'I' for Inactive)
REMARK    1  A    between atoms: C_1  and  C_2
REMARK    2  A    between atoms: C_4  and  C_28
REMARK    3  A    between atoms: C_5  and  S_9
REMARK    4  A    between atoms: C_7  and  C_8
REMARK    5  A    between atoms: S_9  and  N_12
REMARK    6  A    between atoms: N_12  and  C_13
REMARK    7  A    between atoms: N_19  and  C_27
REMARK    8  A    between atoms: C_22  and  C_25
REMARK    9  A    between atoms: C_22  and  C_26
REMARK                            x       y       z     vdW  Elec       q    Type
REMARK                         _______ _______ _______ _____ _____    ______ ____
ROOT
ATOM      1  C   UNL     1      -1.027   5.462  -1.121  0.00  0.00    +0.050 A 
ATOM      2  C   UNL     1      -0.007   4.873  -1.857  0.00  0.00    +0.028 A 
ATOM      3  C   UNL     1       0.146   3.499  -1.857  0.00  0.00    +0.049 A 
ATOM      4  C   UNL     1      -0.719   2.706  -1.123  0.00  0.00    +0.142 A 
ATOM      5  C   UNL     1      -1.746   3.294  -0.386  0.00  0.00    +0.080 A 
ATOM      6  C   UNL     1      -1.898   4.670  -0.384  0.00  0.00    +0.051 A 
ATOM      7  N   UNL     1      -2.622   2.478   0.342  0.00  0.00    -0.271 N 
ATOM      8  C   UNL     1      -2.118   1.516   1.147  0.00  0.00    +0.229 C 
ATOM      9  O   UNL     1      -2.863   0.761   1.734  0.00  0.00    -0.275 OA
ATOM     10  C   UNL     1      -0.629   1.388   1.308  0.00  0.00    +0.076 C 
ATOM     11  C   UNL     1      -0.012   0.766   0.057  0.00  0.00    +0.244 C 
ATOM     12  O   UNL     1      -0.573   1.353  -1.114  0.00  0.00    -0.489 OA
ATOM     13  C   UNL     1      -0.331   0.499   2.517  0.00  0.00    +0.024 C 
ATOM     14  C   UNL     1      -0.023   2.773   1.538  0.00  0.00    +0.024 C 
ATOM     15  C   UNL     1      -4.071   2.667   0.233  0.00  0.00    +0.138 C 
ENDROOT
BRANCH   1  16
ATOM     16  N   UNL     1      -1.177   6.853  -1.122  0.00  0.00    -0.216 N 
ATOM     17  H   UNL     1      -1.329   7.325  -0.288  0.00  0.00    +0.174 HD
BRANCH  16  18
ATOM     18  S   UNL     1      -1.095   7.694  -2.546  0.00  0.00    +0.073 S 
ATOM     19  O   UNL     1      -1.361   9.054  -2.231  0.00  0.00    -0.150 OA
ATOM     20  O   UNL     1       0.102   7.282  -3.193  0.00  0.00    -0.150 OA
BRANCH  18  25
ATOM     21  C   UNL     1      -5.664   5.801  -6.002  0.00  0.00    +0.044 C 
ATOM     22  C   UNL     1      -4.523   6.274  -5.139  0.00  0.00    -0.047 A 
ATOM     23  C   UNL     1      -4.781   6.931  -3.950  0.00  0.00    +0.009 A 
ATOM     24  C   UNL     1      -3.735   7.365  -3.158  0.00  0.00    -0.024 A 
ATOM     25  C   UNL     1      -2.429   7.141  -3.555  0.00  0.00    +0.112 A 
ATOM     26  C   UNL     1      -2.171   6.489  -4.746  0.00  0.00    +0.032 A 
ATOM     27  C   UNL     1      -3.218   6.051  -5.535  0.00  0.00    -0.046 A 
ATOM     28  C   UNL     1      -2.936   5.335  -6.831  0.00  0.00    +0.044 C 
ATOM     29  C   UNL     1      -4.016   8.081  -1.863  0.00  0.00    +0.046 C 
ENDBRANCH  18  25
ENDBRANCH  16  18
ENDBRANCH   1  16
TORSDOF 3
