REMARK  Name = ZINC35449974
REMARK  11 active torsions:
REMARK  status: ('A' for Active; 'I' for Inactive)
REMARK    1  A    between atoms: C_1  and  C_2
REMARK    2  A    between atoms: C_2  and  C_3
REMARK    3  A    between atoms: C_3  and  C_5
REMARK    4  A    between atoms: C_3  and  S_6
REMARK    5  A    between atoms: S_6  and  C_7
REMARK    6  A    between atoms: C_14  and  C_24
REMARK    7  A    between atoms: C_26  and  O_33
REMARK    8  A    between atoms: C_27  and  O_32
REMARK    9  A    between atoms: C_28  and  O_30
REMARK   10  A    between atoms: O_30  and  C_31
REMARK   11  A    between atoms: O_33  and  C_34
REMARK                            x       y       z     vdW  Elec       q    Type
REMARK                         _______ _______ _______ _____ _____    ______ ____
ROOT
ATOM      1  C   UNL     1       3.154  -0.528   2.698  0.00  0.00    +0.171 A 
ATOM      2  N   UNL     1       2.375  -1.137   3.569  0.00  0.00    -0.208 NA
ATOM      3  C   UNL     1       2.849  -1.548   4.750  0.00  0.00    +0.135 A 
ATOM      4  C   UNL     1       4.178  -1.337   5.070  0.00  0.00    +0.069 A 
ATOM      5  C   UNL     1       5.002  -0.688   4.143  0.00  0.00    +0.258 A 
ATOM      6  O   UNL     1       6.179  -0.483   4.392  0.00  0.00    -0.267 OA
ATOM      7  N   UNL     1       4.470  -0.297   2.965  0.00  0.00    -0.302 N 
ATOM      8  C   UNL     1       4.734  -1.799   6.384  0.00  0.00    +0.093 C 
ATOM      9  C   UNL     1       3.635  -2.073   7.379  0.00  0.00    +0.024 C 
ATOM     10  C   UNL     1       2.357  -2.246   6.980  0.00  0.00    +0.017 C 
ATOM     11  N   UNL     1       2.019  -2.179   5.656  0.00  0.00    -0.302 N 
ATOM     12  C   UNL     1       1.260  -2.514   7.982  0.00  0.00    +0.051 C 
ATOM     13  C   UNL     1       1.832  -3.277   9.179  0.00  0.00    +0.014 C 
ATOM     14  C   UNL     1       2.955  -2.437   9.796  0.00  0.00    +0.080 C 
ATOM     15  C   UNL     1       3.985  -2.145   8.739  0.00  0.00    +0.162 C 
ATOM     16  O   UNL     1       5.141  -1.967   9.068  0.00  0.00    -0.292 OA
ATOM     17  H   UNL     1       1.189  -2.578   5.351  0.00  0.00    +0.153 HD
ATOM     18  H   UNL     1       5.026   0.152   2.308  0.00  0.00    +0.171 HD
ENDROOT
BRANCH   8  19
ATOM     19  C   UNL     1       5.528  -3.062   6.168  0.00  0.00    -0.028 A 
ATOM     20  C   UNL     1       4.911  -4.181   5.641  0.00  0.00    +0.054 A 
ATOM     21  C   UNL     1       5.638  -5.345   5.440  0.00  0.00    +0.165 A 
ATOM     22  C   UNL     1       6.987  -5.385   5.769  0.00  0.00    +0.201 A 
ATOM     23  C   UNL     1       7.603  -4.257   6.298  0.00  0.00    +0.165 A 
ATOM     24  C   UNL     1       6.871  -3.096   6.491  0.00  0.00    +0.054 A 
BRANCH  23  25
ATOM     25  O   UNL     1       8.924  -4.291   6.622  0.00  0.00    -0.491 OA
ATOM     26  C   UNL     1       9.491  -3.095   7.161  0.00  0.00    +0.277 C 
ENDBRANCH  23  25
BRANCH  22  27
ATOM     27  O   UNL     1       7.704  -6.526   5.575  0.00  0.00    -0.501 OA
ATOM     28  H   UNL     1       8.117  -6.586   4.703  0.00  0.00    +0.292 HD
ENDBRANCH  22  27
BRANCH  21  29
ATOM     29  O   UNL     1       5.030  -6.446   4.923  0.00  0.00    -0.491 OA
ATOM     30  C   UNL     1       3.641  -6.333   4.608  0.00  0.00    +0.277 C 
ENDBRANCH  21  29
ENDBRANCH   8  19
BRANCH   1  31
ATOM     31  S   UNL     1       2.482  -0.007   1.155  0.00  0.00    -0.085 S 
BRANCH  31  32
ATOM     32  C   UNL     1       0.742  -0.511   1.242  0.00  0.00    +0.051 C 
ATOM     33  C   UNL     1       0.655  -2.037   1.299  0.00  0.00    +0.019 C 
BRANCH  32  35
ATOM     34  C   UNL     1      -0.019   1.526   0.010  0.00  0.00    +0.005 C 
ATOM     35  C   UNL     1       0.002  -0.004   0.002  0.00  0.00    +0.011 C 
ENDBRANCH  32  35
ENDBRANCH  31  32
ENDBRANCH   1  31
TORSDOF 7
