REMARK  Name = ZINC38604238
REMARK  12 active torsions:
REMARK  status: ('A' for Active; 'I' for Inactive)
REMARK    1  A    between atoms: C_1  and  C_2
REMARK    2  A    between atoms: C_2  and  O_3
REMARK    3  A    between atoms: O_3  and  C_4
REMARK    4  A    between atoms: C_4  and  C_6
REMARK    5  A    between atoms: C_8  and  N_18
REMARK    6  A    between atoms: C_11  and  O_16
REMARK    7  A    between atoms: O_16  and  C_17
REMARK    8  A    between atoms: C_19  and  C_21
REMARK    9  A    between atoms: C_21  and  C_23
REMARK   10  A    between atoms: C_21  and  N_24
REMARK   11  A    between atoms: C_27  and  C_30
REMARK   12  A    between atoms: C_30  and  C_31
REMARK                            x       y       z     vdW  Elec       q    Type
REMARK                         _______ _______ _______ _____ _____    ______ ____
ROOT
ATOM      1  N   UNL     1      -3.411  -1.568  -2.567  0.00  0.00    -0.288 N 
ATOM      2  C   UNL     1      -4.358  -1.596  -3.525  0.00  0.00    +0.203 C 
ATOM      3  O   UNL     1      -5.178  -2.490  -3.542  0.00  0.00    -0.277 OA
ATOM      4  H   UNL     1      -2.769  -0.842  -2.540  0.00  0.00    +0.155 HD
ENDROOT
BRANCH   1   6
ATOM      5  C   UNL     1      -4.309  -3.726  -1.482  0.00  0.00    +0.234 C 
ATOM      6  C   UNL     1      -3.356  -2.561  -1.633  0.00  0.00    +0.053 C 
ATOM      7  C   UNL     1      -2.416  -2.713  -0.630  0.00  0.00    +0.021 A 
ATOM      8  C   UNL     1      -1.282  -1.948  -0.261  0.00  0.00    +0.057 A 
ATOM      9  C   UNL     1      -0.518  -2.342   0.792  0.00  0.00    +0.121 A 
ATOM     10  C   UNL     1      -0.826  -3.493   1.530  0.00  0.00    +0.047 A 
ATOM     11  C   UNL     1      -1.895  -4.270   1.231  0.00  0.00    +0.029 A 
ATOM     12  C   UNL     1      -2.739  -3.923   0.144  0.00  0.00    +0.045 A 
ATOM     13  N   UNL     1      -3.820  -4.505  -0.341  0.00  0.00    -0.367 N 
ATOM     14  H   UNL     1      -4.225  -5.317   0.003  0.00  0.00    +0.161 HD
BRANCH   5  15
ATOM     15  C   UNL     1      -5.703  -3.223  -1.208  0.00  0.00    +0.336 C 
ATOM     16  O   UNL     1      -5.982  -2.779  -0.120  0.00  0.00    -0.248 OA
BRANCH  15  17
ATOM     17  O   UNL     1      -6.635  -3.270  -2.174  0.00  0.00    -0.463 OA
BRANCH  17  19
ATOM     18  C   UNL     1      -8.854  -2.910  -3.060  0.00  0.00    +0.048 C 
ATOM     19  C   UNL     1      -7.935  -2.777  -1.844  0.00  0.00    +0.229 C 
ENDBRANCH  17  19
ENDBRANCH  15  17
ENDBRANCH   5  15
BRANCH   9  20
ATOM     20  O   UNL     1       0.568  -1.601   1.139  0.00  0.00    -0.495 OA
ATOM     21  C   UNL     1       1.336  -2.058   2.254  0.00  0.00    +0.277 C 
ENDBRANCH   9  20
ENDBRANCH   1   6
BRANCH   2  22
ATOM     22  C   UNL     1      -4.398  -0.518  -4.577  0.00  0.00    +0.016 C 
ATOM     23  C   UNL     1      -5.255   0.648  -4.080  0.00  0.00    -0.004 C 
BRANCH  22  24
ATOM     24  N   UNL     1      -4.978  -1.060  -5.813  0.00  0.00    +0.387 N 
ATOM     25  C   UNL     1      -5.008  -0.011  -6.839  0.00  0.00    -0.078 C 
ATOM     26  C   UNL     1      -5.685  -0.547  -8.102  0.00  0.00    -0.015 C 
ATOM     27  C   UNL     1      -4.898  -1.752  -8.625  0.00  0.00    -0.010 C 
ATOM     28  C   UNL     1      -4.809  -2.809  -7.521  0.00  0.00    -0.015 C 
ATOM     29  C   UNL     1      -4.164  -2.190  -6.279  0.00  0.00    -0.078 C 
ATOM     30  H   UNL     1      -5.918  -1.377  -5.631  0.00  0.00    -0.081 HD
BRANCH  27  31
ATOM     31  C   UNL     1      -5.613  -2.342  -9.842  0.00  0.00    +0.038 C 
BRANCH  31  32
ATOM     32  C   UNL     1      -4.776  -3.449 -10.429  0.00  0.00    -0.047 A 
ATOM     33  C   UNL     1      -3.837  -3.164 -11.402  0.00  0.00    +0.003 A 
ATOM     34  C   UNL     1      -3.069  -4.179 -11.941  0.00  0.00    +0.000 A 
ATOM     35  C   UNL     1      -3.240  -5.480 -11.505  0.00  0.00    +0.000 A 
ATOM     36  C   UNL     1      -4.179  -5.765 -10.531  0.00  0.00    +0.000 A 
ATOM     37  C   UNL     1      -4.943  -4.749  -9.990  0.00  0.00    +0.003 A 
ENDBRANCH  31  32
ENDBRANCH  27  31
ENDBRANCH  22  24
ENDBRANCH   2  22
TORSDOF 9
