REMARK  Name = ZINC62826733
REMARK  3 active torsions:
REMARK  status: ('A' for Active; 'I' for Inactive)
REMARK    1  A    between atoms: C_3  and  C_9
REMARK    2  A    between atoms: C_4  and  N_8
REMARK    3  A    between atoms: C_11  and  C_14
REMARK                            x       y       z     vdW  Elec       q    Type
REMARK                         _______ _______ _______ _____ _____    ______ ____
ROOT
ATOM      1  C   UNL     1       3.684   2.120  -0.041  0.00  0.00    +0.261 A 
ATOM      2  N   UNL     1       3.829   3.422  -0.143  0.00  0.00    -0.187 NA
ATOM      3  C   UNL     1       5.133   3.739  -0.126  0.00  0.00    +0.202 A 
ATOM      4  N   UNL     1       5.835   2.638  -0.013  0.00  0.00    -0.056 NA
ATOM      5  O   UNL     1       4.906   1.567   0.049  0.00  0.00    -0.332 OA
ENDROOT
BRANCH   1   8
ATOM      6  C   UNL     1       0.215   1.002  -0.941  0.00  0.00    +0.002 A 
ATOM      7  C   UNL     1       1.412   1.687  -0.963  0.00  0.00    +0.015 A 
ATOM      8  C   UNL     1       2.401   1.391  -0.022  0.00  0.00    +0.061 A 
ATOM      9  C   UNL     1       2.168   0.397   0.939  0.00  0.00    +0.051 A 
ATOM     10  C   UNL     1       0.957  -0.283   0.946  0.00  0.00    +0.039 A 
ATOM     11  C   UNL     1      -0.012   0.021   0.010  0.00  0.00    +0.017 A 
ATOM     12 BR   UNL     1       0.633  -1.625   2.239  0.00  0.00    -0.048 Br
BRANCH   9  13
ATOM     13  N   UNL     1       3.146   0.093   1.881  0.00  0.00    -0.357 N 
ATOM     14  H   UNL     1       3.951   0.630   1.935  0.00  0.00    +0.142 HD
ATOM     15  H   UNL     1       3.022  -0.657   2.484  0.00  0.00    +0.142 HD
ENDBRANCH   9  13
ENDBRANCH   1   8
BRANCH   3  16
ATOM     16  C   UNL     1       5.688   5.112  -0.220  0.00  0.00    +0.023 A 
ATOM     17  C   UNL     1       4.832   6.206  -0.332  0.00  0.00    +0.014 A 
ATOM     18  C   UNL     1       5.353   7.481  -0.420  0.00  0.00    +0.039 A 
ATOM     19  C   UNL     1       6.724   7.674  -0.397  0.00  0.00    +0.123 A 
ATOM     20  C   UNL     1       7.579   6.589  -0.286  0.00  0.00    +0.039 A 
ATOM     21  C   UNL     1       7.067   5.311  -0.192  0.00  0.00    +0.014 A 
ATOM     22  F   UNL     1       7.230   8.924  -0.484  0.00  0.00    -0.205 F 
ENDBRANCH   3  16
TORSDOF 3
