REMARK  Name = ZINC27250789
REMARK  9 active torsions:
REMARK  status: ('A' for Active; 'I' for Inactive)
REMARK    1  A    between atoms: C_1  and  S_2
REMARK    2  A    between atoms: S_2  and  N_5
REMARK    3  A    between atoms: N_5  and  C_6
REMARK    4  A    between atoms: C_9  and  C_12
REMARK    5  A    between atoms: C_13  and  C_14
REMARK    6  A    between atoms: N_16  and  N_17
REMARK    7  A    between atoms: N_17  and  C_18
REMARK    8  A    between atoms: C_18  and  N_20
REMARK    9  A    between atoms: N_20  and  C_21
REMARK                            x       y       z     vdW  Elec       q    Type
REMARK                         _______ _______ _______ _____ _____    ______ ____
ROOT
ATOM      1  C   UNL     1       2.839   3.028   5.089  0.00  0.00    +0.253 C 
ATOM      2  O   UNL     1       2.456   3.073   6.244  0.00  0.00    -0.269 OA
ATOM      3  N   UNL     1       1.996   2.636   4.114  0.00  0.00    -0.232 N 
ATOM      4  H   UNL     1       2.342   2.595   3.070  0.00  0.00    +0.173 HD
ENDROOT
BRANCH   1   6
ATOM      5  C   UNL     1       5.059   3.794   5.737  0.00  0.00    +0.013 C 
ATOM      6  C   UNL     1       4.214   3.401   4.760  0.00  0.00    +0.069 C 
BRANCH   5  10
ATOM      7  C   UNL     1       9.044   4.872   4.784  0.00  0.00    +0.048 A 
ATOM      8  C   UNL     1       8.608   4.924   6.106  0.00  0.00    +0.025 A 
ATOM      9  C   UNL     1       7.319   4.576   6.418  0.00  0.00    +0.010 A 
ATOM     10  C   UNL     1       6.441   4.168   5.407  0.00  0.00    -0.025 A 
ATOM     11  C   UNL     1       6.886   4.112   4.080  0.00  0.00    +0.010 A 
ATOM     12  C   UNL     1       8.175   4.466   3.775  0.00  0.00    +0.025 A 
BRANCH   7  13
ATOM     13  N   UNL     1      10.353   5.225   4.472  0.00  0.00    -0.221 N 
ATOM     14  H   UNL     1      10.791   6.141   4.893  0.00  0.00    +0.173 HD
BRANCH  13  16
ATOM     15  C   UNL     1      11.357   2.667   4.316  0.00  0.00    +0.218 C 
ATOM     16  S   UNL     1      11.251   4.265   3.465  0.00  0.00    +0.040 S 
ATOM     17  O   UNL     1      10.466   4.141   2.287  0.00  0.00    -0.155 OA
ATOM     18  O   UNL     1      12.530   4.882   3.421  0.00  0.00    -0.155 OA
ENDBRANCH  13  16
ENDBRANCH   7  13
ENDBRANCH   5  10
ENDBRANCH   1   6
BRANCH   3  19
ATOM     19  N   UNL     1       0.678   2.279   4.429  0.00  0.00    -0.246 N 
ATOM     20  H   UNL     1       0.332   2.319   5.472  0.00  0.00    +0.172 HD
BRANCH  19  21
ATOM     21  C   UNL     1      -0.165   1.886   3.454  0.00  0.00    +0.147 C 
ATOM     22  S   UNL     1      -1.775   1.450   3.839  0.00  0.00    -0.017 S 
BRANCH  21  23
ATOM     23  N   UNL     1       0.259   1.837   2.175  0.00  0.00    -0.323 N 
ATOM     24  H   UNL     1       1.293   2.117   1.928  0.00  0.00    +0.148 HD
BRANCH  23  25
ATOM     25  C   UNL     1      -0.658   1.410   1.115  0.00  0.00    +0.072 C 
ATOM     26  C   UNL     1       0.129   0.839  -0.082  0.00  0.00    +0.022 C 
ATOM     27  C   UNL     1      -0.607   1.298  -1.353  0.00  0.00    +0.002 C 
ATOM     28  C   UNL     1      -1.817   2.132  -0.884  0.00  0.00    +0.002 C 
ATOM     29  C   UNL     1      -1.412   2.629   0.526  0.00  0.00    +0.022 C 
ENDBRANCH  23  25
ENDBRANCH  21  23
ENDBRANCH  19  21
ENDBRANCH   3  19
TORSDOF 8
