REMARK  Name = ZINC59563980
REMARK  9 active torsions:
REMARK  status: ('A' for Active; 'I' for Inactive)
REMARK    1  A    between atoms: C_1  and  C_2
REMARK    2  A    between atoms: N_13  and  C_14
REMARK    3  A    between atoms: C_17  and  S_20
REMARK    4  A    between atoms: S_20  and  N_23
REMARK    5  A    between atoms: N_23  and  C_24
REMARK    6  A    between atoms: C_27  and  C_31
REMARK    7  A    between atoms: C_29  and  C_30
REMARK    8  A    between atoms: C_32  and  C_34
REMARK    9  A    between atoms: C_32  and  C_35
REMARK                            x       y       z     vdW  Elec       q    Type
REMARK                         _______ _______ _______ _____ _____    ______ ____
ROOT
ATOM      1  C   UNL     1      -0.538  -0.297   5.026  0.00  0.00    +0.065 A 
ATOM      2  C   UNL     1      -1.373  -0.921   5.957  0.00  0.00    +0.030 A 
ATOM      3  C   UNL     1      -1.560  -0.354   7.200  0.00  0.00    +0.031 A 
ATOM      4  C   UNL     1      -0.923   0.831   7.526  0.00  0.00    +0.109 A 
ATOM      5  C   UNL     1      -0.094   1.455   6.610  0.00  0.00    +0.031 A 
ATOM      6  C   UNL     1       0.106   0.897   5.365  0.00  0.00    +0.030 A 
ENDROOT
BRANCH   1  19
ATOM      7  C   UNL     1      -0.018   1.503   0.010  0.00  0.00    +0.044 C 
ATOM      8  C   UNL     1       0.002  -0.004   0.002  0.00  0.00    -0.050 A 
ATOM      9  C   UNL     1       0.006  -0.687  -1.201  0.00  0.00    +0.005 A 
ATOM     10  C   UNL     1       0.017  -2.071  -1.229  0.00  0.00    +0.024 A 
ATOM     11  C   UNL     1       0.028  -2.780  -0.038  0.00  0.00    +0.036 A 
ATOM     12  C   UNL     1       0.037  -2.086   1.173  0.00  0.00    +0.007 A 
ATOM     13  C   UNL     1       0.023  -0.701   1.198  0.00  0.00    +0.013 A 
ATOM     14  C   UNL     1       0.091  -2.870   2.466  0.00  0.00    +0.029 A 
ATOM     15  C   UNL     1       0.377  -4.206   2.361  0.00  0.00    +0.030 A 
ATOM     16  S   UNL     1       0.372  -4.995   3.846  0.00  0.00    -0.052 S 
ATOM     17  S   UNL     1      -0.035  -3.330   5.026  0.00  0.00    -0.032 S 
ATOM     18  C   UNL     1      -0.123  -2.157   3.681  0.00  0.00    +0.117 A 
ATOM     19  N   UNL     1      -0.348  -0.852   3.794  0.00  0.00    -0.240 NA
ATOM     20  C   UNL     1       0.684  -4.901   1.050  0.00  0.00    +0.059 C 
ATOM     21  N   UNL     1       0.018  -4.178  -0.039  0.00  0.00    -0.334 N 
ATOM     22  C   UNL     1       2.196  -4.904   0.814  0.00  0.00    +0.037 C 
ATOM     23  C   UNL     1       0.169  -6.341   1.101  0.00  0.00    +0.037 C 
ATOM     24  H   UNL     1      -0.426  -4.665  -0.752  0.00  0.00    +0.147 HD
ENDBRANCH   1  19
BRANCH   4  25
ATOM     25  S   UNL     1      -1.168   1.549   9.117  0.00  0.00    +0.072 S 
ATOM     26  O   UNL     1      -0.894   2.937   8.983  0.00  0.00    -0.150 OA
ATOM     27  O   UNL     1      -2.414   1.061   9.595  0.00  0.00    -0.150 OA
BRANCH  25  28
ATOM     28  N   UNL     1      -0.003   0.931  10.118  0.00  0.00    -0.213 N 
ATOM     29  H   UNL     1      -0.255   0.369  10.867  0.00  0.00    +0.174 HD
BRANCH  28  30
ATOM     30  C   UNL     1       1.345   1.219   9.883  0.00  0.00    +0.087 A 
ATOM     31  C   UNL     1       1.734   2.462   9.390  0.00  0.00    +0.139 A 
ATOM     32  N   UNL     1       3.019   2.696   9.182  0.00  0.00    -0.239 NA
ATOM     33  C   UNL     1       3.924   1.772   9.434  0.00  0.00    +0.126 A 
ATOM     34  N   UNL     1       3.596   0.584   9.901  0.00  0.00    -0.236 NA
ATOM     35  C   UNL     1       2.333   0.274  10.142  0.00  0.00    +0.064 A 
ATOM     36  C   UNL     1       1.969  -1.085  10.682  0.00  0.00    +0.068 C 
ATOM     37  C   UNL     1       5.377   2.083   9.182  0.00  0.00    +0.088 C 
ENDBRANCH  28  30
ENDBRANCH  25  28
ENDBRANCH   4  25
TORSDOF 4
