REMARK  Name = ZINC17246355
REMARK  7 active torsions:
REMARK  status: ('A' for Active; 'I' for Inactive)
REMARK    1  A    between atoms: C_1  and  C_2
REMARK    2  A    between atoms: C_2  and  C_3
REMARK    3  A    between atoms: N_10  and  N_13
REMARK    4  A    between atoms: C_14  and  C_16
REMARK    5  A    between atoms: C_16  and  C_17
REMARK    6  A    between atoms: C_17  and  N_18
REMARK    7  A    between atoms: C_26  and  C_30
REMARK                            x       y       z     vdW  Elec       q    Type
REMARK                         _______ _______ _______ _____ _____    ______ ____
ROOT
ATOM      1  N   UNL     1       2.596   7.434  -3.458  0.00  0.00    -0.219 N 
ATOM      2  C   UNL     1       2.368   7.081  -2.177  0.00  0.00    +0.233 C 
ATOM      3  O   UNL     1       3.152   7.404  -1.310  0.00  0.00    -0.274 OA
ATOM      4  H   UNL     1       1.969   7.176  -4.151  0.00  0.00    +0.176 HD
ENDROOT
BRANCH   1  12
ATOM      5  C   UNL     1       6.135  12.135  -5.033  0.00  0.00    -0.008 A 
ATOM      6  C   UNL     1       4.920  11.638  -4.749  0.00  0.00    +0.026 A 
ATOM      7  C   UNL     1       4.790  10.234  -4.408  0.00  0.00    +0.074 A 
ATOM      8  C   UNL     1       5.995   9.508  -4.409  0.00  0.00    +0.115 A 
ATOM      9  S   UNL     1       7.209  10.722  -4.858  0.00  0.00    -0.073 S 
ATOM     10  N   UNL     1       6.035   8.211  -4.117  0.00  0.00    -0.228 NA
ATOM     11  C   UNL     1       4.947   7.556  -3.814  0.00  0.00    +0.223 A 
ATOM     12  N   UNL     1       3.739   8.175  -3.788  0.00  0.00    -0.212 N 
ATOM     13  C   UNL     1       3.615   9.483  -4.077  0.00  0.00    +0.279 A 
ATOM     14  O   UNL     1       2.523  10.022  -4.054  0.00  0.00    -0.265 OA
BRANCH   5  16
ATOM     15  C   UNL     1       6.822  14.345  -4.143  0.00  0.00    +0.009 C 
ATOM     16  C   UNL     1       6.503  13.547  -5.409  0.00  0.00    +0.039 C 
ENDBRANCH   5  16
ENDBRANCH   1  12
BRANCH   2  17
ATOM     17  C   UNL     1       1.139   6.285  -1.823  0.00  0.00    +0.117 C 
BRANCH  17  18
ATOM     18  C   UNL     1       1.121   6.019  -0.316  0.00  0.00    +0.123 C 
BRANCH  18  19
ATOM     19  N   UNL     1      -0.074   5.244   0.029  0.00  0.00    -0.265 N 
ATOM     20  C   UNL     1      -0.041   3.843   0.023  0.00  0.00    +0.078 A 
ATOM     21  C   UNL     1       1.166   3.164   0.008  0.00  0.00    +0.027 A 
ATOM     22  C   UNL     1       1.177   1.781   0.000  0.00  0.00    +0.002 A 
ATOM     23  C   UNL     1      -0.013   1.076   0.008  0.00  0.00    +0.004 A 
ATOM     24  C   UNL     1      -1.221   1.748   0.017  0.00  0.00    +0.047 A 
ATOM     25  C   UNL     1      -1.240   3.132   0.031  0.00  0.00    +0.143 A 
ATOM     26  O   UNL     1      -2.419   3.809   0.048  0.00  0.00    -0.478 OA
ATOM     27  C   UNL     1      -2.434   5.057   0.747  0.00  0.00    +0.256 C 
ATOM     28  C   UNL     1      -1.226   5.870   0.358  0.00  0.00    +0.260 C 
ATOM     29  O   UNL     1      -1.287   7.081   0.341  0.00  0.00    -0.271 OA
ATOM     30  C   UNL     1      -2.408   4.796   2.254  0.00  0.00    +0.062 C 
ENDBRANCH  18  19
ENDBRANCH  17  18
ENDBRANCH   2  17
TORSDOF 5
