REMARK  Name = ZINC63704437
REMARK  3 active torsions:
REMARK  status: ('A' for Active; 'I' for Inactive)
REMARK    1  A    between atoms: C_15  and  C_17
REMARK    2  A    between atoms: N_19  and  C_20
REMARK    3  A    between atoms: C_20  and  C_21
REMARK                            x       y       z     vdW  Elec       q    Type
REMARK                         _______ _______ _______ _____ _____    ______ ____
ROOT
ATOM      1  C   UNL     1      -0.017   1.375   0.010  0.00  0.00    +0.001 A 
ATOM      2  C   UNL     1       1.170   2.094   0.002  0.00  0.00    +0.002 A 
ATOM      3  C   UNL     1       2.388   1.446  -0.013  0.00  0.00    +0.027 A 
ATOM      4  C   UNL     1       2.423   0.058  -0.021  0.00  0.00    +0.062 A 
ATOM      5  C   UNL     1       1.228  -0.667  -0.013  0.00  0.00    +0.065 A 
ATOM      6  C   UNL     1       0.002  -0.004   0.002  0.00  0.00    +0.015 A 
ATOM      7  C   UNL     1       1.322  -2.138  -0.022  0.00  0.00    +0.281 A 
ATOM      8  O   UNL     1       0.324  -2.837  -0.016  0.00  0.00    -0.265 OA
ATOM      9  N   UNL     1       2.549  -2.674  -0.037  0.00  0.00    -0.193 NA
ATOM     10  C   UNL     1       3.662  -1.963  -0.044  0.00  0.00    +0.142 A 
ATOM     11  N   UNL     1       3.661  -0.616  -0.037  0.00  0.00    -0.284 N 
ATOM     12  C   UNL     1       4.829   0.096  -0.045  0.00  0.00    +0.128 C 
ATOM     13  S   UNL     1       5.009   1.799  -0.037  0.00  0.00    -0.025 S 
ATOM     14  S   UNL     1       6.122  -1.125  -0.065  0.00  0.00    -0.079 S 
ATOM     15  C   UNL     1       5.052  -2.615  -0.061  0.00  0.00    +0.205 C 
ENDROOT
BRANCH  15  16
ATOM     16  C   UNL     1       5.254  -3.433  -1.311  0.00  0.00    +0.234 C 
ATOM     17  O   UNL     1       4.769  -3.068  -2.360  0.00  0.00    -0.274 OA
ATOM     18  N   UNL     1       5.975  -4.571  -1.261  0.00  0.00    -0.310 N 
ATOM     19  H   UNL     1       6.363  -4.863  -0.422  0.00  0.00    +0.149 HD
BRANCH  18  20
ATOM     20  C   UNL     1       6.171  -5.367  -2.476  0.00  0.00    +0.139 C 
BRANCH  20  21
ATOM     21  C   UNL     1       7.006  -6.579  -2.152  0.00  0.00    -0.027 A 
ATOM     22  C   UNL     1       8.384  -6.513  -2.243  0.00  0.00    +0.009 A 
ATOM     23  C   UNL     1       9.153  -7.622  -1.947  0.00  0.00    +0.050 A 
ATOM     24  C   UNL     1       8.545  -8.804  -1.558  0.00  0.00    +0.166 A 
ATOM     25  C   UNL     1       7.157  -8.871  -1.466  0.00  0.00    +0.167 A 
ATOM     26  C   UNL     1       6.392  -7.754  -1.759  0.00  0.00    +0.054 A 
ATOM     27  O   UNL     1       6.806 -10.129  -1.068  0.00  0.00    -0.453 OA
ATOM     28  C   UNL     1       7.966 -10.947  -1.312  0.00  0.00    +0.466 C 
ATOM     29  O   UNL     1       9.064 -10.020  -1.217  0.00  0.00    -0.453 OA
ENDBRANCH  20  21
ENDBRANCH  18  20
ENDBRANCH  15  16
TORSDOF 3
