REMARK  Name = ZINC08338260
REMARK  6 active torsions:
REMARK  status: ('A' for Active; 'I' for Inactive)
REMARK    1  A    between atoms: C_1  and  C_2
REMARK    2  A    between atoms: C_2  and  C_4
REMARK    3  A    between atoms: C_2  and  N_9
REMARK    4  A    between atoms: C_10  and  C_12
REMARK    5  A    between atoms: C_12  and  N_13
REMARK    6  A    between atoms: C_14  and  C_16
REMARK                            x       y       z     vdW  Elec       q    Type
REMARK                         _______ _______ _______ _____ _____    ______ ____
ROOT
ATOM      1  C   UNL     1      -3.442  -1.177   1.191  0.00  0.00    +0.200 C 
ENDROOT
BRANCH   1   3
ATOM      2  N   UNL     1      -1.372  -0.511   0.012  0.00  0.00    -0.307 N 
ATOM      3  C   UNL     1      -2.029  -0.655   1.181  0.00  0.00    +0.231 C 
ATOM      4  O   UNL     1      -1.481  -0.365   2.224  0.00  0.00    -0.274 OA
ATOM      5  H   UNL     1      -1.810  -0.743  -0.822  0.00  0.00    +0.149 HD
BRANCH   2   7
ATOM      6  C   UNL     1      -0.019   1.526   0.010  0.00  0.00    +0.033 C 
ATOM      7  C   UNL     1       0.002  -0.004   0.002  0.00  0.00    +0.107 C 
BRANCH   7   8
ATOM      8  C   UNL     1       0.707  -0.490  -1.238  0.00  0.00    +0.010 A 
ATOM      9  C   UNL     1       1.980  -0.934  -1.377  0.00  0.00    +0.013 A 
ATOM     10  C   UNL     1       2.418  -1.335  -2.625  0.00  0.00    +0.008 A 
ATOM     11  C   UNL     1       1.561  -1.273  -3.674  0.00  0.00    +0.045 A 
ATOM     12  S   UNL     1       0.081  -0.638  -2.903  0.00  0.00    -0.100 S 
ENDBRANCH   7   8
ENDBRANCH   2   7
ENDBRANCH   1   3
BRANCH   1  13
ATOM     13  N   UNL     1      -3.929  -1.240   2.572  0.00  0.00    -0.303 N 
ATOM     14  C   UNL     1      -5.177  -1.680   2.827  0.00  0.00    +0.246 C 
ATOM     15  O   UNL     1      -5.899  -2.024   1.911  0.00  0.00    -0.270 OA
ATOM     16  H   UNL     1      -3.353  -0.966   3.302  0.00  0.00    +0.150 HD
BRANCH  14  17
ATOM     17  C   UNL     1      -5.668  -1.744   4.219  0.00  0.00    +0.051 A 
ATOM     18  C   UNL     1      -4.844  -1.344   5.273  0.00  0.00    +0.014 A 
ATOM     19  C   UNL     1      -5.308  -1.406   6.570  0.00  0.00    +0.001 A 
ATOM     20  C   UNL     1      -6.588  -1.864   6.829  0.00  0.00    +0.001 A 
ATOM     21  C   UNL     1      -7.411  -2.262   5.791  0.00  0.00    +0.016 A 
ATOM     22  C   UNL     1      -6.961  -2.199   4.487  0.00  0.00    +0.030 A 
ATOM     23 BR   UNL     1      -8.090  -2.736   3.068  0.00  0.00    -0.050 Br
ENDBRANCH  14  17
ENDBRANCH   1  13
TORSDOF 5
