REMARK  Name = ZINC04200767
REMARK  11 active torsions:
REMARK  status: ('A' for Active; 'I' for Inactive)
REMARK    1  A    between atoms: C_1  and  O_2
REMARK    2  A    between atoms: O_2  and  C_3
REMARK    3  A    between atoms: C_3  and  C_5
REMARK    4  A    between atoms: C_5  and  C_7
REMARK    5  A    between atoms: C_5  and  N_18
REMARK    6  A    between atoms: C_7  and  C_8
REMARK    7  A    between atoms: C_19  and  C_21
REMARK    8  A    between atoms: N_24  and  S_32
REMARK    9  A    between atoms: N_27  and  S_28
REMARK   10  A    between atoms: S_28  and  C_31
REMARK   11  A    between atoms: S_32  and  C_35
REMARK                            x       y       z     vdW  Elec       q    Type
REMARK                         _______ _______ _______ _____ _____    ______ ____
ROOT
ATOM      1  N   UNL     1       7.101   2.966  -3.808  0.00  0.00    -0.301 N 
ATOM      2  C   UNL     1       5.824   3.345  -4.010  0.00  0.00    +0.234 C 
ATOM      3  O   UNL     1       5.250   3.022  -5.028  0.00  0.00    -0.274 OA
ATOM      4  H   UNL     1       7.561   3.224  -2.993  0.00  0.00    +0.150 HD
ENDROOT
BRANCH   2   5
ATOM      5  C   UNL     1       5.109   4.170  -2.971  0.00  0.00    +0.181 C 
ATOM      6  C   UNL     1       4.042   3.318  -2.281  0.00  0.00    +0.139 C 
ATOM      7  N   UNL     1       3.186   4.194  -1.469  0.00  0.00    -0.173 NA
ATOM      8  C   UNL     1       2.530   5.340  -2.115  0.00  0.00    +0.126 C 
ATOM      9  C   UNL     1       3.601   6.194  -2.804  0.00  0.00    +0.127 C 
ATOM     10  N   UNL     1       4.452   5.315  -3.617  0.00  0.00    -0.167 NA
BRANCH  10  11
ATOM     11  S   UNL     1       4.668   5.609  -5.232  0.00  0.00    +0.030 S 
ATOM     12  O   UNL     1       4.356   6.986  -5.395  0.00  0.00    -0.158 OA
ATOM     13  O   UNL     1       5.973   5.124  -5.518  0.00  0.00    -0.158 OA
ATOM     14  C   UNL     1       3.424   4.584  -6.064  0.00  0.00    +0.215 C 
ENDBRANCH  10  11
BRANCH   7  15
ATOM     15  S   UNL     1       2.971   3.901   0.146  0.00  0.00    +0.061 S 
ATOM     16  O   UNL     1       2.613   5.141   0.740  0.00  0.00    -0.153 OA
ATOM     17  O   UNL     1       4.097   3.147   0.576  0.00  0.00    -0.153 OA
BRANCH  15  18
ATOM     18  C   UNL     1       1.570   2.844   0.301  0.00  0.00    +0.105 A 
ATOM     19  C   UNL     1       1.734   1.472   0.283  0.00  0.00    +0.028 A 
ATOM     20  C   UNL     1       0.634   0.643   0.405  0.00  0.00    +0.002 A 
ATOM     21  C   UNL     1      -0.630   1.186   0.540  0.00  0.00    +0.000 A 
ATOM     22  C   UNL     1      -0.793   2.559   0.564  0.00  0.00    +0.002 A 
ATOM     23  C   UNL     1       0.307   3.388   0.442  0.00  0.00    +0.028 A 
ENDBRANCH  15  18
ENDBRANCH   7  15
ENDBRANCH   2   5
BRANCH   1  24
ATOM     24  C   UNL     1       7.796   2.164  -4.817  0.00  0.00    +0.186 C 
BRANCH  24  25
ATOM     25  C   UNL     1       8.384   3.074  -5.865  0.00  0.00    +0.328 C 
ATOM     26  O   UNL     1       8.238   4.270  -5.776  0.00  0.00    -0.249 OA
BRANCH  25  28
ATOM     27  C   UNL     1       9.608   3.493  -7.866  0.00  0.00    +0.280 C 
ATOM     28  O   UNL     1       9.071   2.557  -6.895  0.00  0.00    -0.467 OA
ENDBRANCH  25  28
ENDBRANCH  24  25
BRANCH  24  29
ATOM     29  C   UNL     1       8.917   1.363  -4.151  0.00  0.00    +0.071 C 
BRANCH  29  30
ATOM     30  C   UNL     1       8.319   0.366  -3.191  0.00  0.00    -0.020 A 
ATOM     31  C   UNL     1       8.139   0.536  -1.872  0.00  0.00    +0.087 A 
ATOM     32  N   UNL     1       7.570  -0.584  -1.331  0.00  0.00    -0.360 N 
ATOM     33  H   UNL     1       7.345  -0.697  -0.394  0.00  0.00    +0.165 HD
ATOM     34  C   UNL     1       7.364  -1.526  -2.313  0.00  0.00    +0.047 A 
ATOM     35  C   UNL     1       7.819  -0.970  -3.523  0.00  0.00    +0.003 A 
ATOM     36  C   UNL     1       7.740  -1.711  -4.703  0.00  0.00    +0.010 A 
ATOM     37  C   UNL     1       7.210  -2.971  -4.679  0.00  0.00    +0.001 A 
ATOM     38  C   UNL     1       6.755  -3.521  -3.490  0.00  0.00    +0.002 A 
ATOM     39  C   UNL     1       6.828  -2.809  -2.312  0.00  0.00    +0.026 A 
ENDBRANCH  29  30
ENDBRANCH  24  29
ENDBRANCH   1  24
TORSDOF 9
