REMARK  Name = ZINC13501210
REMARK  8 active torsions:
REMARK  status: ('A' for Active; 'I' for Inactive)
REMARK    1  A    between atoms: C_1  and  C_2
REMARK    2  A    between atoms: C_2  and  C_3
REMARK    3  A    between atoms: C_3  and  C_5
REMARK    4  A    between atoms: C_3  and  N_72
REMARK    5  A    between atoms: N_9  and  C_10
REMARK    6  A    between atoms: C_16  and  C_17
REMARK    7  A    between atoms: C_16  and  N_72
REMARK    8  A    between atoms: C_32  and  N_72
REMARK                            x       y       z     vdW  Elec       q    Type
REMARK                         _______ _______ _______ _____ _____    ______ ____
ROOT
ATOM      1  N   UNL     1       0.513  -1.953  -1.445  0.00  0.00    +0.391 N 
ATOM      2  H   UNL     1      -0.512  -1.984  -1.401  0.00  0.00    -0.080 HD
ENDROOT
BRANCH   1   3
ATOM      3  C   UNL     1       0.954  -0.543  -1.401  0.00  0.00    -0.067 C 
ATOM      4  C   UNL     1       2.466  -0.447  -1.619  0.00  0.00    -0.015 C 
ATOM      5  C   UNL     1       2.895   1.021  -1.572  0.00  0.00    -0.002 C 
ATOM      6  C   UNL     1       2.170   1.800  -2.671  0.00  0.00    -0.000 C 
ATOM      7  C   UNL     1       0.659   1.704  -2.452  0.00  0.00    -0.002 C 
ATOM      8  C   UNL     1       0.229   0.236  -2.499  0.00  0.00    -0.015 C 
ENDBRANCH   1   3
BRANCH   1   9
ATOM      9  C   UNL     1       0.959  -2.582  -2.706  0.00  0.00    +0.003 C 
BRANCH   9  10
ATOM     10  C   UNL     1       2.435  -2.882  -2.654  0.00  0.00    +0.138 A 
ATOM     11  N   UNL     1       3.093  -3.396  -1.645  0.00  0.00    -0.115 NA
ATOM     12  N   UNL     1       4.331  -3.500  -1.988  0.00  0.00    -0.023 NA
ATOM     13  N   UNL     1       4.480  -3.058  -3.188  0.00  0.00    -0.044 NA
ATOM     14  N   UNL     1       3.333  -2.668  -3.633  0.00  0.00    -0.228 N 
BRANCH  14  15
ATOM     15  C   UNL     1       3.061  -2.099  -4.955  0.00  0.00    +0.111 C 
ATOM     16  C   UNL     1       3.448  -3.111  -6.035  0.00  0.00    +0.027 C 
ATOM     17  C   UNL     1       3.163  -2.516  -7.416  0.00  0.00    +0.002 C 
ATOM     18  C   UNL     1       3.982  -1.236  -7.599  0.00  0.00    +0.000 C 
ATOM     19  C   UNL     1       3.595  -0.225  -6.519  0.00  0.00    +0.002 C 
ATOM     20  C   UNL     1       3.879  -0.819  -5.138  0.00  0.00    +0.027 C 
ENDBRANCH  14  15
ENDBRANCH   9  10
BRANCH   9  22
ATOM     21  C   UNL     1      -1.304  -3.567  -3.097  0.00  0.00    +0.002 C 
ATOM     22  C   UNL     1       0.181  -3.885  -2.907  0.00  0.00    -0.011 C 
ENDBRANCH   9  22
ENDBRANCH   1   9
BRANCH   1  23
ATOM     23  C   UNL     1       1.065  -2.692  -0.290  0.00  0.00    -0.036 C 
BRANCH  23  24
ATOM     24  C   UNL     1       0.242  -2.365   0.929  0.00  0.00    +0.001 A 
ATOM     25  C   UNL     1      -0.799  -3.164   1.276  0.00  0.00    +0.017 A 
ATOM     26  C   UNL     1      -1.575  -2.824   2.468  0.00  0.00    +0.002 A 
ATOM     27  C   UNL     1      -2.657  -3.614   2.876  0.00  0.00    +0.059 A 
ATOM     28  C   UNL     1      -3.371  -3.267   4.001  0.00  0.00    +0.167 A 
ATOM     29  C   UNL     1      -3.019  -2.127   4.736  0.00  0.00    +0.168 A 
ATOM     30  C   UNL     1      -1.954  -1.340   4.340  0.00  0.00    +0.075 A 
ATOM     31  C   UNL     1      -1.224  -1.677   3.207  0.00  0.00    +0.053 A 
ATOM     32  N   UNL     1      -0.157  -0.903   2.797  0.00  0.00    -0.322 N 
ATOM     33  H   UNL     1       0.084  -0.114   3.306  0.00  0.00    +0.169 HD
ATOM     34  C   UNL     1       0.552  -1.228   1.702  0.00  0.00    +0.251 A 
ATOM     35  O   UNL     1       1.488  -0.521   1.369  0.00  0.00    -0.268 OA
ATOM     36  O   UNL     1      -3.876  -2.012   5.792  0.00  0.00    -0.453 OA
ATOM     37  C   UNL     1      -4.492  -3.306   5.932  0.00  0.00    +0.466 C 
ATOM     38  O   UNL     1      -4.447  -3.856   4.602  0.00  0.00    -0.453 OA
ENDBRANCH  23  24
ENDBRANCH   1  23
TORSDOF 7
