REMARK  Name = ZINC13465122
REMARK  7 active torsions:
REMARK  status: ('A' for Active; 'I' for Inactive)
REMARK    1  A    between atoms: C_1  and  C_2
REMARK    2  A    between atoms: C_4  and  S_12
REMARK    3  A    between atoms: C_6  and  N_9
REMARK    4  A    between atoms: C_7  and  C_8
REMARK    5  A    between atoms: S_12  and  N_15
REMARK    6  A    between atoms: N_15  and  C_16
REMARK    7  A    between atoms: C_21  and  C_22
REMARK                            x       y       z     vdW  Elec       q    Type
REMARK                         _______ _______ _______ _____ _____    ______ ____
ROOT
ATOM      1  N   UNL     1      -0.497   1.300  -1.011  0.00  0.00    -0.215 N 
ATOM      2  H   UNL     1      -0.755   0.512  -1.515  0.00  0.00    +0.174 HD
ENDROOT
BRANCH   1   3
ATOM      3  C   UNL     1      -0.963   2.553  -1.390  0.00  0.00    +0.066 A 
ATOM      4  C   UNL     1      -0.148   3.668  -1.256  0.00  0.00    +0.074 A 
ATOM      5  C   UNL     1      -0.616   4.914  -1.640  0.00  0.00    +0.164 A 
ATOM      6  C   UNL     1      -1.904   5.058  -2.150  0.00  0.00    +0.163 A 
ATOM      7  C   UNL     1      -2.727   3.961  -2.284  0.00  0.00    +0.066 A 
ATOM      8  C   UNL     1      -2.263   2.694  -1.904  0.00  0.00    +0.089 A 
ATOM      9  O   UNL     1      -2.349   6.296  -2.516  0.00  0.00    -0.488 OA
ATOM     10  C   UNL     1      -1.718   6.873  -3.661  0.00  0.00    +0.232 C 
ATOM     11  C   UNL     1      -0.428   7.576  -3.269  0.00  0.00    +0.082 C 
ATOM     12  C   UNL     1       0.619   6.610  -2.738  0.00  0.00    +0.232 C 
ATOM     13  O   UNL     1       0.184   6.011  -1.516  0.00  0.00    -0.488 OA
BRANCH   8  14
ATOM     14  C   UNL     1      -3.133   1.518  -2.043  0.00  0.00    +0.388 C 
ATOM     15  O   UNL     1      -2.729   0.420  -1.713  0.00  0.00    -0.241 OA
ATOM     16  O   UNL     1      -4.380   1.656  -2.537  0.00  0.00    -0.241 OA
ENDBRANCH   8  14
ENDBRANCH   1   3
BRANCH   1  17
ATOM     17  S   UNL     1       0.501   1.150   0.303  0.00  0.00    +0.072 S 
ATOM     18  O   UNL     1       0.733  -0.240   0.480  0.00  0.00    -0.150 OA
ATOM     19  O   UNL     1       1.558   2.082   0.118  0.00  0.00    -0.150 OA
BRANCH  17  23
ATOM     20  C   UNL     1      -1.037   4.895   3.609  0.00  0.00    +0.044 C 
ATOM     21  C   UNL     1      -1.081   3.446   3.196  0.00  0.00    -0.044 A 
ATOM     22  C   UNL     1      -0.364   3.020   2.094  0.00  0.00    +0.032 A 
ATOM     23  C   UNL     1      -0.408   1.692   1.712  0.00  0.00    +0.111 A 
ATOM     24  C   UNL     1      -1.161   0.789   2.438  0.00  0.00    +0.061 A 
ATOM     25  C   UNL     1      -1.874   1.214   3.543  0.00  0.00    +0.131 A 
ATOM     26  C   UNL     1      -1.834   2.543   3.922  0.00  0.00    -0.017 A 
ATOM     27  C   UNL     1      -2.611   3.007   5.127  0.00  0.00    +0.046 C 
BRANCH  25  28
ATOM     28  N   UNL     1      -2.681   0.247   4.321  0.00  0.00    +0.057 N 
ATOM     29  O   UNL     1      -2.738   0.338   5.534  0.00  0.00    -0.126 OA
ATOM     30  O   UNL     1      -3.287  -0.641   3.748  0.00  0.00    -0.126 OA
ENDBRANCH  25  28
ENDBRANCH  17  23
ENDBRANCH   1  17
TORSDOF 5
