REMARK  Name = ZINC15999014
REMARK  3 active torsions:
REMARK  status: ('A' for Active; 'I' for Inactive)
REMARK    1  A    between atoms: C_4  and  N_7
REMARK    2  A    between atoms: C_23  and  C_29
REMARK    3  A    between atoms: N_31  and  C_32
REMARK                            x       y       z     vdW  Elec       q    Type
REMARK                         _______ _______ _______ _____ _____    ______ ____
ROOT
ATOM      1  N   UNL     1       2.479   0.838  -3.496  0.00  0.00    -0.210 N 
ATOM      2  C   UNL     1       3.514   1.686  -3.218  0.00  0.00    +0.232 C 
ATOM      3  O   UNL     1       4.323   2.136  -4.000  0.00  0.00    -0.274 OA
ATOM      4  C   UNL     1       3.436   1.932  -1.799  0.00  0.00    +0.113 C 
ATOM      5  C   UNL     1       4.274   2.409  -0.685  0.00  0.00    +0.100 C 
ATOM      6  C   UNL     1       4.330   3.919  -0.589  0.00  0.00    -0.021 A 
ATOM      7  C   UNL     1       4.423   4.685  -1.730  0.00  0.00    +0.006 A 
ATOM      8  C   UNL     1       4.489   6.065  -1.635  0.00  0.00    +0.000 A 
ATOM      9  C   UNL     1       4.465   6.679  -0.395  0.00  0.00    +0.001 A 
ATOM     10  C   UNL     1       4.368   5.923   0.754  0.00  0.00    +0.008 A 
ATOM     11  C   UNL     1       4.290   4.530   0.666  0.00  0.00    -0.019 A 
ATOM     12  C   UNL     1       4.140   3.726   1.895  0.00  0.00    +0.022 C 
ATOM     13  C   UNL     1       3.758   2.439   1.795  0.00  0.00    +0.054 C 
ATOM     14  N   UNL     1       3.511   1.959   0.527  0.00  0.00    -0.383 NA
ATOM     15  C   UNL     1       2.460   1.002   0.105  0.00  0.00    +0.156 C 
ATOM     16  C   UNL     1       2.926   0.535  -1.272  0.00  0.00    +0.118 C 
ATOM     17  C   UNL     1       1.941   0.282  -2.370  0.00  0.00    +0.232 C 
ATOM     18  O   UNL     1       0.881  -0.298  -2.278  0.00  0.00    -0.274 OA
ATOM     19  H   UNL     1       3.634   2.037   1.617  0.00  0.00    +0.127 HD
ENDROOT
BRANCH   1  23
ATOM     20  C   UNL     1       1.136   0.000  -7.353  0.00  0.00    +0.000 A 
ATOM     21  C   UNL     1       0.534  -0.607  -6.265  0.00  0.00    +0.002 A 
ATOM     22  C   UNL     1       0.977  -0.331  -4.986  0.00  0.00    +0.024 A 
ATOM     23  C   UNL     1       2.027   0.556  -4.793  0.00  0.00    +0.044 A 
ATOM     24  C   UNL     1       2.625   1.169  -5.886  0.00  0.00    +0.024 A 
ATOM     25  C   UNL     1       2.182   0.885  -7.163  0.00  0.00    +0.002 A 
ENDBRANCH   1  23
BRANCH  15  26
ATOM     26  C   UNL     1       1.124   1.692   0.005  0.00  0.00    +0.237 C 
ATOM     27  O   UNL     1       1.071   2.901  -0.076  0.00  0.00    -0.273 OA
ATOM     28  N   UNL     1      -0.011   0.966   0.007  0.00  0.00    -0.284 N 
ATOM     29  H   UNL     1       0.039  -0.133   0.010  0.00  0.00    +0.155 HD
BRANCH  28  30
ATOM     30  C   UNL     1      -1.255   1.611   0.006  0.00  0.00    +0.037 A 
ATOM     31  C   UNL     1      -1.419   2.802  -0.687  0.00  0.00    +0.027 A 
ATOM     32  C   UNL     1      -2.645   3.439  -0.689  0.00  0.00    +0.051 A 
ATOM     33  C   UNL     1      -3.715   2.890   0.000  0.00  0.00    +0.166 A 
ATOM     34  C   UNL     1      -3.553   1.695   0.697  0.00  0.00    +0.168 A 
ATOM     35  C   UNL     1      -2.325   1.055   0.694  0.00  0.00    +0.072 A 
ATOM     36  O   UNL     1      -4.741   1.369   1.285  0.00  0.00    -0.453 OA
ATOM     37  C   UNL     1      -5.518   2.582   1.281  0.00  0.00    +0.466 C 
ATOM     38  O   UNL     1      -5.005   3.313   0.152  0.00  0.00    -0.453 OA
ENDBRANCH  28  30
ENDBRANCH  15  26
TORSDOF 3
