REMARK  Name = ZINC08854869
REMARK  8 active torsions:
REMARK  status: ('A' for Active; 'I' for Inactive)
REMARK    1  A    between atoms: C_1  and  C_2
REMARK    2  A    between atoms: C_2  and  C_3
REMARK    3  A    between atoms: C_3  and  O_4
REMARK    4  A    between atoms: O_4  and  C_5
REMARK    5  A    between atoms: C_10  and  C_11
REMARK    6  A    between atoms: C_14  and  C_25
REMARK    7  A    between atoms: C_20  and  N_24
REMARK    8  A    between atoms: C_21  and  C_22
REMARK                            x       y       z     vdW  Elec       q    Type
REMARK                         _______ _______ _______ _____ _____    ______ ____
ROOT
ATOM      1  C   UNL     1       0.660  -4.780   1.200  0.00  0.00    +0.105 C 
ATOM      2  C   UNL     1      -0.335  -5.751   1.782  0.00  0.00    +0.054 A 
ATOM      3  C   UNL     1      -1.621  -5.510   2.275  0.00  0.00    +0.100 A 
ATOM      4  N   UNL     1      -2.122  -6.661   2.683  0.00  0.00    -0.171 NA
ATOM      5  N   UNL     1      -1.165  -7.663   2.458  0.00  0.00    -0.246 N 
ATOM      6  H   UNL     1      -1.268  -8.606   2.664  0.00  0.00    +0.192 HD
ATOM      7  C   UNL     1      -0.079  -7.086   1.905  0.00  0.00    +0.223 A 
ATOM      8  O   UNL     1       1.093  -7.646   1.511  0.00  0.00    -0.423 OA
ATOM      9  C   UNL     1       1.911  -6.904   0.737  0.00  0.00    +0.200 C 
ATOM     10  C   UNL     1       1.766  -5.573   0.547  0.00  0.00    +0.098 C 
ENDROOT
BRANCH   3  11
ATOM     11  C   UNL     1      -2.303  -4.193   2.330  0.00  0.00    +0.003 A 
ATOM     12  C   UNL     1      -2.215  -3.315   1.252  0.00  0.00    +0.011 A 
ATOM     13  C   UNL     1      -2.851  -2.091   1.308  0.00  0.00    +0.016 A 
ATOM     14  C   UNL     1      -3.574  -1.736   2.433  0.00  0.00    +0.018 A 
ATOM     15  C   UNL     1      -3.663  -2.604   3.507  0.00  0.00    +0.016 A 
ATOM     16  C   UNL     1      -3.036  -3.833   3.458  0.00  0.00    +0.011 A 
ATOM     17 BR   UNL     1      -4.443  -0.057   2.504  0.00  0.00    -0.050 Br
ENDBRANCH   3  11
BRANCH   1  23
ATOM     18  C   UNL     1       1.212  -2.538   2.177  0.00  0.00    +0.125 A 
ATOM     19  C   UNL     1       1.734  -1.748   3.192  0.00  0.00    +0.046 A 
ATOM     20  C   UNL     1       2.276  -2.339   4.316  0.00  0.00    +0.004 A 
ATOM     21  C   UNL     1       2.299  -3.717   4.431  0.00  0.00    +0.001 A 
ATOM     22  C   UNL     1       1.780  -4.506   3.422  0.00  0.00    +0.008 A 
ATOM     23  C   UNL     1       1.231  -3.920   2.298  0.00  0.00    +0.007 A 
BRANCH  18  24
ATOM     24  O   UNL     1       0.677  -1.959   1.070  0.00  0.00    -0.492 OA
BRANCH  24  25
ATOM     25  C   UNL     1       0.789  -0.538   0.963  0.00  0.00    +0.229 C 
BRANCH  25  27
ATOM     26  C   UNL     1       0.063   1.468  -0.337  0.00  0.00    +0.007 C 
ATOM     27  C   UNL     1       0.049  -0.061  -0.288  0.00  0.00    +0.038 C 
ENDBRANCH  25  27
ENDBRANCH  24  25
ENDBRANCH  18  24
ENDBRANCH   1  23
BRANCH   9  28
ATOM     28  N   UNL     1       2.951  -7.537   0.104  0.00  0.00    -0.328 N 
ATOM     29  H   UNL     1       3.081  -8.491   0.220  0.00  0.00    +0.145 HD
ATOM     30  H   UNL     1       3.557  -7.030  -0.459  0.00  0.00    +0.145 HD
ENDBRANCH   9  28
BRANCH  10  31
ATOM     31  C   UNL     1       2.694  -4.890  -0.302  0.00  0.00    +0.101 C 
ATOM     32  N   UNL     1       3.431  -4.348  -0.977  0.00  0.00    -0.191 NA
ENDBRANCH  10  31
TORSDOF 7
