REMARK  Name = ZINC67416353
REMARK  7 active torsions:
REMARK  status: ('A' for Active; 'I' for Inactive)
REMARK    1  A    between atoms: C_1  and  C_2
REMARK    2  A    between atoms: N_10  and  N_14
REMARK    3  A    between atoms: C_15  and  C_17
REMARK    4  A    between atoms: C_17  and  N_18
REMARK    5  A    between atoms: C_22  and  C_25
REMARK    6  A    between atoms: C_25  and  N_26
REMARK    7  A    between atoms: C_27  and  C_29
REMARK                            x       y       z     vdW  Elec       q    Type
REMARK                         _______ _______ _______ _____ _____    ______ ____
ROOT
ATOM      1  N   UNL     1       4.994  -3.352  -0.066  0.00  0.00    -0.225 N 
ATOM      2  C   UNL     1       5.664  -3.692   1.053  0.00  0.00    +0.213 C 
ATOM      3  O   UNL     1       5.056  -3.939   2.073  0.00  0.00    -0.276 OA
ATOM      4  H   UNL     1       5.481  -3.155  -0.881  0.00  0.00    +0.173 HD
ENDROOT
BRANCH   1  14
ATOM      5  C   UNL     1      -0.019   1.526   0.010  0.00  0.00    +0.007 C 
ATOM      6  C   UNL     1       0.002  -0.004   0.002  0.00  0.00    -0.014 C 
ATOM      7  C   UNL     1       0.718  -0.497  -1.257  0.00  0.00    +0.006 C 
ATOM      8  C   UNL     1       0.727  -2.028  -1.271  0.00  0.00    +0.035 C 
ATOM      9  C   UNL     1       1.439  -2.546  -0.026  0.00  0.00    +0.114 C 
ATOM     10  C   UNL     1       0.751  -2.042   1.238  0.00  0.00    +0.035 C 
ATOM     11  C   UNL     1       0.742  -0.511   1.242  0.00  0.00    +0.006 C 
ATOM     12  C   UNL     1       2.892  -2.132  -0.038  0.00  0.00    +0.263 C 
ATOM     13  O   UNL     1       3.334  -1.003  -0.036  0.00  0.00    -0.271 OA
ATOM     14  N   UNL     1       3.595  -3.284  -0.051  0.00  0.00    -0.137 N 
ATOM     15  C   UNL     1       2.789  -4.353  -0.049  0.00  0.00    +0.326 C 
ATOM     16  O   UNL     1       3.189  -5.500  -0.059  0.00  0.00    -0.251 OA
ATOM     17  N   UNL     1       1.486  -4.014  -0.034  0.00  0.00    -0.284 N 
ATOM     18  H   UNL     1       0.728  -4.620  -0.030  0.00  0.00    +0.151 HD
ENDBRANCH   1  14
BRANCH   2  19
ATOM     19  C   UNL     1       7.169  -3.766   1.038  0.00  0.00    +0.020 C 
BRANCH  19  20
ATOM     20  N   UNL     1       7.654  -4.155   2.369  0.00  0.00    +0.386 N 
ATOM     21  C   UNL     1       7.319  -3.103   3.336  0.00  0.00    -0.078 C 
ATOM     22  C   UNL     1       7.750  -3.539   4.738  0.00  0.00    -0.018 C 
ATOM     23  C   UNL     1       9.262  -3.781   4.749  0.00  0.00    +0.001 C 
ATOM     24  C   UNL     1       9.609  -4.826   3.684  0.00  0.00    -0.011 C 
ATOM     25  C   UNL     1       9.109  -4.343   2.321  0.00  0.00    -0.073 C 
ATOM     26  H   UNL     1       7.214  -5.019   2.647  0.00  0.00    -0.081 HD
BRANCH  24  27
ATOM     27  C   UNL     1      11.126  -5.019   3.634  0.00  0.00    +0.105 C 
BRANCH  27  28
ATOM     28  N   UNL     1      11.588  -5.590   4.902  0.00  0.00    -0.315 N 
ATOM     29  C   UNL     1      12.898  -5.848   5.087  0.00  0.00    +0.210 C 
ATOM     30  O   UNL     1      13.694  -5.608   4.204  0.00  0.00    -0.276 OA
ATOM     31  C   UNL     1      13.373  -6.436   6.391  0.00  0.00    +0.109 C 
ATOM     32  H   UNL     1      10.951  -5.782   5.608  0.00  0.00    +0.149 HD
ENDBRANCH  27  28
ENDBRANCH  24  27
ENDBRANCH  19  20
ENDBRANCH   2  19
TORSDOF 5
