REMARK  Name = ZINC14021033
REMARK  7 active torsions:
REMARK  status: ('A' for Active; 'I' for Inactive)
REMARK    1  A    between atoms: C_1  and  O_2
REMARK    2  A    between atoms: O_2  and  C_3
REMARK    3  A    between atoms: C_6  and  S_9
REMARK    4  A    between atoms: S_9  and  N_12
REMARK    5  A    between atoms: C_16  and  C_19
REMARK    6  A    between atoms: N_21  and  C_22
REMARK    7  A    between atoms: C_23  and  C_30
REMARK                            x       y       z     vdW  Elec       q    Type
REMARK                         _______ _______ _______ _____ _____    ______ ____
ROOT
ATOM      1  N   UNL     1      -5.995   3.057  -0.082  0.00  0.00    -0.176 NA
ATOM      2  C   UNL     1      -6.025   4.015  -1.195  0.00  0.00    +0.109 C 
ATOM      3  C   UNL     1      -4.725   4.825  -1.184  0.00  0.00    +0.018 C 
ATOM      4  C   UNL     1      -3.532   3.868  -1.210  0.00  0.00    +0.015 C 
ATOM      5  C   UNL     1      -3.559   2.981   0.036  0.00  0.00    +0.091 C 
ATOM      6  C   UNL     1      -4.846   2.150   0.039  0.00  0.00    +0.122 C 
ENDROOT
BRANCH   5   7
ATOM      7  C   UNL     1      -2.366   2.061   0.026  0.00  0.00    +0.222 C 
ATOM      8  O   UNL     1      -2.527   0.859   0.020  0.00  0.00    -0.275 OA
ATOM      9  N   UNL     1      -1.119   2.573   0.022  0.00  0.00    -0.279 N 
ATOM     10  H   UNL     1      -0.990   3.535   0.026  0.00  0.00    +0.155 HD
BRANCH   9  11
ATOM     11  C   UNL     1      -0.021   1.726   0.011  0.00  0.00    +0.084 A 
ATOM     12  C   UNL     1       1.322   2.060   0.001  0.00  0.00    +0.068 A 
ATOM     13  C   UNL     1       2.292   0.965  -0.014  0.00  0.00    -0.023 A 
ATOM     14  C   UNL     1       1.758  -0.270  -0.017  0.00  0.00    -0.004 A 
ATOM     15  S   UNL     1       0.002  -0.004   0.002  0.00  0.00    -0.077 S 
ATOM     16  C   UNL     1       2.815  -1.341  -0.036  0.00  0.00    +0.043 C 
ATOM     17  C   UNL     1       4.101  -0.611  -0.482  0.00  0.00    +0.010 C 
ATOM     18  C   UNL     1       3.815   0.835  -0.027  0.00  0.00    +0.037 C 
BRANCH  12  19
ATOM     19  C   UNL     1       1.758   3.460   0.003  0.00  0.00    +0.244 C 
ATOM     20  O   UNL     1       1.949   4.036   1.058  0.00  0.00    -0.270 OA
ATOM     21  N   UNL     1       1.946   4.109  -1.163  0.00  0.00    -0.325 N 
ATOM     22  H   UNL     1       1.794   3.650  -2.004  0.00  0.00    +0.145 HD
ATOM     23  H   UNL     1       2.234   5.035  -1.161  0.00  0.00    +0.145 HD
ENDBRANCH  12  19
ENDBRANCH   9  11
ENDBRANCH   5   7
BRANCH   1  24
ATOM     24  S   UNL     1      -7.233   3.002   1.017  0.00  0.00    +0.061 S 
ATOM     25  O   UNL     1      -8.378   3.535   0.366  0.00  0.00    -0.153 OA
ATOM     26  O   UNL     1      -7.216   1.698   1.583  0.00  0.00    -0.153 OA
BRANCH  24  30
ATOM     27  C   UNL     1      -6.188   5.875   4.358  0.00  0.00    +0.120 A 
ATOM     28  C   UNL     1      -6.908   6.320   3.259  0.00  0.00    +0.047 A 
ATOM     29  C   UNL     1      -7.225   5.441   2.241  0.00  0.00    +0.032 A 
ATOM     30  C   UNL     1      -6.826   4.120   2.317  0.00  0.00    +0.106 A 
ATOM     31  C   UNL     1      -6.112   3.673   3.414  0.00  0.00    +0.032 A 
ATOM     32  C   UNL     1      -5.787   4.548   4.432  0.00  0.00    +0.047 A 
BRANCH  27  34
ATOM     33  C   UNL     1      -5.131   6.209   6.461  0.00  0.00    +0.277 C 
ATOM     34  O   UNL     1      -5.874   6.737   5.361  0.00  0.00    -0.495 OA
ENDBRANCH  27  34
ENDBRANCH  24  30
ENDBRANCH   1  24
TORSDOF 6
