REMARK  Name = ZINC39685792
REMARK  11 active torsions:
REMARK  status: ('A' for Active; 'I' for Inactive)
REMARK    1  A    between atoms: C_1  and  C_2
REMARK    2  A    between atoms: C_2  and  C_3
REMARK    3  A    between atoms: C_2  and  C_4
REMARK    4  A    between atoms: C_4  and  C_6
REMARK    5  A    between atoms: C_4  and  N_13
REMARK    6  A    between atoms: N_8  and  C_9
REMARK    7  A    between atoms: C_9  and  C_10
REMARK    8  A    between atoms: C_9  and  C_11
REMARK    9  A    between atoms: C_9  and  C_12
REMARK   10  A    between atoms: C_14  and  C_16
REMARK   11  A    between atoms: C_27  and  C_29
REMARK                            x       y       z     vdW  Elec       q    Type
REMARK                         _______ _______ _______ _____ _____    ______ ____
ROOT
ATOM      1  C   UNL     1      -0.535  -3.931   1.496  0.00  0.00    +0.100 C 
ATOM      2  C   UNL     1      -1.671  -4.766   0.862  0.00  0.00    +0.121 C 
ATOM      3  N   UNL     1      -1.791  -5.958   1.734  0.00  0.00    -0.295 N 
ATOM      4  C   UNL     1      -1.609  -5.430   3.107  0.00  0.00    +0.115 C 
ATOM      5  C   UNL     1      -0.498  -4.369   2.969  0.00  0.00    -0.004 C 
ATOM      6  C   UNL     1      -0.788  -3.181   3.881  0.00  0.00    -0.010 C 
ATOM      7  C   UNL     1      -0.688  -3.628   5.342  0.00  0.00    -0.082 C 
ATOM      8  N   UNL     1       0.657  -4.155   5.604  0.00  0.00    +0.379 N 
ATOM      9  C   UNL     1       0.892  -5.353   4.790  0.00  0.00    -0.082 C 
ATOM     10  C   UNL     1       0.859  -4.979   3.305  0.00  0.00    -0.010 C 
ATOM     11  C   UNL     1      -2.014  -7.234   1.363  0.00  0.00    +0.265 C 
ATOM     12  O   UNL     1      -2.180  -8.092   2.207  0.00  0.00    -0.268 OA
ATOM     13  H   UNL     1       1.343  -3.452   5.372  0.00  0.00    -0.086 HD
ATOM     14  H   UNL     1       0.740  -4.392   6.581  0.00  0.00    -0.086 HD
ENDROOT
BRANCH  11  15
ATOM     15  C   UNL     1      -2.058  -7.590  -0.075  0.00  0.00    +0.126 A 
ATOM     16  C   UNL     1      -2.394  -8.887  -0.455  0.00  0.00    +0.033 A 
ATOM     17  C   UNL     1      -2.431  -9.206  -1.803  0.00  0.00    +0.004 A 
ATOM     18  C   UNL     1      -2.131  -8.215  -2.725  0.00  0.00    +0.020 A 
ATOM     19  C   UNL     1      -1.805  -6.945  -2.276  0.00  0.00    +0.111 A 
ATOM     20  N   UNL     1      -1.783  -6.669  -0.990  0.00  0.00    -0.250 NA
ENDBRANCH  11  15
BRANCH   1  22
ATOM     21  N   UNL     1      -2.061  -2.001   1.749  0.00  0.00    -0.303 N 
ATOM     22  C   UNL     1      -0.845  -2.460   1.393  0.00  0.00    +0.219 C 
ATOM     23  O   UNL     1      -0.000  -1.689   0.990  0.00  0.00    -0.275 OA
ATOM     24  H   UNL     1      -2.713  -2.605   2.138  0.00  0.00    +0.149 HD
BRANCH  21  25
ATOM     25  C   UNL     1      -2.400  -0.590   1.549  0.00  0.00    +0.161 C 
BRANCH  25  26
ATOM     26  C   UNL     1      -3.477  -0.188   2.523  0.00  0.00    +0.234 C 
ATOM     27  O   UNL     1      -4.103  -1.039   3.119  0.00  0.00    -0.274 OA
ATOM     28  N   UNL     1      -3.745   1.116   2.731  0.00  0.00    -0.309 N 
ATOM     29  H   UNL     1      -3.195   1.797   2.313  0.00  0.00    +0.149 HD
BRANCH  28  30
ATOM     30  C   UNL     1      -4.866   1.506   3.590  0.00  0.00    +0.026 C 
ATOM     31  C   UNL     1      -4.651   0.943   4.996  0.00  0.00    +0.031 C 
ATOM     32  C   UNL     1      -4.950   3.032   3.658  0.00  0.00    +0.031 C 
ATOM     33  C   UNL     1      -6.169   0.949   3.011  0.00  0.00    +0.031 C 
ENDBRANCH  28  30
ENDBRANCH  25  26
BRANCH  25  35
ATOM     34  C   UNL     1      -1.779  -0.706  -0.869  0.00  0.00    +0.009 C 
ATOM     35  C   UNL     1      -2.902  -0.384   0.118  0.00  0.00    +0.012 C 
ATOM     36  C   UNL     1      -4.092  -1.310  -0.142  0.00  0.00    +0.009 C 
ENDBRANCH  25  35
ENDBRANCH  21  25
ENDBRANCH   1  22
TORSDOF 6
