REMARK  Name = ZINC48542966
REMARK  5 active torsions:
REMARK  status: ('A' for Active; 'I' for Inactive)
REMARK    1  A    between atoms: C_1  and  C_2
REMARK    2  A    between atoms: C_2  and  C_26
REMARK    3  A    between atoms: C_7  and  N_11
REMARK    4  A    between atoms: N_17  and  C_20
REMARK    5  A    between atoms: C_20  and  C_21
REMARK                            x       y       z     vdW  Elec       q    Type
REMARK                         _______ _______ _______ _____ _____    ______ ____
ROOT
ATOM      1  N   UNL     1       5.592  -0.985   1.541  0.00  0.00    -0.269 N 
ATOM      2  C   UNL     1       6.743  -1.271   0.900  0.00  0.00    +0.307 C 
ATOM      3  O   UNL     1       6.767  -1.319  -0.315  0.00  0.00    -0.252 OA
ATOM      4  N   UNL     1       7.868  -1.503   1.606  0.00  0.00    -0.283 N 
ATOM      5  C   UNL     1       7.827  -1.630   3.071  0.00  0.00    +0.124 C 
ATOM      6  C   UNL     1       8.547  -2.923   3.468  0.00  0.00    +0.104 C 
ATOM      7  N   UNL     1       9.893  -2.930   2.881  0.00  0.00    -0.295 NA
ATOM      8  C   UNL     1       9.835  -2.930   1.413  0.00  0.00    +0.104 C 
ATOM      9  C   UNL     1       9.167  -1.643   0.931  0.00  0.00    +0.124 C 
ATOM     10  H   UNL     1       5.598  -0.818   2.496  0.00  0.00    +0.156 HD
ENDROOT
BRANCH   1  17
ATOM     11  C   UNL     1      -0.369   0.852   0.367  0.00  0.00    +0.104 C 
ATOM     12  C   UNL     1      -0.101  -0.633   0.118  0.00  0.00    +0.248 C 
ATOM     13  O   UNL     1       0.722  -0.810  -1.050  0.00  0.00    -0.448 OA
ATOM     14  C   UNL     1       2.009  -0.818  -0.593  0.00  0.00    +0.167 A 
ATOM     15  C   UNL     1       3.216  -0.642  -1.248  0.00  0.00    +0.051 A 
ATOM     16  C   UNL     1       4.403  -0.697  -0.542  0.00  0.00    +0.027 A 
ATOM     17  C   UNL     1       4.388  -0.929   0.826  0.00  0.00    +0.038 A 
ATOM     18  C   UNL     1       3.180  -1.106   1.487  0.00  0.00    +0.073 A 
ATOM     19  C   UNL     1       1.990  -1.051   0.780  0.00  0.00    +0.169 A 
ATOM     20  O   UNL     1       0.693  -1.189   1.183  0.00  0.00    -0.448 OA
ATOM     21  C   UNL     1      -1.418  -1.399  -0.027  0.00  0.00    +0.104 C 
ENDBRANCH   1  17
BRANCH   7  22
ATOM     22  C   UNL     1      10.678  -4.069   3.377  0.00  0.00    +0.127 C 
BRANCH  22  23
ATOM     23  C   UNL     1      12.115  -3.911   2.953  0.00  0.00    +0.004 A 
ATOM     24  C   UNL     1      13.135  -3.299   3.605  0.00  0.00    +0.012 A 
ATOM     25  C   UNL     1      14.387  -3.276   3.019  0.00  0.00    +0.008 A 
ATOM     26  C   UNL     1      14.558  -3.867   1.811  0.00  0.00    +0.045 A 
ATOM     27  S   UNL     1      12.920  -4.488   1.468  0.00  0.00    -0.100 S 
ENDBRANCH  22  23
ENDBRANCH   7  22
TORSDOF 3
