REMARK  Name = ZINC23380364
REMARK  5 active torsions:
REMARK  status: ('A' for Active; 'I' for Inactive)
REMARK    1  A    between atoms: N_4  and  C_6
REMARK    2  A    between atoms: N_8  and  C_10
REMARK    3  A    between atoms: C_10  and  C_11
REMARK    4  A    between atoms: C_14  and  C_17
REMARK    5  A    between atoms: C_23  and  C_25
REMARK                            x       y       z     vdW  Elec       q    Type
REMARK                         _______ _______ _______ _____ _____    ______ ____
ROOT
ATOM      1  C   UNL     1      -3.931  -2.530  -0.890  0.00  0.00    -0.064 A 
ATOM      2  C   UNL     1      -2.989  -3.241  -0.168  0.00  0.00    +0.002 A 
ATOM      3  C   UNL     1      -3.359  -4.375   0.525  0.00  0.00    +0.012 A 
ATOM      4  C   UNL     1      -4.686  -4.809   0.489  0.00  0.00    +0.017 A 
ATOM      5  C   UNL     1      -5.630  -4.090  -0.246  0.00  0.00    +0.012 A 
ATOM      6  C   UNL     1      -5.247  -2.955  -0.931  0.00  0.00    +0.002 A 
ENDROOT
BRANCH   4   7
ATOM      7  C   UNL     1      -5.088  -6.026   1.224  0.00  0.00    +0.141 A 
ATOM      8  N   UNL     1      -6.387  -6.437   1.179  0.00  0.00    -0.307 N 
ATOM      9  H   UNL     1      -7.125  -5.865   0.598  0.00  0.00    +0.170 HD
ATOM     10  C   UNL     1      -6.761  -7.548   1.848  0.00  0.00    +0.252 A 
ATOM     11  O   UNL     1      -7.919  -7.932   1.818  0.00  0.00    -0.268 OA
ATOM     12  C   UNL     1      -5.789  -8.256   2.581  0.00  0.00    +0.096 A 
ATOM     13  C   UNL     1      -4.505  -7.795   2.589  0.00  0.00    +0.077 A 
ATOM     14  N   UNL     1      -4.185  -6.697   1.909  0.00  0.00    -0.231 NA
BRANCH  13  15
ATOM     15  C   UNL     1      -3.446  -8.534   3.366  0.00  0.00    +0.167 C 
ATOM     16  C   UNL     1      -2.331  -9.010   2.409  0.00  0.00    +0.040 C 
ATOM     17  C   UNL     1      -1.991 -10.416   2.973  0.00  0.00    +0.031 C 
ATOM     18  C   UNL     1      -3.385 -10.881   3.465  0.00  0.00    +0.161 C 
ATOM     19  O   UNL     1      -4.015  -9.697   3.979  0.00  0.00    -0.370 OA
ENDBRANCH  13  15
ENDBRANCH   4   7
BRANCH   1  20
ATOM     20  C   UNL     1      -3.520  -1.289  -1.641  0.00  0.00    -0.043 C 
BRANCH  20  23
ATOM     21  C   UNL     1      -2.502   1.389   0.021  0.00  0.00    +0.074 C 
ATOM     22  C   UNL     1      -2.647  -0.118   0.300  0.00  0.00    -0.053 C 
ATOM     23  N   UNL     1      -3.670  -0.117  -0.769  0.00  0.00    +0.385 N 
ATOM     24  C   UNL     1      -3.056   1.082  -1.382  0.00  0.00    -0.053 C 
ATOM     25  H   UNL     1      -4.741  -0.132  -0.520  0.00  0.00    -0.081 HD
BRANCH  21  29
ATOM     26  C   UNL     1       1.069   1.888   0.002  0.00  0.00    +0.041 A 
ATOM     27  C   UNL     1       0.614   3.211   0.013  0.00  0.00    +0.134 A 
ATOM     28  N   UNL     1      -0.694   3.193   0.025  0.00  0.00    -0.180 NA
ATOM     29  N   UNL     1      -1.113   1.857   0.017  0.00  0.00    -0.272 N 
ATOM     30  C   UNL     1      -0.013   1.076   0.008  0.00  0.00    +0.108 A 
ENDBRANCH  21  29
ENDBRANCH  20  23
ENDBRANCH   1  20
TORSDOF 5
