REMARK  Name = ZINC12497558
REMARK  9 active torsions:
REMARK  status: ('A' for Active; 'I' for Inactive)
REMARK    1  A    between atoms: C_1  and  C_2
REMARK    2  A    between atoms: C_2  and  O_3
REMARK    3  A    between atoms: O_3  and  C_4
REMARK    4  A    between atoms: C_4  and  C_6
REMARK    5  A    between atoms: C_6  and  C_30
REMARK    6  A    between atoms: C_11  and  C_13
REMARK    7  A    between atoms: N_20  and  C_23
REMARK    8  A    between atoms: C_30  and  C_31
REMARK    9  A    between atoms: C_34  and  O_37
REMARK                            x       y       z     vdW  Elec       q    Type
REMARK                         _______ _______ _______ _____ _____    ______ ____
ROOT
ATOM      1  C   UNL     1       4.645   2.569  -0.150  0.00  0.00    +0.048 C 
ATOM      2  C   UNL     1       4.643   1.563   0.989  0.00  0.00    +0.086 C 
ATOM      3  C   UNL     1       3.101   1.585   1.323  0.00  0.00    +0.080 C 
ATOM      4  C   UNL     1       2.499   1.455  -0.015  0.00  0.00    +0.010 C 
ATOM      5  C   UNL     1       3.074   0.970   2.623  0.00  0.00    +0.229 C 
ATOM      6  O   UNL     1       2.206   0.259   3.082  0.00  0.00    -0.275 OA
ATOM      7  N   UNL     1       4.242   1.361   3.231  0.00  0.00    -0.207 N 
ATOM      8  C   UNL     1       5.128   1.926   2.357  0.00  0.00    +0.229 C 
ATOM      9  O   UNL     1       6.105   2.587   2.633  0.00  0.00    -0.275 OA
ATOM     10  N   UNL     1       3.336   2.390  -0.831  0.00  0.00    +0.398 N 
ATOM     11  H   UNL     1       3.483   1.994  -1.767  0.00  0.00    -0.083 HD
ATOM     12  H   UNL     1       2.861   3.297  -0.914  0.00  0.00    -0.083 HD
ENDROOT
BRANCH   7  13
ATOM     13  C   UNL     1       4.497   1.198   4.600  0.00  0.00    +0.079 A 
ATOM     14  C   UNL     1       4.154   2.200   5.496  0.00  0.00    +0.027 A 
ATOM     15  C   UNL     1       4.403   2.035   6.845  0.00  0.00    +0.002 A 
ATOM     16  C   UNL     1       5.002   0.876   7.303  0.00  0.00    +0.003 A 
ATOM     17  C   UNL     1       5.351  -0.123   6.414  0.00  0.00    +0.040 A 
ATOM     18  C   UNL     1       5.101   0.034   5.062  0.00  0.00    +0.145 A 
ATOM     19  F   UNL     1       5.442  -0.943   4.193  0.00  0.00    -0.204 F 
ENDBRANCH   7  13
BRANCH   4  20
ATOM     20  C   UNL     1       1.057   1.892   0.002  0.00  0.00    +0.092 A 
ATOM     21  C   UNL     1      -0.013   1.076   0.008  0.00  0.00    +0.043 A 
ATOM     22  C   UNL     1      -1.159   1.903   0.017  0.00  0.00    +0.041 A 
ATOM     23  C   UNL     1      -0.722   3.175   0.026  0.00  0.00    +0.195 A 
ATOM     24  O   UNL     1       0.621   3.162   0.013  0.00  0.00    -0.469 OA
ENDBRANCH   4  20
BRANCH   1  25
ATOM     25  C   UNL     1       4.767   3.970   0.392  0.00  0.00    +0.297 C 
ATOM     26  O   UNL     1       5.322   4.162   1.448  0.00  0.00    -0.252 OA
BRANCH  25  27
ATOM     27  O   UNL     1       4.259   5.003  -0.298  0.00  0.00    -0.466 OA
BRANCH  27  29
ATOM     28  C   UNL     1       3.776   7.365  -0.637  0.00  0.00    +0.048 C 
ATOM     29  C   UNL     1       4.413   6.324   0.285  0.00  0.00    +0.228 C 
ENDBRANCH  27  29
ENDBRANCH  25  27
ENDBRANCH   1  25
BRANCH   1  30
ATOM     30  C   UNL     1       5.795   2.272  -1.115  0.00  0.00    +0.034 C 
BRANCH  30  31
ATOM     31  C   UNL     1       5.746   3.242  -2.268  0.00  0.00    -0.048 A 
ATOM     32  C   UNL     1       5.024   2.928  -3.404  0.00  0.00    +0.007 A 
ATOM     33  C   UNL     1       4.973   3.818  -4.460  0.00  0.00    +0.045 A 
ATOM     34  C   UNL     1       5.656   5.023  -4.383  0.00  0.00    +0.117 A 
ATOM     35  C   UNL     1       6.384   5.333  -3.244  0.00  0.00    +0.045 A 
ATOM     36  C   UNL     1       6.428   4.443  -2.189  0.00  0.00    +0.007 A 
BRANCH  34  37
ATOM     37  O   UNL     1       5.611   5.897  -5.422  0.00  0.00    -0.507 OA
ATOM     38  H   UNL     1       6.312   5.769  -6.075  0.00  0.00    +0.292 HD
ENDBRANCH  34  37
ENDBRANCH  30  31
ENDBRANCH   1  30
TORSDOF 8
