REMARK  Name = ZINC13624468
REMARK  8 active torsions:
REMARK  status: ('A' for Active; 'I' for Inactive)
REMARK    1  A    between atoms: C_1  and  C_2
REMARK    2  A    between atoms: C_2  and  O_3
REMARK    3  A    between atoms: O_3  and  C_4
REMARK    4  A    between atoms: C_4  and  C_6
REMARK    5  A    between atoms: C_12  and  C_14
REMARK    6  A    between atoms: C_14  and  O_15
REMARK    7  A    between atoms: O_15  and  C_16
REMARK    8  A    between atoms: C_17  and  C_24
REMARK                            x       y       z     vdW  Elec       q    Type
REMARK                         _______ _______ _______ _____ _____    ______ ____
ROOT
ATOM      1  C   UNL     1       0.887  10.610  -4.168  0.00  0.00    +0.101 C 
ATOM      2  C   UNL     1       0.990  11.060  -2.709  0.00  0.00    +0.033 C 
ATOM      3  C   UNL     1      -0.162  10.446  -1.907  0.00  0.00    +0.108 C 
ATOM      4  N   UNL     1      -0.143   8.989  -2.092  0.00  0.00    -0.299 N 
ATOM      5  C   UNL     1      -0.142   8.450  -3.459  0.00  0.00    +0.108 C 
ATOM      6  C   UNL     1       1.004   9.086  -4.243  0.00  0.00    +0.033 C 
ATOM      7  C   UNL     1      -0.121   8.162  -1.028  0.00  0.00    +0.253 C 
ATOM      8  O   UNL     1      -0.117   8.619   0.096  0.00  0.00    -0.272 OA
ENDROOT
BRANCH   1   9
ATOM      9  C   UNL     1       1.999  11.239  -4.967  0.00  0.00    +0.310 C 
ATOM     10  O   UNL     1       2.793  11.972  -4.425  0.00  0.00    -0.251 OA
BRANCH   9  11
ATOM     11  O   UNL     1       2.108  10.985  -6.280  0.00  0.00    -0.465 OA
BRANCH  11  13
ATOM     12  C   UNL     1       3.166  11.220  -8.462  0.00  0.00    +0.048 C 
ATOM     13  C   UNL     1       3.204  11.626  -6.987  0.00  0.00    +0.229 C 
ENDBRANCH  11  13
ENDBRANCH   9  11
ENDBRANCH   1   9
BRANCH   7  14
ATOM     14  C   UNL     1      -0.102   6.669  -1.234  0.00  0.00    +0.324 C 
BRANCH  14  15
ATOM     15  O   UNL     1      -0.081   6.013   0.036  0.00  0.00    -0.481 OA
BRANCH  15  16
ATOM     16  C   UNL     1      -0.062   4.654   0.028  0.00  0.00    +0.138 A 
ATOM     17  C   UNL     1      -1.253   3.942   0.035  0.00  0.00    -0.007 A 
ATOM     18  C   UNL     1      -1.232   2.561   0.022  0.00  0.00    +0.022 A 
ATOM     19  C   UNL     1      -0.024   1.887   0.012  0.00  0.00    +0.019 A 
ATOM     20  C   UNL     1       1.165   2.594   0.005  0.00  0.00    +0.034 A 
ATOM     21  C   UNL     1       1.149   3.976   0.012  0.00  0.00    +0.061 A 
ATOM     22 BR   UNL     1       2.774   4.942   0.002  0.00  0.00    -0.046 Br
ATOM     23 BR   UNL     1       0.002  -0.004   0.002  0.00  0.00    -0.050 Br
ATOM     24  C   UNL     1      -2.569   4.676   0.052  0.00  0.00    +0.047 C 
ENDBRANCH  15  16
ENDBRANCH  14  15
ENDBRANCH   7  14
TORSDOF 6
