REMARK  Name = ZINC39686326
REMARK  12 active torsions:
REMARK  status: ('A' for Active; 'I' for Inactive)
REMARK    1  A    between atoms: C_1  and  C_2
REMARK    2  A    between atoms: C_2  and  C_3
REMARK    3  A    between atoms: C_2  and  C_4
REMARK    4  A    between atoms: C_4  and  C_5
REMARK    5  A    between atoms: C_10  and  N_13
REMARK    6  A    between atoms: C_14  and  C_16
REMARK    7  A    between atoms: C_27  and  C_29
REMARK    8  A    between atoms: C_29  and  C_31
REMARK    9  A    between atoms: C_29  and  O_34
REMARK   10  A    between atoms: C_31  and  C_32
REMARK   11  A    between atoms: C_31  and  C_33
REMARK   12  A    between atoms: O_34  and  C_35
REMARK                            x       y       z     vdW  Elec       q    Type
REMARK                         _______ _______ _______ _____ _____    ______ ____
ROOT
ATOM      1  C   UNL     1      -7.447  -6.313   2.986  0.00  0.00    +0.100 C 
ATOM      2  C   UNL     1      -6.431  -6.780   4.053  0.00  0.00    +0.121 C 
ATOM      3  N   UNL     1      -6.945  -8.093   4.510  0.00  0.00    -0.297 N 
ATOM      4  C   UNL     1      -7.442  -8.745   3.275  0.00  0.00    +0.115 C 
ATOM      5  C   UNL     1      -8.108  -7.606   2.478  0.00  0.00    -0.004 C 
ATOM      6  C   UNL     1      -9.608  -7.576   2.754  0.00  0.00    -0.010 C 
ATOM      7  C   UNL     1     -10.252  -8.845   2.189  0.00  0.00    -0.082 C 
ATOM      8  N   UNL     1     -10.001  -8.922   0.745  0.00  0.00    +0.379 N 
ATOM      9  C   UNL     1      -8.560  -9.043   0.492  0.00  0.00    -0.082 C 
ATOM     10  C   UNL     1      -7.845  -7.782   0.986  0.00  0.00    -0.010 C 
ATOM     11  C   UNL     1      -6.957  -8.584   5.765  0.00  0.00    +0.257 C 
ATOM     12  O   UNL     1      -7.337  -9.717   5.970  0.00  0.00    -0.272 OA
ATOM     13  H   UNL     1     -10.477  -9.726   0.364  0.00  0.00    -0.086 HD
ATOM     14  H   UNL     1     -10.350  -8.086   0.299  0.00  0.00    -0.086 HD
ENDROOT
BRANCH   1  16
ATOM     15  N   UNL     1      -7.418  -4.763   1.059  0.00  0.00    -0.312 N 
ATOM     16  C   UNL     1      -6.738  -5.608   1.859  0.00  0.00    +0.218 C 
ATOM     17  O   UNL     1      -5.556  -5.801   1.672  0.00  0.00    -0.275 OA
ATOM     18  H   UNL     1      -8.364  -4.609   1.209  0.00  0.00    +0.149 HD
BRANCH  15  24
ATOM     19  C   UNL     1      -6.407  -0.650  -2.277  0.00  0.00    +0.216 C 
ATOM     20  O   UNL     1      -5.769   0.282  -1.836  0.00  0.00    -0.276 OA
ATOM     21  N   UNL     1      -6.250  -1.882  -1.754  0.00  0.00    -0.301 N 
ATOM     22  C   UNL     1      -7.011  -3.022  -2.283  0.00  0.00    +0.109 C 
ATOM     23  C   UNL     1      -7.741  -3.708  -1.123  0.00  0.00    +0.041 C 
ATOM     24  C   UNL     1      -6.729  -4.077  -0.037  0.00  0.00    +0.076 C 
ATOM     25  C   UNL     1      -6.063  -2.807   0.496  0.00  0.00    +0.041 C 
ATOM     26  C   UNL     1      -5.310  -2.112  -0.649  0.00  0.00    +0.109 C 
BRANCH  19  27
ATOM     27  C   UNL     1      -7.375  -0.430  -3.411  0.00  0.00    +0.099 C 
BRANCH  27  29
ATOM     28  C   UNL     1      -8.249   1.246  -5.045  0.00  0.00    +0.008 C 
ATOM     29  C   UNL     1      -7.361   1.046  -3.815  0.00  0.00    -0.008 C 
ATOM     30  C   UNL     1      -7.892   1.896  -2.659  0.00  0.00    +0.008 C 
ENDBRANCH  27  29
ENDBRANCH  19  27
ENDBRANCH  15  24
ENDBRANCH   1  16
BRANCH  11  31
ATOM     31  C   UNL     1      -6.498  -7.724   6.915  0.00  0.00    +0.261 C 
BRANCH  31  32
ATOM     32  C   UNL     1      -4.986  -7.877   7.094  0.00  0.00    +0.033 C 
ATOM     33  C   UNL     1      -4.281  -7.552   5.776  0.00  0.00    +0.011 C 
ATOM     34  C   UNL     1      -4.502  -6.916   8.182  0.00  0.00    +0.011 C 
ENDBRANCH  31  32
BRANCH  31  35
ATOM     35  O   UNL     1      -7.163  -8.133   8.111  0.00  0.00    -0.479 OA
BRANCH  35  36
ATOM     36  C   UNL     1      -7.457  -7.164   9.017  0.00  0.00    +0.122 A 
ATOM     37  C   UNL     1      -7.196  -5.834   8.720  0.00  0.00    +0.045 A 
ATOM     38  C   UNL     1      -7.495  -4.850   9.642  0.00  0.00    +0.004 A 
ATOM     39  C   UNL     1      -8.054  -5.190  10.861  0.00  0.00    +0.000 A 
ATOM     40  C   UNL     1      -8.314  -6.514  11.159  0.00  0.00    +0.004 A 
ATOM     41  C   UNL     1      -8.022  -7.501  10.238  0.00  0.00    +0.045 A 
ENDBRANCH  35  36
ENDBRANCH  31  35
ENDBRANCH  11  31
TORSDOF 8
