REMARK  Name = ZINC51145644
REMARK  9 active torsions:
REMARK  status: ('A' for Active; 'I' for Inactive)
REMARK    1  A    between atoms: C_1  and  C_2
REMARK    2  A    between atoms: C_3  and  C_10
REMARK    3  A    between atoms: C_4  and  N_8
REMARK    4  A    between atoms: N_5  and  C_7
REMARK    5  A    between atoms: N_8  and  N_9
REMARK    6  A    between atoms: C_10  and  N_11
REMARK    7  A    between atoms: N_11  and  C_12
REMARK    8  A    between atoms: N_11  and  C_13
REMARK    9  A    between atoms: C_13  and  C_14
REMARK                            x       y       z     vdW  Elec       q    Type
REMARK                         _______ _______ _______ _____ _____    ______ ____
ROOT
ATOM      1  C   UNL     1      -0.908   1.211   0.352  0.00  0.00    +0.068 C 
ATOM      2  C   UNL     1      -0.565  -0.251   0.219  0.00  0.00    +0.063 A 
ATOM      3  C   UNL     1      -0.165  -0.893  -0.956  0.00  0.00    -0.001 A 
ATOM      4  C   UNL     1       0.051  -2.205  -0.661  0.00  0.00    +0.132 A 
ATOM      5  N   UNL     1      -0.207  -2.374   0.656  0.00  0.00    -0.252 N 
ATOM      6  N   UNL     1      -0.585  -1.133   1.184  0.00  0.00    -0.175 NA
ATOM      7  C   UNL     1      -0.104  -3.632   1.400  0.00  0.00    +0.174 C 
ENDROOT
BRANCH   4   8
ATOM      8  N   UNL     1       0.461  -3.192  -1.552  0.00  0.00    -0.268 N 
ATOM      9  H   UNL     1       0.155  -3.172  -2.473  0.00  0.00    +0.167 HD
BRANCH   8  10
ATOM     10  N   UNL     1       1.293  -4.190  -1.131  0.00  0.00    -0.255 NA
ATOM     11  H   UNL     1       1.436  -4.873  -1.859  0.00  0.00    +0.140 HD
ATOM     12  H   UNL     1       2.173  -3.815  -0.810  0.00  0.00    +0.140 HD
ENDBRANCH   8  10
ENDBRANCH   4   8
BRANCH   3  13
ATOM     13  C   UNL     1      -0.001  -0.249  -2.309  0.00  0.00    -0.038 C 
BRANCH  13  14
ATOM     14  N   UNL     1       1.375   0.243  -2.453  0.00  0.00    +0.383 N 
ATOM     15  C   UNL     1       2.305  -0.894  -2.449  0.00  0.00    -0.095 C 
ATOM     16  H   UNL     1       1.595   0.859  -1.685  0.00  0.00    -0.081 HD
BRANCH  14  17
ATOM     17  C   UNL     1       1.503   0.975  -3.720  0.00  0.00    -0.043 C 
BRANCH  17  18
ATOM     18  C   UNL     1       2.878   1.584  -3.812  0.00  0.00    -0.063 A 
ATOM     19  C   UNL     1       3.106   2.854  -3.316  0.00  0.00    +0.002 A 
ATOM     20  C   UNL     1       4.367   3.414  -3.400  0.00  0.00    +0.001 A 
ATOM     21  C   UNL     1       5.402   2.703  -3.980  0.00  0.00    +0.015 A 
ATOM     22  C   UNL     1       5.174   1.432  -4.476  0.00  0.00    +0.018 A 
ATOM     23  C   UNL     1       3.913   0.871  -4.387  0.00  0.00    +0.017 A 
ATOM     24 BR   UNL     1       6.588   0.460  -5.271  0.00  0.00    -0.050 Br
ENDBRANCH  17  18
ENDBRANCH  14  17
ENDBRANCH  13  14
ENDBRANCH   3  13
TORSDOF 6
