REMARK  Name = ZINC65247615
REMARK  5 active torsions:
REMARK  status: ('A' for Active; 'I' for Inactive)
REMARK    1  A    between atoms: C_1  and  C_2
REMARK    2  A    between atoms: C_3  and  N_9
REMARK    3  A    between atoms: C_10  and  C_12
REMARK    4  A    between atoms: C_12  and  C_13
REMARK    5  A    between atoms: C_23  and  C_25
REMARK                            x       y       z     vdW  Elec       q    Type
REMARK                         _______ _______ _______ _____ _____    ______ ____
ROOT
ATOM      1  C   UNL     1       0.301  -0.874  -6.042  0.00  0.00    +0.222 C 
ATOM      2  N   UNL     1      -0.950  -1.643  -6.170  0.00  0.00    -0.174 NA
ATOM      3  N   UNL     1      -1.419  -2.003  -7.252  0.00  0.00    -0.082 NA
ATOM      4  C   UNL     1      -0.821  -1.766  -8.448  0.00  0.00    +0.276 C 
ATOM      5  O   UNL     1      -1.360  -2.035  -9.495  0.00  0.00    -0.270 OA
ATOM      6  C   UNL     1       0.545  -1.153  -8.396  0.00  0.00    +0.192 C 
ATOM      7  N   UNL     1       0.485  -0.152  -7.282  0.00  0.00    -0.187 NA
ATOM      8  N   UNL     1       1.590   0.584  -7.544  0.00  0.00    -0.275 N 
ATOM      9  C   UNL     1       1.565   0.786  -8.945  0.00  0.00    +0.047 C 
ATOM     10  C   UNL     1       0.928  -0.265  -9.549  0.00  0.00    +0.027 C 
ATOM     11  H   UNL     1       2.252   0.903  -6.912  0.00  0.00    +0.167 HD
ENDROOT
BRANCH   9  12
ATOM     12  C   UNL     1       2.150   1.949  -9.652  0.00  0.00    -0.003 A 
ATOM     13  C   UNL     1       2.058   2.042 -11.040  0.00  0.00    +0.010 A 
ATOM     14  C   UNL     1       2.605   3.128 -11.694  0.00  0.00    +0.001 A 
ATOM     15  C   UNL     1       3.244   4.122 -10.975  0.00  0.00    +0.000 A 
ATOM     16  C   UNL     1       3.338   4.035  -9.597  0.00  0.00    +0.001 A 
ATOM     17  C   UNL     1       2.790   2.957  -8.932  0.00  0.00    +0.010 A 
ENDBRANCH   9  12
BRANCH   1  18
ATOM     18  C   UNL     1       0.192   0.111  -4.876  0.00  0.00    +0.142 C 
BRANCH  18  20
ATOM     19  N   UNL     1      -0.010   0.011  -2.413  0.00  0.00    -0.285 N 
ATOM     20  C   UNL     1       0.095  -0.653  -3.581  0.00  0.00    +0.221 C 
ATOM     21  O   UNL     1       0.112  -1.866  -3.589  0.00  0.00    -0.275 OA
ATOM     22  H   UNL     1      -0.104   0.977  -2.411  0.00  0.00    +0.155 HD
BRANCH  19  25
ATOM     23  C   UNL     1      -1.263   1.190  -0.146  0.00  0.00    +0.048 C 
ATOM     24  C   UNL     1      -0.583  -0.153  -0.073  0.00  0.00    +0.006 A 
ATOM     25  C   UNL     1       0.017  -0.692  -1.203  0.00  0.00    +0.039 A 
ATOM     26  C   UNL     1       0.643  -1.929  -1.132  0.00  0.00    +0.024 A 
ATOM     27  C   UNL     1       0.668  -2.622   0.063  0.00  0.00    +0.005 A 
ATOM     28  C   UNL     1       0.070  -2.085   1.188  0.00  0.00    +0.039 A 
ATOM     29  C   UNL     1      -0.550  -0.848   1.123  0.00  0.00    +0.128 A 
ATOM     30  F   UNL     1      -1.129  -0.324   2.225  0.00  0.00    -0.205 F 
ENDBRANCH  19  25
ENDBRANCH  18  20
ENDBRANCH   1  18
TORSDOF 4
