REMARK  Name = ZINC35964839
REMARK  9 active torsions:
REMARK  status: ('A' for Active; 'I' for Inactive)
REMARK    1  A    between atoms: C_1  and  C_2
REMARK    2  A    between atoms: C_2  and  C_3
REMARK    3  A    between atoms: C_2  and  C_4
REMARK    4  A    between atoms: C_4  and  C_5
REMARK    5  A    between atoms: C_5  and  C_7
REMARK    6  A    between atoms: C_5  and  N_16
REMARK    7  A    between atoms: N_9  and  N_10
REMARK    8  A    between atoms: C_22  and  C_29
REMARK    9  A    between atoms: N_27  and  C_28
REMARK                            x       y       z     vdW  Elec       q    Type
REMARK                         _______ _______ _______ _____ _____    ______ ____
ROOT
ATOM      1  N   UNL     1      -0.876  -2.426  -1.433  0.00  0.00    -0.281 N 
ATOM      2  C   UNL     1       0.317  -3.247  -1.685  0.00  0.00    +0.160 C 
ATOM      3  C   UNL     1       0.426  -3.321  -3.192  0.00  0.00    +0.042 C 
ATOM      4  C   UNL     1      -0.608  -2.608  -3.683  0.00  0.00    +0.058 C 
ATOM      5  C   UNL     1      -1.384  -2.082  -2.630  0.00  0.00    +0.247 C 
ATOM      6  O   UNL     1      -2.382  -1.401  -2.784  0.00  0.00    -0.270 OA
ATOM      7  C   UNL     1      -0.746  -2.511  -5.189  0.00  0.00    +0.143 C 
ATOM      8  N   UNL     1       0.269  -3.208  -5.997  0.00  0.00    -0.288 N 
ATOM      9  C   UNL     1       1.247  -3.882  -5.359  0.00  0.00    +0.307 C 
ATOM     10  O   UNL     1       2.089  -4.460  -6.017  0.00  0.00    -0.252 OA
ATOM     11  N   UNL     1       1.320  -3.934  -4.022  0.00  0.00    -0.260 N 
ATOM     12  C   UNL     1       2.420  -4.691  -3.419  0.00  0.00    +0.139 C 
ATOM     13  H   UNL     1       0.234  -3.183  -6.966  0.00  0.00    +0.151 HD
ENDROOT
BRANCH   7  14
ATOM     14  C   UNL     1      -2.098  -3.059  -5.568  0.00  0.00    -0.004 A 
ATOM     15  C   UNL     1      -2.225  -4.381  -5.950  0.00  0.00    +0.007 A 
ATOM     16  C   UNL     1      -3.465  -4.884  -6.298  0.00  0.00    +0.000 A 
ATOM     17  C   UNL     1      -4.578  -4.065  -6.264  0.00  0.00    +0.001 A 
ATOM     18  C   UNL     1      -4.452  -2.743  -5.882  0.00  0.00    +0.020 A 
ATOM     19  C   UNL     1      -3.212  -2.240  -5.528  0.00  0.00    +0.046 A 
ATOM     20 CL   UNL     1      -3.054  -0.582  -5.042  0.00  0.00    -0.083 Cl
ENDBRANCH   7  14
BRANCH   1  21
ATOM     21  C   UNL     1      -1.416  -2.058  -0.121  0.00  0.00    +0.164 C 
BRANCH  21  22
ATOM     22  C   UNL     1      -2.819  -2.590   0.013  0.00  0.00    +0.247 C 
ATOM     23  O   UNL     1      -3.320  -3.216  -0.898  0.00  0.00    -0.272 OA
ATOM     24  N   UNL     1      -3.518  -2.371   1.144  0.00  0.00    -0.247 N 
ATOM     25  H   UNL     1      -3.118  -1.870   1.872  0.00  0.00    +0.169 HD
BRANCH  24  26
ATOM     26  N   UNL     1      -4.790  -2.853   1.265  0.00  0.00    -0.223 NA
ATOM     27  C   UNL     1      -5.760  -1.756   1.396  0.00  0.00    +0.133 C 
ATOM     28  C   UNL     1      -7.174  -2.337   1.469  0.00  0.00    +0.177 C 
ATOM     29  O   UNL     1      -7.249  -3.260   2.560  0.00  0.00    -0.377 OA
ATOM     30  C   UNL     1      -6.319  -4.342   2.464  0.00  0.00    +0.177 C 
ATOM     31  C   UNL     1      -4.896  -3.780   2.401  0.00  0.00    +0.133 C 
ENDBRANCH  24  26
ENDBRANCH  21  22
BRANCH  21  32
ATOM     32  C   UNL     1      -1.433  -0.534   0.013  0.00  0.00    +0.035 C 
BRANCH  32  34
ATOM     33  C   UNL     1      -0.019   1.526   0.010  0.00  0.00    +0.007 C 
ATOM     34  C   UNL     1       0.002  -0.004   0.002  0.00  0.00    -0.015 C 
ATOM     35  C   UNL     1       0.742  -0.511   1.242  0.00  0.00    +0.007 C 
ENDBRANCH  32  34
ENDBRANCH  21  32
ENDBRANCH   1  21
TORSDOF 6
