REMARK  Name = ZINC35833062
REMARK  6 active torsions:
REMARK  status: ('A' for Active; 'I' for Inactive)
REMARK    1  A    between atoms: C_4  and  C_7
REMARK    2  A    between atoms: C_12  and  O_31
REMARK    3  A    between atoms: N_20  and  C_23
REMARK    4  A    between atoms: C_23  and  C_24
REMARK    5  A    between atoms: C_24  and  C_25
REMARK    6  A    between atoms: C_25  and  N_26
REMARK                            x       y       z     vdW  Elec       q    Type
REMARK                         _______ _______ _______ _____ _____    ______ ____
ROOT
ATOM      1  C   UNL     1       3.711  -0.707  -0.038  0.00  0.00    +0.091 C 
ATOM      2  C   UNL     1       3.790  -1.556  -1.278  0.00  0.00    +0.007 A 
ATOM      3  C   UNL     1       4.066  -0.960  -2.495  0.00  0.00    +0.012 A 
ATOM      4  C   UNL     1       4.142  -1.725  -3.643  0.00  0.00    +0.046 A 
ATOM      5  C   UNL     1       3.941  -3.096  -3.577  0.00  0.00    +0.120 A 
ATOM      6  C   UNL     1       3.664  -3.696  -2.359  0.00  0.00    +0.092 A 
ATOM      7  C   UNL     1       3.588  -2.925  -1.205  0.00  0.00    +0.138 A 
ATOM      8  O   UNL     1       3.314  -3.526  -0.023  0.00  0.00    -0.437 OA
ATOM      9  C   UNL     1       3.617  -2.909   1.140  0.00  0.00    +0.229 A 
ATOM     10  C   UNL     1       3.816  -1.567   1.190  0.00  0.00    +0.066 A 
ATOM     11  C   UNL     1       4.128  -0.974   2.436  0.00  0.00    +0.115 A 
ATOM     12  N   UNL     1       4.332   0.324   2.534  0.00  0.00    -0.384 N 
ATOM     13  N   UNL     1       4.213  -1.790   3.546  0.00  0.00    -0.318 N 
ATOM     14  C   UNL     1       4.000  -3.123   3.409  0.00  0.00    +0.204 A 
ATOM     15  N   UNL     1       3.719  -3.645   2.263  0.00  0.00    -0.202 NA
ATOM     16  H   UNL     1       4.269   0.886   1.746  0.00  0.00    +0.157 HD
ATOM     17  H   UNL     1       4.545   0.718   3.394  0.00  0.00    +0.157 HD
ENDROOT
BRANCH   1  21
ATOM     18  C   UNL     1      -0.017   1.378   0.010  0.00  0.00    +0.000 A 
ATOM     19  C   UNL     1       1.171   2.086   0.002  0.00  0.00    +0.000 A 
ATOM     20  C   UNL     1       2.377   1.411  -0.013  0.00  0.00    +0.004 A 
ATOM     21  C   UNL     1       2.396   0.029  -0.020  0.00  0.00    -0.035 A 
ATOM     22  C   UNL     1       1.208  -0.679  -0.012  0.00  0.00    +0.004 A 
ATOM     23  C   UNL     1       0.002  -0.004   0.002  0.00  0.00    +0.000 A 
ENDBRANCH   1  21
BRANCH   5  24
ATOM     24  O   UNL     1       4.015  -3.850  -4.705  0.00  0.00    -0.507 OA
ATOM     25  H   UNL     1       4.901  -4.189  -4.895  0.00  0.00    +0.292 HD
ENDBRANCH   5  24
BRANCH  13  26
ATOM     26  C   UNL     1       4.532  -1.223   4.859  0.00  0.00    +0.126 C 
BRANCH  26  27
ATOM     27  C   UNL     1       3.238  -0.826   5.571  0.00  0.00    +0.043 C 
BRANCH  27  28
ATOM     28  C   UNL     1       3.571  -0.233   6.942  0.00  0.00    +0.124 C 
BRANCH  28  29
ATOM     29  N   UNL     1       2.331   0.147   7.624  0.00  0.00    -0.338 N 
ATOM     30  C   UNL     1       1.702   1.360   7.548  0.00  0.00    +0.104 A 
ATOM     31  C   UNL     1       0.604   1.278   8.324  0.00  0.00    +0.101 A 
ATOM     32  N   UNL     1       0.564   0.049   8.859  0.00  0.00    -0.352 N 
ATOM     33  C   UNL     1       1.593  -0.636   8.440  0.00  0.00    +0.173 A 
ATOM     34  H   UNL     1      -0.123  -0.280   9.459  0.00  0.00    +0.166 HD
ENDBRANCH  28  29
ENDBRANCH  27  28
ENDBRANCH  26  27
ENDBRANCH  13  26
TORSDOF 6
