REMARK  Name = ZINC08554320
REMARK  7 active torsions:
REMARK  status: ('A' for Active; 'I' for Inactive)
REMARK    1  A    between atoms: C_4  and  C_7
REMARK    2  A    between atoms: N_9  and  C_10
REMARK    3  A    between atoms: C_10  and  C_11
REMARK    4  A    between atoms: N_13  and  N_14
REMARK    5  A    between atoms: N_14  and  C_15
REMARK    6  A    between atoms: C_15  and  N_17
REMARK    7  A    between atoms: C_18  and  C_20
REMARK                            x       y       z     vdW  Elec       q    Type
REMARK                         _______ _______ _______ _____ _____    ______ ____
ROOT
ATOM      1  C   UNL     1       4.617   4.020  -0.020  0.00  0.00    +0.246 C 
ATOM      2  O   UNL     1       5.675   3.428  -0.034  0.00  0.00    -0.273 OA
ATOM      3  N   UNL     1       3.459   3.331  -0.013  0.00  0.00    -0.234 N 
ATOM      4  H   UNL     1       2.612   3.804  -0.003  0.00  0.00    +0.173 HD
ENDROOT
BRANCH   3   5
ATOM      5  N   UNL     1       3.478   1.930  -0.021  0.00  0.00    -0.246 N 
ATOM      6  H   UNL     1       4.324   1.456  -0.031  0.00  0.00    +0.172 HD
BRANCH   5   7
ATOM      7  C   UNL     1       2.320   1.240  -0.013  0.00  0.00    +0.153 C 
ATOM      8  S   UNL     1       2.343  -0.472  -0.023  0.00  0.00    -0.017 S 
BRANCH   7   9
ATOM      9  N   UNL     1       1.143   1.898   0.001  0.00  0.00    -0.266 N 
ATOM     10  C   UNL     1      -0.014   1.208   0.009  0.00  0.00    +0.222 C 
ATOM     11  O   UNL     1       0.002  -0.004   0.002  0.00  0.00    -0.275 OA
ATOM     12  H   UNL     1       1.130   2.868   0.007  0.00  0.00    +0.157 HD
BRANCH  10  13
ATOM     13  C   UNL     1      -1.330   1.944   0.019  0.00  0.00    +0.075 C 
ATOM     14  C   UNL     1      -1.417   2.816   1.273  0.00  0.00    +0.013 C 
ATOM     15  C   UNL     1      -2.752   3.562   1.284  0.00  0.00    +0.001 C 
ATOM     16  C   UNL     1      -3.901   2.553   1.284  0.00  0.00    +0.000 C 
ATOM     17  C   UNL     1      -3.814   1.681   0.029  0.00  0.00    +0.001 C 
ATOM     18  C   UNL     1      -2.479   0.934   0.019  0.00  0.00    +0.013 C 
ENDBRANCH  10  13
ENDBRANCH   7   9
ENDBRANCH   5   7
ENDBRANCH   3   5
BRANCH   1  19
ATOM     19  C   UNL     1       4.596   5.527  -0.012  0.00  0.00    +0.201 C 
BRANCH  19  22
ATOM     20  C   UNL     1       6.199   7.362  -0.018  0.00  0.00    +0.217 C 
ATOM     21  O   UNL     1       5.266   8.138  -0.004  0.00  0.00    -0.276 OA
ATOM     22  N   UNL     1       5.971   6.034  -0.022  0.00  0.00    -0.306 N 
ATOM     23  H   UNL     1       6.716   5.414  -0.033  0.00  0.00    +0.149 HD
BRANCH  20  27
ATOM     24  C   UNL     1       9.767   9.437   1.209  0.00  0.00    +0.000 C 
ATOM     25  C   UNL     1       9.027   9.944  -0.031  0.00  0.00    +0.001 C 
ATOM     26  C   UNL     1       7.592   9.414  -0.020  0.00  0.00    +0.013 C 
ATOM     27  C   UNL     1       7.613   7.884  -0.028  0.00  0.00    +0.075 C 
ATOM     28  C   UNL     1       8.352   7.377   1.211  0.00  0.00    +0.013 C 
ATOM     29  C   UNL     1       9.788   7.907   1.200  0.00  0.00    +0.001 C 
ENDBRANCH  20  27
ENDBRANCH  19  22
ENDBRANCH   1  19
TORSDOF 7
