REMARK  Name = ZINC39630708
REMARK  13 active torsions:
REMARK  status: ('A' for Active; 'I' for Inactive)
REMARK    1  A    between atoms: C_1  and  C_2
REMARK    2  A    between atoms: C_2  and  C_3
REMARK    3  A    between atoms: C_3  and  C_5
REMARK    4  A    between atoms: C_3  and  C_6
REMARK    5  A    between atoms: C_10  and  C_19
REMARK    6  A    between atoms: N_21  and  C_22
REMARK    7  A    between atoms: C_22  and  C_23
REMARK    8  A    between atoms: C_23  and  C_24
REMARK    9  A    between atoms: C_23  and  C_25
REMARK   10  A    between atoms: C_23  and  C_26
REMARK   11  A    between atoms: C_26  and  N_27
REMARK   12  A    between atoms: N_27  and  C_28
REMARK   13  A    between atoms: N_27  and  C_29
REMARK                            x       y       z     vdW  Elec       q    Type
REMARK                         _______ _______ _______ _____ _____    ______ ____
ROOT
ATOM      1  C   UNL     1       0.840  -0.926   2.055  0.00  0.00    +0.218 C 
ATOM      2  O   UNL     1       0.482  -1.433   1.013  0.00  0.00    -0.275 OA
ATOM      3  N   UNL     1       1.325  -1.697   3.048  0.00  0.00    -0.300 N 
ATOM      4  C   UNL     1       1.708  -1.280   4.418  0.00  0.00    +0.121 C 
ATOM      5  C   UNL     1       1.220  -2.430   5.327  0.00  0.00    +0.100 C 
ATOM      6  C   UNL     1       1.150  -3.658   4.403  0.00  0.00    -0.004 C 
ATOM      7  C   UNL     1       1.589  -3.156   3.020  0.00  0.00    +0.115 C 
ATOM      8  C   UNL     1      -0.279  -4.188   4.336  0.00  0.00    -0.010 C 
ATOM      9  C   UNL     1      -0.312  -5.442   3.457  0.00  0.00    -0.082 C 
ATOM     10  N   UNL     1       0.583  -6.460   4.020  0.00  0.00    +0.379 N 
ATOM     11  C   UNL     1       1.969  -5.977   3.995  0.00  0.00    -0.082 C 
ATOM     12  C   UNL     1       2.099  -4.746   4.896  0.00  0.00    -0.010 C 
ATOM     13  H   UNL     1       0.313  -6.654   4.973  0.00  0.00    -0.086 HD
ATOM     14  H   UNL     1       0.513  -7.306   3.474  0.00  0.00    -0.086 HD
ENDROOT
BRANCH   5  15
ATOM     15  C   UNL     1       2.203  -2.668   6.445  0.00  0.00    +0.218 C 
ATOM     16  O   UNL     1       3.386  -2.475   6.263  0.00  0.00    -0.275 OA
ATOM     17  N   UNL     1       1.766  -3.094   7.646  0.00  0.00    -0.315 N 
ATOM     18  H   UNL     1       0.819  -3.247   7.792  0.00  0.00    +0.149 HD
BRANCH  17  19
ATOM     19  C   UNL     1       2.721  -3.324   8.733  0.00  0.00    +0.108 C 
BRANCH  19  20
ATOM     20  C   UNL     1       1.971  -3.800   9.979  0.00  0.00    -0.034 C 
ATOM     21  C   UNL     1       0.961  -2.732  10.405  0.00  0.00    +0.010 C 
ATOM     22  C   UNL     1       1.232  -5.102   9.664  0.00  0.00    +0.010 C 
BRANCH  20  23
ATOM     23  C   UNL     1       2.968  -4.041  11.114  0.00  0.00    -0.072 C 
BRANCH  23  24
ATOM     24  N   UNL     1       2.256  -4.556  12.291  0.00  0.00    +0.376 N 
ATOM     25  C   UNL     1       2.144  -6.018  12.194  0.00  0.00    -0.097 C 
ATOM     26  C   UNL     1       2.998  -4.201  13.507  0.00  0.00    -0.097 C 
ATOM     27  H   UNL     1       1.333  -4.151  12.329  0.00  0.00    -0.083 HD
ENDBRANCH  23  24
ENDBRANCH  20  23
ENDBRANCH  19  20
ENDBRANCH  17  19
ENDBRANCH   5  15
BRANCH   1  28
ATOM     28  C   UNL     1       0.744   0.567   2.238  0.00  0.00    +0.072 C 
ATOM     29  C   UNL     1      -0.601   0.916   2.880  0.00  0.00    +0.017 C 
BRANCH  28  31
ATOM     30  C   UNL     1       0.881   2.773   1.074  0.00  0.00    +0.004 C 
ATOM     31  C   UNL     1       0.854   1.256   0.877  0.00  0.00    +0.009 C 
ENDBRANCH  28  31
ENDBRANCH   1  28
TORSDOF 7
