REMARK  Name = ZINC15003426
REMARK  3 active torsions:
REMARK  status: ('A' for Active; 'I' for Inactive)
REMARK    1  A    between atoms: N_9  and  N_12
REMARK    2  A    between atoms: C_13  and  C_15
REMARK    3  A    between atoms: C_16  and  C_17
REMARK                            x       y       z     vdW  Elec       q    Type
REMARK                         _______ _______ _______ _____ _____    ______ ____
ROOT
ATOM      1  N   UNL     1       3.676  -3.373  -0.053  0.00  0.00    -0.221 N 
ATOM      2  C   UNL     1       4.272  -3.786  -1.189  0.00  0.00    +0.254 C 
ATOM      3  O   UNL     1       4.180  -3.118  -2.202  0.00  0.00    -0.269 OA
ATOM      4  H   UNL     1       3.749  -3.905   0.754  0.00  0.00    +0.174 HD
ENDROOT
BRANCH   1  13
ATOM      5  C   UNL     1      -0.017   1.382   0.010  0.00  0.00    +0.001 A 
ATOM      6  C   UNL     1       1.165   2.099   0.002  0.00  0.00    +0.001 A 
ATOM      7  C   UNL     1       2.385   1.442  -0.013  0.00  0.00    +0.014 A 
ATOM      8  C   UNL     1       2.420   0.056  -0.021  0.00  0.00    +0.051 A 
ATOM      9  C   UNL     1       1.215  -0.675  -0.013  0.00  0.00    +0.051 A 
ATOM     10  C   UNL     1       0.002  -0.004   0.002  0.00  0.00    +0.014 A 
ATOM     11  C   UNL     1       1.606  -2.100  -0.025  0.00  0.00    +0.271 C 
ATOM     12  O   UNL     1       0.843  -3.045  -0.024  0.00  0.00    -0.268 OA
ATOM     13  N   UNL     1       2.949  -2.175  -0.039  0.00  0.00    -0.147 N 
ATOM     14  C   UNL     1       3.503  -0.949  -0.037  0.00  0.00    +0.271 C 
ATOM     15  O   UNL     1       4.693  -0.709  -0.048  0.00  0.00    -0.268 OA
ENDBRANCH   1  13
BRANCH   2  16
ATOM     16  C   UNL     1       5.031  -5.038  -1.204  0.00  0.00    +0.069 C 
ATOM     17  C   UNL     1       5.628  -5.451  -2.340  0.00  0.00    +0.013 C 
BRANCH  17  18
ATOM     18  C   UNL     1       6.391  -6.709  -2.355  0.00  0.00    -0.025 A 
ATOM     19  C   UNL     1       6.495  -7.482  -1.194  0.00  0.00    +0.009 A 
ATOM     20  C   UNL     1       7.211  -8.659  -1.215  0.00  0.00    +0.020 A 
ATOM     21  C   UNL     1       7.829  -9.077  -2.383  0.00  0.00    +0.041 A 
ATOM     22  C   UNL     1       7.730  -8.317  -3.537  0.00  0.00    +0.020 A 
ATOM     23  C   UNL     1       7.012  -7.141  -3.532  0.00  0.00    +0.009 A 
ATOM     24 CL   UNL     1       8.730 -10.561  -2.400  0.00  0.00    -0.084 Cl
ENDBRANCH  17  18
ENDBRANCH   2  16
TORSDOF 3
