REMARK  Name = ZINC42910247
REMARK  7 active torsions:
REMARK  status: ('A' for Active; 'I' for Inactive)
REMARK    1  A    between atoms: C_1  and  C_2
REMARK    2  A    between atoms: C_2  and  C_29
REMARK    3  A    between atoms: C_4  and  N_10
REMARK    4  A    between atoms: C_6  and  C_8
REMARK    5  A    between atoms: C_6  and  C_9
REMARK    6  A    between atoms: N_16  and  C_19
REMARK    7  A    between atoms: C_19  and  C_20
REMARK                            x       y       z     vdW  Elec       q    Type
REMARK                         _______ _______ _______ _____ _____    ______ ____
ROOT
ATOM      1  N   UNL     1       2.616  -0.819  -2.626  0.00  0.00    -0.296 N 
ATOM      2  C   UNL     1       3.770  -0.334  -3.123  0.00  0.00    +0.302 C 
ATOM      3  O   UNL     1       4.329   0.594  -2.571  0.00  0.00    -0.253 OA
ATOM      4  N   UNL     1       4.307  -0.878  -4.234  0.00  0.00    -0.283 N 
ATOM      5  C   UNL     1       3.592  -1.923  -4.983  0.00  0.00    +0.124 C 
ATOM      6  C   UNL     1       4.543  -3.105  -5.197  0.00  0.00    +0.104 C 
ATOM      7  N   UNL     1       5.782  -2.626  -5.825  0.00  0.00    -0.294 NA
ATOM      8  C   UNL     1       6.493  -1.684  -4.952  0.00  0.00    +0.104 C 
ATOM      9  C   UNL     1       5.619  -0.439  -4.732  0.00  0.00    +0.124 C 
ATOM     10  H   UNL     1       2.132  -1.509  -3.106  0.00  0.00    +0.151 HD
ENDROOT
BRANCH   1  14
ATOM     11  C   UNL     1      -0.016   1.526   0.015  0.00  0.00    -0.010 C 
ATOM     12  C   UNL     1       0.004  -0.006   0.004  0.00  0.00    -0.072 C 
ATOM     13  C   UNL     1       0.574  -0.505  -1.319  0.00  0.00    +0.009 C 
ATOM     14  C   UNL     1       2.089  -0.302  -1.356  0.00  0.00    +0.072 C 
ATOM     15  C   UNL     1       2.704  -1.089  -0.198  0.00  0.00    +0.009 C 
ATOM     16  C   UNL     1       2.150  -0.594   1.133  0.00  0.00    -0.072 C 
ATOM     17  N   UNL     1       0.699  -0.533   1.166  0.00  0.00    +0.386 N 
ATOM     18  C   UNL     1       2.772   0.761   1.483  0.00  0.00    -0.010 C 
ATOM     19  C   UNL     1       2.602  -1.595   2.222  0.00  0.00    -0.010 C 
ATOM     20  C   UNL     1      -1.466  -0.479   0.082  0.00  0.00    -0.010 C 
ATOM     21  H   UNL     1       0.419   0.017   1.984  0.00  0.00    -0.084 HD
ATOM     22  H   UNL     1       0.343  -1.476   1.351  0.00  0.00    -0.084 HD
ENDBRANCH   1  14
BRANCH   7  23
ATOM     23  C   UNL     1       6.649  -3.750  -6.204  0.00  0.00    +0.139 C 
BRANCH  23  24
ATOM     24  C   UNL     1       7.783  -3.245  -7.057  0.00  0.00    +0.048 A 
ATOM     25  C   UNL     1       7.805  -3.227  -8.408  0.00  0.00    +0.115 A 
ATOM     26  N   UNL     1       9.007  -2.693  -8.785  0.00  0.00    -0.308 N 
ATOM     27  C   UNL     1       9.563  -2.440 -10.006  0.00  0.00    +0.092 A 
ATOM     28  C   UNL     1      10.794  -1.894 -10.101  0.00  0.00    +0.018 A 
ATOM     29  C   UNL     1      11.521  -1.580  -8.941  0.00  0.00    +0.005 A 
ATOM     30  C   UNL     1      10.979  -1.827  -7.718  0.00  0.00    +0.045 A 
ATOM     31  C   UNL     1       9.693  -2.397  -7.636  0.00  0.00    +0.115 A 
ATOM     32  N   UNL     1       8.931  -2.734  -6.605  0.00  0.00    -0.342 N 
ATOM     33  H   UNL     1       9.170  -2.629  -5.671  0.00  0.00    +0.167 HD
ENDBRANCH  23  24
ENDBRANCH   7  23
TORSDOF 3
