REMARK  Name = ZINC22852510
REMARK  4 active torsions:
REMARK  status: ('A' for Active; 'I' for Inactive)
REMARK    1  A    between atoms: C_3  and  C_6
REMARK    2  A    between atoms: C_12  and  C_14
REMARK    3  A    between atoms: C_14  and  C_16
REMARK    4  A    between atoms: C_14  and  N_24
REMARK                            x       y       z     vdW  Elec       q    Type
REMARK                         _______ _______ _______ _____ _____    ______ ____
ROOT
ATOM      1  C   UNL     1       9.467  -0.321  -0.097  0.00  0.00    +0.007 C 
ENDROOT
BRANCH   1   8
ATOM      2  C   UNL     1       3.574   0.619  -0.029  0.00  0.00    +0.218 A 
ATOM      3  N   UNL     1       4.378   1.692  -0.026  0.00  0.00    -0.197 NA
ATOM      4  C   UNL     1       5.620   1.298  -0.043  0.00  0.00    +0.200 A 
ATOM      5  N   UNL     1       5.672  -0.069  -0.058  0.00  0.00    -0.169 N 
ATOM      6  N   UNL     1       4.311  -0.470  -0.042  0.00  0.00    -0.138 NA
ATOM      7  C   UNL     1       6.918  -0.647  -0.076  0.00  0.00    +0.282 A 
ATOM      8  C   UNL     1       8.022   0.108  -0.079  0.00  0.00    +0.050 A 
ATOM      9  S   UNL     1       7.337   1.758  -0.055  0.00  0.00    -0.050 S 
ATOM     10  O   UNL     1       7.030  -2.003  -0.091  0.00  0.00    -0.265 OA
BRANCH   2  13
ATOM     11  C   UNL     1      -0.016   1.343   0.009  0.00  0.00    +0.042 A 
ATOM     12  C   UNL     1       1.325   1.774  -0.001  0.00  0.00    +0.053 A 
ATOM     13  C   UNL     1       2.096   0.655  -0.014  0.00  0.00    +0.173 A 
ATOM     14  O   UNL     1       1.280  -0.417  -0.012  0.00  0.00    -0.460 OA
ATOM     15  C   UNL     1       0.002  -0.004   0.002  0.00  0.00    +0.196 A 
ENDBRANCH   2  13
ENDBRANCH   1   8
BRANCH   1  16
ATOM     16  C   UNL     1      10.132   0.099   1.188  0.00  0.00    -0.038 A 
ATOM     17  C   UNL     1      10.824   1.294   1.250  0.00  0.00    +0.005 A 
ATOM     18  C   UNL     1      11.434   1.680   2.429  0.00  0.00    +0.020 A 
ATOM     19  C   UNL     1      11.351   0.871   3.548  0.00  0.00    +0.042 A 
ATOM     20  C   UNL     1      10.658  -0.325   3.487  0.00  0.00    +0.040 A 
ATOM     21  C   UNL     1      10.044  -0.708   2.308  0.00  0.00    +0.044 A 
ATOM     22 CL   UNL     1       9.168  -2.205   2.232  0.00  0.00    -0.083 Cl
ATOM     23 CL   UNL     1      12.118   1.355   5.028  0.00  0.00    -0.083 Cl
ENDBRANCH   1  16
BRANCH   1  24
ATOM     24  N   UNL     1      10.152   0.313  -1.232  0.00  0.00    +0.387 N 
ATOM     25  C   UNL     1      11.555  -0.167  -1.316  0.00  0.00    -0.078 C 
ATOM     26  C   UNL     1      11.936   0.110  -2.792  0.00  0.00    -0.020 C 
ATOM     27  C   UNL     1      10.630  -0.214  -3.553  0.00  0.00    -0.020 C 
ATOM     28  C   UNL     1       9.511  -0.089  -2.503  0.00  0.00    -0.078 C 
ATOM     29  H   UNL     1      10.131   1.317  -1.135  0.00  0.00    -0.080 HD
ENDBRANCH   1  24
TORSDOF 4
