REMARK  Name = ZINC46192366
REMARK  6 active torsions:
REMARK  status: ('A' for Active; 'I' for Inactive)
REMARK    1  A    between atoms: C_1  and  C_2
REMARK    2  A    between atoms: C_3  and  C_26
REMARK    3  A    between atoms: C_7  and  N_11
REMARK    4  A    between atoms: N_11  and  N_12
REMARK    5  A    between atoms: N_20  and  C_23
REMARK    6  A    between atoms: C_23  and  C_24
REMARK                            x       y       z     vdW  Elec       q    Type
REMARK                         _______ _______ _______ _____ _____    ______ ____
ROOT
ATOM      1  N   UNL     1       0.427   1.552   3.916  0.00  0.00    -0.175 NA
ATOM      2  C   UNL     1       0.333   2.837   4.172  0.00  0.00    +0.153 C 
ATOM      3  C   UNL     1       0.098   3.934   3.206  0.00  0.00    +0.028 A 
ATOM      4  C   UNL     1      -0.085   3.967   1.828  0.00  0.00    +0.012 A 
ATOM      5  C   UNL     1      -0.288   5.176   1.193  0.00  0.00    +0.001 A 
ATOM      6  C   UNL     1      -0.309   6.351   1.927  0.00  0.00    +0.002 A 
ATOM      7  C   UNL     1      -0.129   6.328   3.295  0.00  0.00    +0.024 A 
ATOM      8  C   UNL     1       0.077   5.120   3.952  0.00  0.00    +0.046 A 
ATOM      9  N   UNL     1       0.281   4.821   5.294  0.00  0.00    -0.262 N 
ATOM     10  C   UNL     1       0.432   3.499   5.485  0.00  0.00    +0.272 C 
ATOM     11  O   UNL     1       0.620   2.947   6.554  0.00  0.00    -0.268 OA
ENDROOT
BRANCH   1  12
ATOM     12  N   UNL     1       0.197   1.114   2.725  0.00  0.00    -0.220 N 
ATOM     13  H   UNL     1      -0.128   1.719   2.039  0.00  0.00    +0.176 HD
BRANCH  12  20
ATOM     14  C   UNL     1      -1.796   1.120   0.656  0.00  0.00    +0.045 C 
ATOM     15  C   UNL     1      -1.370  -0.321   0.532  0.00  0.00    -0.028 A 
ATOM     16  C   UNL     1      -1.940  -1.120  -0.383  0.00  0.00    -0.008 A 
ATOM     17  S   UNL     1      -1.119  -2.683  -0.141  0.00  0.00    -0.074 S 
ATOM     18  C   UNL     1      -0.032  -2.222   1.183  0.00  0.00    +0.114 A 
ATOM     19  C   UNL     1      -0.335  -0.858   1.396  0.00  0.00    +0.052 A 
ATOM     20  C   UNL     1       0.412  -0.222   2.424  0.00  0.00    +0.150 A 
ATOM     21  N   UNL     1       1.317  -0.921   3.091  0.00  0.00    -0.219 NA
ATOM     22  C   UNL     1       1.551  -2.194   2.834  0.00  0.00    +0.224 A 
ATOM     23  N   UNL     1       0.883  -2.842   1.898  0.00  0.00    -0.228 NA
ATOM     24  C   UNL     1      -3.019  -0.777  -1.378  0.00  0.00    +0.052 C 
ENDBRANCH  12  20
ENDBRANCH   1  12
BRANCH   9  25
ATOM     25  C   UNL     1       0.322   5.820   6.365  0.00  0.00    +0.140 C 
BRANCH  25  26
ATOM     26  C   UNL     1      -1.066   6.023   6.915  0.00  0.00    -0.015 C 
ATOM     27  C   UNL     1      -1.291   5.877   8.197  0.00  0.00    +0.005 C 
ENDBRANCH  25  26
ENDBRANCH   9  25
TORSDOF 4
