REMARK  Name = ZINC32093344
REMARK  7 active torsions:
REMARK  status: ('A' for Active; 'I' for Inactive)
REMARK    1  A    between atoms: C_1  and  C_2
REMARK    2  A    between atoms: C_2  and  C_3
REMARK    3  A    between atoms: C_2  and  C_4
REMARK    4  A    between atoms: C_4  and  N_5
REMARK    5  A    between atoms: N_23  and  C_24
REMARK    6  A    between atoms: C_27  and  O_30
REMARK    7  A    between atoms: O_30  and  C_31
REMARK                            x       y       z     vdW  Elec       q    Type
REMARK                         _______ _______ _______ _____ _____    ______ ____
ROOT
ATOM      1  N   UNL     1      -1.416  -1.993  -0.116  0.00  0.00    -0.270 N 
ATOM      2  C   UNL     1      -1.448  -2.664  -1.325  0.00  0.00    +0.041 A 
ATOM      3  C   UNL     1      -1.503  -2.149  -2.622  0.00  0.00    +0.024 A 
ATOM      4  C   UNL     1      -1.524  -3.061  -3.666  0.00  0.00    +0.002 A 
ATOM      5  C   UNL     1      -1.493  -4.423  -3.446  0.00  0.00    +0.000 A 
ATOM      6  C   UNL     1      -1.438  -4.949  -2.159  0.00  0.00    +0.007 A 
ATOM      7  C   UNL     1      -1.417  -4.048  -1.116  0.00  0.00    -0.006 A 
ATOM      8  C   UNL     1      -1.364  -4.245   0.365  0.00  0.00    +0.112 C 
ATOM      9  C   UNL     1      -1.363  -2.842   0.932  0.00  0.00    +0.235 C 
ATOM     10  O   UNL     1      -1.323  -2.538   2.106  0.00  0.00    -0.274 OA
ATOM     11  C   UNL     1      -2.583  -5.018   0.864  0.00  0.00    +0.122 C 
ATOM     12  C   UNL     1      -2.415  -6.496   0.653  0.00  0.00    +0.220 C 
ATOM     13  O   UNL     1      -3.380  -7.157   0.331  0.00  0.00    -0.275 OA
ATOM     14  N   UNL     1      -1.225  -7.113   0.810  0.00  0.00    -0.270 N 
ATOM     15  C   UNL     1      -0.087  -6.325   0.978  0.00  0.00    +0.133 A 
ATOM     16  C   UNL     1      -0.113  -4.968   0.778  0.00  0.00    +0.032 A 
ATOM     17  C   UNL     1       1.160  -4.476   1.026  0.00  0.00    +0.141 A 
ATOM     18  N   UNL     1       1.936  -5.484   1.351  0.00  0.00    -0.173 NA
ATOM     19  N   UNL     1       1.173  -6.662   1.320  0.00  0.00    -0.218 N 
ATOM     20  H   UNL     1      -1.163  -8.081   0.806  0.00  0.00    +0.156 HD
ENDROOT
BRANCH  19  21
ATOM     21  C   UNL     1       1.637  -7.957   1.596  0.00  0.00    +0.068 A 
ATOM     22  C   UNL     1       0.806  -8.874   2.225  0.00  0.00    +0.031 A 
ATOM     23  C   UNL     1       1.264 -10.148   2.496  0.00  0.00    +0.048 A 
ATOM     24  C   UNL     1       2.554 -10.512   2.140  0.00  0.00    +0.120 A 
ATOM     25  C   UNL     1       3.386  -9.596   1.512  0.00  0.00    +0.048 A 
ATOM     26  C   UNL     1       2.927  -8.323   1.235  0.00  0.00    +0.031 A 
BRANCH  24  27
ATOM     27  O   UNL     1       3.005 -11.767   2.407  0.00  0.00    -0.495 OA
ATOM     28  C   UNL     1       4.344 -12.073   2.013  0.00  0.00    +0.277 C 
ENDBRANCH  24  27
ENDBRANCH  19  21
BRANCH   1  29
ATOM     29  C   UNL     1      -1.433  -0.534   0.013  0.00  0.00    +0.116 C 
BRANCH  29  31
ATOM     30  C   UNL     1      -0.019   1.526   0.010  0.00  0.00    +0.009 C 
ATOM     31  C   UNL     1       0.002  -0.004   0.002  0.00  0.00    +0.001 C 
ATOM     32  C   UNL     1       0.742  -0.511   1.242  0.00  0.00    +0.009 C 
ENDBRANCH  29  31
ENDBRANCH   1  29
TORSDOF 4
