REMARK  Name = ZINC20394277
REMARK  7 active torsions:
REMARK  status: ('A' for Active; 'I' for Inactive)
REMARK    1  A    between atoms: C_1  and  C_2
REMARK    2  A    between atoms: C_5  and  N_8
REMARK    3  A    between atoms: C_17  and  C_21
REMARK    4  A    between atoms: C_17  and  N_25
REMARK    5  A    between atoms: C_26  and  C_28
REMARK    6  A    between atoms: C_28  and  C_29
REMARK    7  A    between atoms: C_29  and  C_30
REMARK                            x       y       z     vdW  Elec       q    Type
REMARK                         _______ _______ _______ _____ _____    ______ ____
ROOT
ATOM      1  N   UNL     1      -1.523   2.158  -0.006  0.00  0.00    -0.249 N 
ATOM      2  C   UNL     1      -1.518   3.498   0.327  0.00  0.00    +0.125 A 
ATOM      3  C   UNL     1      -0.331   4.167   0.302  0.00  0.00    +0.097 A 
ATOM      4  C   UNL     1       0.848   3.498  -0.051  0.00  0.00    +0.262 A 
ATOM      5  O   UNL     1       1.911   4.095  -0.074  0.00  0.00    -0.267 OA
ATOM      6  N   UNL     1       0.795   2.187  -0.364  0.00  0.00    -0.274 N 
ATOM      7  H   UNL     1       1.714   1.650  -0.643  0.00  0.00    +0.173 HD
ATOM      8  C   UNL     1      -0.380   1.532  -0.337  0.00  0.00    +0.335 A 
ATOM      9  O   UNL     1      -0.410   0.351  -0.622  0.00  0.00    -0.246 OA
ATOM     10  C   UNL     1      -0.631   5.593   0.700  0.00  0.00    +0.240 C 
ATOM     11  C   UNL     1      -2.128   5.587   0.938  0.00  0.00    +0.256 C 
ATOM     12  O   UNL     1      -2.813   6.528   1.279  0.00  0.00    -0.272 OA
ATOM     13  N   UNL     1      -2.546   4.332   0.696  0.00  0.00    -0.269 N 
ATOM     14  H   UNL     1      -3.572   3.944   0.765  0.00  0.00    +0.156 HD
ENDROOT
BRANCH   1  19
ATOM     15  C   UNL     1      -6.403  -0.737   0.042  0.00  0.00    +0.044 C 
ATOM     16  C   UNL     1      -5.107   0.031   0.029  0.00  0.00    -0.050 A 
ATOM     17  C   UNL     1      -4.896   1.013  -0.922  0.00  0.00    +0.005 A 
ATOM     18  C   UNL     1      -3.710   1.719  -0.936  0.00  0.00    +0.026 A 
ATOM     19  C   UNL     1      -2.728   1.443   0.006  0.00  0.00    +0.053 A 
ATOM     20  C   UNL     1      -2.940   0.453   0.956  0.00  0.00    +0.026 A 
ATOM     21  C   UNL     1      -4.131  -0.246   0.969  0.00  0.00    +0.005 A 
ENDBRANCH   1  19
BRANCH  10  22
ATOM     22  C   UNL     1       0.117   5.963   1.982  0.00  0.00    +0.424 C 
ATOM     23  F   UNL     1       1.495   5.950   1.739  0.00  0.00    -0.167 F 
ATOM     24  F   UNL     1      -0.271   7.242   2.396  0.00  0.00    -0.167 F 
ATOM     25  F   UNL     1      -0.188   5.036   2.984  0.00  0.00    -0.167 F 
ENDBRANCH  10  22
BRANCH  10  26
ATOM     26  N   UNL     1      -0.285   6.515  -0.385  0.00  0.00    -0.291 N 
ATOM     27  C   UNL     1      -0.899   6.410  -1.580  0.00  0.00    +0.214 C 
ATOM     28  O   UNL     1      -1.673   5.500  -1.787  0.00  0.00    -0.276 OA
ATOM     29  H   UNL     1       0.476   7.293  -0.224  0.00  0.00    +0.150 HD
BRANCH  27  30
ATOM     30  C   UNL     1      -0.623   7.424  -2.661  0.00  0.00    +0.096 C 
BRANCH  30  31
ATOM     31  C   UNL     1      -1.440   7.077  -3.906  0.00  0.00    +0.013 C 
BRANCH  31  32
ATOM     32  C   UNL     1      -1.161   8.106  -5.003  0.00  0.00    -0.011 C 
ATOM     33  C   UNL     1      -1.667   9.479  -4.556  0.00  0.00    +0.003 C 
ATOM     34  C   UNL     1      -1.388  10.508  -5.653  0.00  0.00    +0.000 C 
ATOM     35  C   UNL     1      -2.107  10.093  -6.938  0.00  0.00    +0.000 C 
ATOM     36  C   UNL     1      -1.600   8.720  -7.385  0.00  0.00    +0.000 C 
ATOM     37  C   UNL     1      -1.880   7.691  -6.288  0.00  0.00    +0.003 C 
ENDBRANCH  31  32
ENDBRANCH  30  31
ENDBRANCH  27  30
ENDBRANCH  10  26
TORSDOF 6
