REMARK  Name = ZINC41141787
REMARK  7 active torsions:
REMARK  status: ('A' for Active; 'I' for Inactive)
REMARK    1  A    between atoms: C_1  and  C_2
REMARK    2  A    between atoms: C_5  and  C_8
REMARK    3  A    between atoms: C_10  and  C_24
REMARK    4  A    between atoms: C_12  and  C_23
REMARK    5  A    between atoms: N_14  and  C_15
REMARK    6  A    between atoms: C_18  and  C_22
REMARK    7  A    between atoms: C_19  and  C_21
REMARK                            x       y       z     vdW  Elec       q    Type
REMARK                         _______ _______ _______ _____ _____    ______ ____
ROOT
ATOM      1  C   UNL     1      -0.667  -4.645  -0.977  0.00  0.00    +0.148 C 
ATOM      2  C   UNL     1      -1.309  -4.840   0.412  0.00  0.00    +0.174 C 
ATOM      3  C   UNL     1      -0.132  -4.801   1.361  0.00  0.00    +0.050 C 
ATOM      4  N   UNL     1       0.942  -4.627   0.707  0.00  0.00    -0.188 NA
ATOM      5  N   UNL     1       0.768  -4.521  -0.676  0.00  0.00    -0.216 N 
ATOM      6  C   UNL     1      -0.221  -4.946   2.858  0.00  0.00    +0.063 C 
ENDROOT
BRANCH   5   7
ATOM      7  C   UNL     1       1.784  -4.330  -1.615  0.00  0.00    +0.052 A 
ATOM      8  C   UNL     1       1.473  -4.235  -2.966  0.00  0.00    +0.025 A 
ATOM      9  C   UNL     1       2.480  -4.046  -3.892  0.00  0.00    +0.005 A 
ATOM     10  C   UNL     1       3.796  -3.951  -3.476  0.00  0.00    -0.047 A 
ATOM     11  C   UNL     1       4.108  -4.045  -2.133  0.00  0.00    -0.046 A 
ATOM     12  C   UNL     1       3.106  -4.229  -1.200  0.00  0.00    +0.028 A 
ATOM     13  C   UNL     1       5.543  -3.942  -1.685  0.00  0.00    +0.044 C 
ATOM     14  C   UNL     1       4.891  -3.745  -4.490  0.00  0.00    +0.044 C 
ENDBRANCH   5   7
BRANCH   1  19
ATOM     15  C   UNL     1      -2.645   0.173  -3.482  0.00  0.00    +0.044 C 
ATOM     16  C   UNL     1      -2.129  -1.083  -2.828  0.00  0.00    -0.050 A 
ATOM     17  C   UNL     1      -1.139  -1.006  -1.867  0.00  0.00    +0.004 A 
ATOM     18  C   UNL     1      -0.666  -2.159  -1.267  0.00  0.00    +0.006 A 
ATOM     19  C   UNL     1      -1.184  -3.388  -1.629  0.00  0.00    -0.024 A 
ATOM     20  C   UNL     1      -2.174  -3.466  -2.591  0.00  0.00    +0.006 A 
ATOM     21  C   UNL     1      -2.650  -2.313  -3.187  0.00  0.00    +0.004 A 
ENDBRANCH   1  19
BRANCH   2  22
ATOM     22  C   UNL     1      -2.272  -3.720   0.712  0.00  0.00    +0.367 C 
ATOM     23  O   UNL     1      -3.456  -3.848   0.451  0.00  0.00    -0.246 OA
ATOM     24  O   UNL     1      -1.867  -2.686   1.216  0.00  0.00    -0.246 OA
ENDBRANCH   2  22
TORSDOF 3
