REMARK  Name = ZINC63372148
REMARK  6 active torsions:
REMARK  status: ('A' for Active; 'I' for Inactive)
REMARK    1  A    between atoms: C_1  and  C_2
REMARK    2  A    between atoms: C_2  and  C_3
REMARK    3  A    between atoms: C_3  and  C_5
REMARK    4  A    between atoms: C_3  and  N_6
REMARK    5  A    between atoms: C_7  and  O_31
REMARK    6  A    between atoms: C_9  and  C_16
REMARK                            x       y       z     vdW  Elec       q    Type
REMARK                         _______ _______ _______ _____ _____    ______ ____
ROOT
ATOM      1  N   UNL     1       2.108  -0.078  -1.213  0.00  0.00    -0.256 N 
ATOM      2  C   UNL     1       2.647   0.792  -2.261  0.00  0.00    +0.220 C 
ATOM      3  C   UNL     1       3.684   1.740  -1.655  0.00  0.00    +0.141 C 
ATOM      4  C   UNL     1       4.619   0.953  -0.771  0.00  0.00    +0.229 C 
ATOM      5  O   UNL     1       5.786   1.270  -0.690  0.00  0.00    -0.275 OA
ATOM      6  N   UNL     1       4.156  -0.100  -0.072  0.00  0.00    -0.240 N 
ATOM      7  C   UNL     1       2.888  -0.517  -0.212  0.00  0.00    +0.311 C 
ATOM      8  O   UNL     1       2.436  -1.315   0.585  0.00  0.00    -0.252 OA
ATOM      9  H   UNL     1       4.747  -0.561   0.543  0.00  0.00    +0.159 HD
ENDROOT
BRANCH   3  10
ATOM     10  C   UNL     1       4.481   2.410  -2.776  0.00  0.00    +0.096 C 
ATOM     11  C   UNL     1       3.529   3.165  -3.706  0.00  0.00    +0.124 C 
ATOM     12  C   UNL     1       4.374   3.652  -4.877  0.00  0.00    -0.036 C 
ATOM     13  C   UNL     1       4.175   4.960  -4.965  0.00  0.00    -0.001 A 
ATOM     14  C   UNL     1       4.643   5.962  -5.936  0.00  0.00    +0.010 A 
ATOM     15  C   UNL     1       4.252   7.244  -5.712  0.00  0.00    +0.001 A 
ATOM     16  C   UNL     1       3.452   7.626  -4.630  0.00  0.00    +0.002 A 
ATOM     17  C   UNL     1       2.971   6.771  -3.692  0.00  0.00    +0.026 A 
ATOM     18  C   UNL     1       3.310   5.393  -3.825  0.00  0.00    +0.043 A 
ATOM     19  N   UNL     1       2.962   4.360  -3.083  0.00  0.00    -0.376 N 
ATOM     20  C   UNL     1       5.292   2.722  -5.633  0.00  0.00    +0.048 C 
ATOM     21  C   UNL     1       6.092   1.950  -4.568  0.00  0.00    +0.085 C 
ATOM     22  N   UNL     1       5.185   1.386  -3.564  0.00  0.00    -0.310 NA
ATOM     23  H   UNL     1       5.668   0.736  -2.963  0.00  0.00    +0.122 HD
ATOM     24  H   UNL     1       2.433   4.379  -2.270  0.00  0.00    +0.160 HD
ENDBRANCH   3  10
BRANCH   1  25
ATOM     25  C   UNL     1       0.697  -0.469  -1.255  0.00  0.00    +0.077 C 
ATOM     26  C   UNL     1       0.592  -1.993  -1.337  0.00  0.00    +0.028 C 
BRANCH  25  28
ATOM     27  C   UNL     1      -0.010   1.553   0.033  0.00  0.00    +0.006 C 
ATOM     28  C   UNL     1      -0.006   0.023   0.013  0.00  0.00    +0.019 C 
ENDBRANCH  25  28
ENDBRANCH   1  25
BRANCH   2  29
ATOM     29  O   UNL     1       3.267  -0.008  -3.271  0.00  0.00    -0.373 OA
ATOM     30  H   UNL     1       2.667  -0.633  -3.700  0.00  0.00    +0.212 HD
ENDBRANCH   2  29
TORSDOF 4
