REMARK  Name = ZINC39664662
REMARK  8 active torsions:
REMARK  status: ('A' for Active; 'I' for Inactive)
REMARK    1  A    between atoms: C_1  and  N_2
REMARK    2  A    between atoms: N_2  and  C_3
REMARK    3  A    between atoms: N_2  and  C_4
REMARK    4  A    between atoms: C_4  and  C_5
REMARK    5  A    between atoms: C_5  and  C_7
REMARK    6  A    between atoms: C_5  and  N_13
REMARK    7  A    between atoms: C_14  and  C_16
REMARK    8  A    between atoms: C_27  and  C_29
REMARK                            x       y       z     vdW  Elec       q    Type
REMARK                         _______ _______ _______ _____ _____    ______ ____
ROOT
ATOM      1  C   UNL     1      -4.084  -0.032   2.168  0.00  0.00    +0.100 C 
ATOM      2  C   UNL     1      -4.542   0.001   3.644  0.00  0.00    +0.121 C 
ATOM      3  N   UNL     1      -5.077   1.369   3.838  0.00  0.00    -0.296 N 
ATOM      4  C   UNL     1      -5.800   1.665   2.578  0.00  0.00    +0.115 C 
ATOM      5  C   UNL     1      -4.914   1.059   1.472  0.00  0.00    -0.004 C 
ATOM      6  C   UNL     1      -3.997   2.128   0.887  0.00  0.00    -0.010 C 
ATOM      7  C   UNL     1      -4.842   3.172   0.151  0.00  0.00    -0.082 C 
ATOM      8  N   UNL     1      -5.609   2.519  -0.917  0.00  0.00    +0.379 N 
ATOM      9  C   UNL     1      -6.555   1.557  -0.338  0.00  0.00    -0.082 C 
ATOM     10  C   UNL     1      -5.782   0.445   0.378  0.00  0.00    -0.010 C 
ATOM     11  C   UNL     1      -4.939   2.165   4.918  0.00  0.00    +0.250 C 
ATOM     12  O   UNL     1      -4.231   1.816   5.843  0.00  0.00    -0.270 OA
ATOM     13  H   UNL     1      -6.118   3.216  -1.439  0.00  0.00    -0.086 HD
ATOM     14  H   UNL     1      -4.976   2.035  -1.536  0.00  0.00    -0.086 HD
ENDROOT
BRANCH  11  15
ATOM     15  C   UNL     1      -5.646   3.461   4.976  0.00  0.00    +0.074 A 
ATOM     16  C   UNL     1      -6.904   3.613   4.380  0.00  0.00    +0.017 A 
ATOM     17  C   UNL     1      -7.525   4.846   4.464  0.00  0.00    +0.021 A 
ATOM     18  C   UNL     1      -6.890   5.881   5.127  0.00  0.00    +0.112 A 
ATOM     19  N   UNL     1      -5.704   5.710   5.680  0.00  0.00    -0.243 NA
ATOM     20  C   UNL     1      -5.074   4.553   5.632  0.00  0.00    +0.141 A 
ATOM     21 CL   UNL     1      -3.519   4.388   6.385  0.00  0.00    -0.061 Cl
ENDBRANCH  11  15
BRANCH   1  23
ATOM     22  N   UNL     1      -1.997   0.945   3.067  0.00  0.00    -0.310 N 
ATOM     23  C   UNL     1      -2.614   0.283   2.068  0.00  0.00    +0.219 C 
ATOM     24  O   UNL     1      -1.986  -0.059   1.089  0.00  0.00    -0.275 OA
ATOM     25  H   UNL     1      -2.487   1.174   3.872  0.00  0.00    +0.149 HD
BRANCH  22  26
ATOM     26  C   UNL     1      -0.587   1.319   2.937  0.00  0.00    +0.087 C 
BRANCH  26  27
ATOM     27  C   UNL     1      -0.335   2.600   3.690  0.00  0.00    -0.029 A 
ATOM     28  C   UNL     1      -0.931   2.807   4.920  0.00  0.00    +0.005 A 
ATOM     29  C   UNL     1      -0.700   3.982   5.611  0.00  0.00    +0.000 A 
ATOM     30  C   UNL     1       0.127   4.949   5.073  0.00  0.00    +0.000 A 
ATOM     31  C   UNL     1       0.724   4.742   3.844  0.00  0.00    +0.000 A 
ATOM     32  C   UNL     1       0.497   3.565   3.154  0.00  0.00    +0.005 A 
ENDBRANCH  26  27
BRANCH  26  33
ATOM     33  C   UNL     1       0.291   0.207   3.513  0.00  0.00    -0.052 C 
BRANCH  33  35
ATOM     34  C   UNL     1       0.598  -0.851   1.382  0.00  0.00    -0.097 C 
ATOM     35  N   UNL     1       0.083  -1.028   2.747  0.00  0.00    +0.377 N 
ATOM     36  C   UNL     1       0.796  -2.135   3.399  0.00  0.00    -0.097 C 
ATOM     37  H   UNL     1      -0.903  -1.239   2.710  0.00  0.00    -0.083 HD
ENDBRANCH  33  35
ENDBRANCH  26  33
ENDBRANCH  22  26
ENDBRANCH   1  23
TORSDOF 6
