REMARK  Name = ZINC38745446
REMARK  3 active torsions:
REMARK  status: ('A' for Active; 'I' for Inactive)
REMARK    1  A    between atoms: C_4  and  C_7
REMARK    2  A    between atoms: C_9  and  C_13
REMARK    3  A    between atoms: C_17  and  C_22
REMARK                            x       y       z     vdW  Elec       q    Type
REMARK                         _______ _______ _______ _____ _____    ______ ____
ROOT
ATOM      1  C   UNL     1       5.763  -2.987  -1.332  0.00  0.00    +0.182 C 
ATOM      2  N   UNL     1       7.215  -3.310  -1.314  0.00  0.00    -0.265 N 
ATOM      3  N   UNL     1       7.528  -4.525  -0.782  0.00  0.00    -0.221 N 
ATOM      4  C   UNL     1       8.641  -5.137  -0.233  0.00  0.00    +0.195 A 
ATOM      5  N   UNL     1       8.320  -6.362   0.063  0.00  0.00    -0.128 NA
ATOM      6  N   UNL     1       7.088  -6.581  -0.237  0.00  0.00    -0.121 NA
ATOM      7  C   UNL     1       6.566  -5.501  -0.729  0.00  0.00    +0.211 A 
ATOM      8  S   UNL     1       5.101  -4.710  -1.366  0.00  0.00    -0.058 S 
ATOM      9  H   UNL     1       7.621  -3.201  -2.231  0.00  0.00    +0.168 HD
ENDROOT
BRANCH   4  10
ATOM     10  C   UNL     1       9.988  -4.497  -0.016  0.00  0.00    +0.280 C 
ATOM     11  C   UNL     1      10.983  -5.021  -1.060  0.00  0.00    +0.281 C 
ATOM     12  O   UNL     1      12.253  -4.405  -0.818  0.00  0.00    -0.484 OA
ATOM     13  C   UNL     1      12.684  -4.380   0.473  0.00  0.00    +0.162 A 
ATOM     14  C   UNL     1      14.024  -4.141   0.739  0.00  0.00    +0.049 A 
ATOM     15  C   UNL     1      14.476  -4.109   2.044  0.00  0.00    +0.004 A 
ATOM     16  C   UNL     1      13.594  -4.317   3.089  0.00  0.00    +0.004 A 
ATOM     17  C   UNL     1      12.258  -4.558   2.831  0.00  0.00    +0.049 A 
ATOM     18  C   UNL     1      11.798  -4.592   1.523  0.00  0.00    +0.163 A 
ATOM     19  O   UNL     1      10.480  -4.837   1.284  0.00  0.00    -0.474 OA
ENDBRANCH   4  10
BRANCH   1  22
ATOM     20  C   UNL     1       3.699  -0.689  -0.037  0.00  0.00    +0.091 C 
ATOM     21  C   UNL     1       3.832  -2.029  -0.051  0.00  0.00    +0.034 C 
ATOM     22  C   UNL     1       5.335  -2.245  -0.065  0.00  0.00    +0.185 C 
ATOM     23  N   UNL     1       5.871  -0.874  -0.056  0.00  0.00    -0.177 NA
ATOM     24  N   UNL     1       4.919  -0.090  -0.047  0.00  0.00    -0.154 NA
BRANCH  20  28
ATOM     25  C   UNL     1      -0.017   1.379   0.010  0.00  0.00    +0.000 A 
ATOM     26  C   UNL     1       1.169   2.092   0.002  0.00  0.00    +0.001 A 
ATOM     27  C   UNL     1       2.377   1.426  -0.013  0.00  0.00    +0.010 A 
ATOM     28  C   UNL     1       2.402   0.033  -0.021  0.00  0.00    +0.002 A 
ATOM     29  C   UNL     1       1.205  -0.680  -0.013  0.00  0.00    +0.010 A 
ATOM     30  C   UNL     1       0.002  -0.004   0.002  0.00  0.00    +0.001 A 
ENDBRANCH  20  28
ENDBRANCH   1  22
TORSDOF 3
