REMARK  Name = ZINC39686460
REMARK  10 active torsions:
REMARK  status: ('A' for Active; 'I' for Inactive)
REMARK    1  A    between atoms: C_1  and  C_2
REMARK    2  A    between atoms: C_2  and  C_3
REMARK    3  A    between atoms: C_6  and  C_9
REMARK    4  A    between atoms: C_13  and  C_22
REMARK    5  A    between atoms: N_24  and  C_25
REMARK    6  A    between atoms: C_25  and  C_27
REMARK    7  A    between atoms: C_25  and  C_28
REMARK    8  A    between atoms: C_28  and  C_29
REMARK    9  A    between atoms: C_34  and  O_35
REMARK   10  A    between atoms: O_35  and  C_36
REMARK                            x       y       z     vdW  Elec       q    Type
REMARK                         _______ _______ _______ _____ _____    ______ ____
ROOT
ATOM      1  C   UNL     1       2.724  -2.535  -5.051  0.00  0.00    +0.247 C 
ATOM      2  O   UNL     1       2.156  -2.804  -6.091  0.00  0.00    -0.270 OA
ATOM      3  N   UNL     1       4.071  -2.494  -5.010  0.00  0.00    -0.296 N 
ATOM      4  C   UNL     1       4.938  -2.311  -3.822  0.00  0.00    +0.121 C 
ATOM      5  C   UNL     1       6.129  -3.267  -4.058  0.00  0.00    +0.100 C 
ATOM      6  C   UNL     1       6.178  -3.465  -5.582  0.00  0.00    -0.004 C 
ATOM      7  C   UNL     1       5.019  -2.627  -6.142  0.00  0.00    +0.115 C 
ATOM      8  C   UNL     1       7.508  -2.966  -6.137  0.00  0.00    -0.010 C 
ATOM      9  C   UNL     1       7.557  -3.226  -7.646  0.00  0.00    -0.082 C 
ATOM     10  N   UNL     1       7.406  -4.664  -7.901  0.00  0.00    +0.379 N 
ATOM     11  C   UNL     1       6.085  -5.117  -7.447  0.00  0.00    -0.082 C 
ATOM     12  C   UNL     1       5.975  -4.936  -5.930  0.00  0.00    -0.010 C 
ATOM     13  H   UNL     1       7.499  -4.840  -8.890  0.00  0.00    -0.086 HD
ATOM     14  H   UNL     1       8.123  -5.170  -7.403  0.00  0.00    -0.086 HD
ENDROOT
BRANCH   1  18
ATOM     15  C   UNL     1       0.467  -1.729  -1.544  0.00  0.00    -0.048 A 
ATOM     16  C   UNL     1      -0.126  -2.381  -2.611  0.00  0.00    +0.004 A 
ATOM     17  C   UNL     1       0.601  -2.646  -3.752  0.00  0.00    +0.013 A 
ATOM     18  C   UNL     1       1.939  -2.254  -3.830  0.00  0.00    +0.037 A 
ATOM     19  C   UNL     1       2.531  -1.597  -2.751  0.00  0.00    +0.013 A 
ATOM     20  C   UNL     1       1.791  -1.333  -1.617  0.00  0.00    +0.004 A 
BRANCH  15  22
ATOM     21  C   UNL     1      -1.014  -0.079  -0.434  0.00  0.00    +0.009 C 
ATOM     22  C   UNL     1      -0.334  -1.443  -0.300  0.00  0.00    +0.032 C 
ENDBRANCH  15  22
ENDBRANCH   1  18
BRANCH   5  23
ATOM     23  C   UNL     1       7.409  -2.642  -3.566  0.00  0.00    +0.218 C 
ATOM     24  O   UNL     1       7.518  -1.434  -3.526  0.00  0.00    -0.275 OA
ATOM     25  N   UNL     1       8.433  -3.424  -3.171  0.00  0.00    -0.312 N 
ATOM     26  H   UNL     1       8.324  -4.387  -3.142  0.00  0.00    +0.149 HD
BRANCH  25  27
ATOM     27  C   UNL     1       9.710  -2.819  -2.785  0.00  0.00    +0.074 C 
ATOM     28  C   UNL     1      10.558  -2.577  -4.035  0.00  0.00    +0.028 C 
BRANCH  27  29
ATOM     29  C   UNL     1      10.455  -3.762  -1.838  0.00  0.00    +0.060 C 
BRANCH  29  30
ATOM     30  C   UNL     1       9.690  -3.883  -0.545  0.00  0.00    -0.004 A 
ATOM     31  C   UNL     1       9.975  -3.035   0.509  0.00  0.00    +0.007 A 
ATOM     32  C   UNL     1       9.274  -3.146   1.695  0.00  0.00    +0.000 A 
ATOM     33  C   UNL     1       8.286  -4.105   1.830  0.00  0.00    +0.004 A 
ATOM     34  C   UNL     1       7.998  -4.954   0.780  0.00  0.00    +0.046 A 
ATOM     35  C   UNL     1       8.696  -4.841  -0.414  0.00  0.00    +0.123 A 
BRANCH  35  36
ATOM     36  O   UNL     1       8.410  -5.672  -1.450  0.00  0.00    -0.495 OA
ATOM     37  C   UNL     1       7.308  -6.565  -1.282  0.00  0.00    +0.277 C 
ENDBRANCH  35  36
ENDBRANCH  29  30
ENDBRANCH  27  29
ENDBRANCH  25  27
ENDBRANCH   5  23
TORSDOF 7
