REMARK  Name = ZINC12773067
REMARK  5 active torsions:
REMARK  status: ('A' for Active; 'I' for Inactive)
REMARK    1  A    between atoms: C_10  and  C_13
REMARK    2  A    between atoms: C_13  and  C_14
REMARK    3  A    between atoms: N_16  and  C_17
REMARK    4  A    between atoms: C_20  and  O_23
REMARK    5  A    between atoms: O_23  and  C_24
REMARK                            x       y       z     vdW  Elec       q    Type
REMARK                         _______ _______ _______ _____ _____    ______ ____
ROOT
ATOM      1  C   UNL     1       0.334   8.147  -0.516  0.00  0.00    +0.221 C 
ATOM      2  O   UNL     1       1.345   7.478  -0.532  0.00  0.00    -0.275 OA
ATOM      3  N   UNL     1      -0.861   7.556  -0.316  0.00  0.00    -0.285 N 
ATOM      4  H   UNL     1      -1.663   8.097  -0.244  0.00  0.00    +0.155 HD
ENDROOT
BRANCH   3   5
ATOM      5  C   UNL     1      -0.945   6.162  -0.212  0.00  0.00    +0.034 A 
ATOM      6  C   UNL     1       0.077   5.449   0.400  0.00  0.00    +0.027 A 
ATOM      7  C   UNL     1      -0.005   4.074   0.501  0.00  0.00    +0.048 A 
ATOM      8  C   UNL     1      -1.110   3.406  -0.006  0.00  0.00    +0.129 A 
ATOM      9  C   UNL     1      -2.130   4.117  -0.622  0.00  0.00    +0.048 A 
ATOM     10  C   UNL     1      -2.050   5.492  -0.720  0.00  0.00    +0.027 A 
BRANCH   8  11
ATOM     11  O   UNL     1      -1.191   2.052   0.094  0.00  0.00    -0.456 OA
BRANCH  11  12
ATOM     12  C   UNL     1      -2.229   1.428  -0.521  0.00  0.00    +0.129 A 
ATOM     13  C   UNL     1      -3.203   0.789   0.235  0.00  0.00    +0.047 A 
ATOM     14  C   UNL     1      -4.254   0.151  -0.393  0.00  0.00    +0.019 A 
ATOM     15  C   UNL     1      -4.337   0.146  -1.774  0.00  0.00    +0.018 A 
ATOM     16  C   UNL     1      -3.368   0.782  -2.529  0.00  0.00    +0.019 A 
ATOM     17  C   UNL     1      -2.315   1.422  -1.906  0.00  0.00    +0.047 A 
ATOM     18 BR   UNL     1      -5.778  -0.730  -2.631  0.00  0.00    -0.050 Br
ENDBRANCH  11  12
ENDBRANCH   8  11
ENDBRANCH   3   5
BRANCH   1  19
ATOM     19  C   UNL     1       0.413   9.638  -0.720  0.00  0.00    +0.150 C 
BRANCH  19  29
ATOM     20  C   UNL     1       2.087  12.392   3.432  0.00  0.00    +0.002 A 
ATOM     21  C   UNL     1       2.355  11.057   3.675  0.00  0.00    +0.004 A 
ATOM     22  C   UNL     1       2.520  10.177   2.620  0.00  0.00    +0.047 A 
ATOM     23  C   UNL     1       2.414  10.633   1.317  0.00  0.00    +0.143 A 
ATOM     24  C   UNL     1       2.122  11.974   1.074  0.00  0.00    +0.076 A 
ATOM     25  C   UNL     1       1.974  12.853   2.134  0.00  0.00    +0.027 A 
ATOM     26  N   UNL     1       2.002  12.423  -0.248  0.00  0.00    -0.280 N 
ATOM     27  C   UNL     1       1.940  11.519  -1.248  0.00  0.00    +0.259 C 
ATOM     28  O   UNL     1       1.939  11.888  -2.404  0.00  0.00    -0.271 OA
ATOM     29  C   UNL     1       1.873  10.048  -0.923  0.00  0.00    +0.268 C 
ATOM     30  O   UNL     1       2.611   9.786   0.272  0.00  0.00    -0.477 OA
ATOM     31  H   UNL     1       1.964  13.373  -0.443  0.00  0.00    +0.155 HD
ENDBRANCH  19  29
ENDBRANCH   1  19
TORSDOF 5
