REMARK  Name = ZINC38743709
REMARK  5 active torsions:
REMARK  status: ('A' for Active; 'I' for Inactive)
REMARK    1  A    between atoms: C_1  and  C_2
REMARK    2  A    between atoms: C_4  and  C_12
REMARK    3  A    between atoms: N_18  and  C_19
REMARK    4  A    between atoms: C_22  and  O_25
REMARK    5  A    between atoms: O_25  and  C_26
REMARK                            x       y       z     vdW  Elec       q    Type
REMARK                         _______ _______ _______ _____ _____    ______ ____
ROOT
ATOM      1  C   UNL     1      -2.332  -0.520  -1.030  0.00  0.00    +0.080 C 
ATOM      2  N   UNL     1      -2.175   0.357  -1.993  0.00  0.00    -0.151 NA
ATOM      3  N   UNL     1      -2.888   0.758  -2.945  0.00  0.00    -0.127 NA
ATOM      4  C   UNL     1      -4.124   0.382  -3.295  0.00  0.00    +0.180 C 
ATOM      5  S   UNL     1      -4.805  -0.801  -2.304  0.00  0.00    -0.082 S 
ATOM      6  C   UNL     1      -3.649  -1.297  -0.957  0.00  0.00    +0.134 C 
ATOM      7  N   UNL     1      -4.780   0.912  -4.367  0.00  0.00    -0.293 N 
ATOM      8  H   UNL     1      -5.705   0.673  -4.537  0.00  0.00    +0.154 HD
ENDROOT
BRANCH   1  11
ATOM      9  C   UNL     1      -0.151   1.442   0.161  0.00  0.00    +0.035 C 
ATOM     10  C   UNL     1       0.026  -0.065  -0.037  0.00  0.00    +0.109 C 
ATOM     11  C   UNL     1      -1.325  -0.744  -0.103  0.00  0.00    +0.007 C 
ATOM     12  C   UNL     1      -1.344  -1.646   0.971  0.00  0.00    +0.005 A 
ATOM     13  C   UNL     1      -2.315  -2.555   1.431  0.00  0.00    +0.010 A 
ATOM     14  C   UNL     1      -2.057  -3.323   2.524  0.00  0.00    +0.001 A 
ATOM     15  C   UNL     1      -0.845  -3.233   3.208  0.00  0.00    +0.002 A 
ATOM     16  C   UNL     1       0.134  -2.378   2.819  0.00  0.00    +0.026 A 
ATOM     17  C   UNL     1      -0.065  -1.547   1.688  0.00  0.00    +0.043 A 
ATOM     18  N   UNL     1       0.718  -0.647   1.116  0.00  0.00    -0.377 N 
ATOM     19  H   UNL     1       1.611  -0.410   1.413  0.00  0.00    +0.160 HD
ENDBRANCH   1  11
BRANCH   7  20
ATOM     20  C   UNL     1      -4.120   1.802  -5.221  0.00  0.00    +0.033 A 
ATOM     21  C   UNL     1      -2.750   1.688  -5.419  0.00  0.00    +0.027 A 
ATOM     22  C   UNL     1      -2.099   2.567  -6.263  0.00  0.00    +0.047 A 
ATOM     23  C   UNL     1      -2.814   3.562  -6.913  0.00  0.00    +0.120 A 
ATOM     24  C   UNL     1      -4.182   3.677  -6.716  0.00  0.00    +0.047 A 
ATOM     25  C   UNL     1      -4.835   2.796  -5.877  0.00  0.00    +0.027 A 
BRANCH  23  26
ATOM     26  O   UNL     1      -2.172   4.426  -7.744  0.00  0.00    -0.495 OA
ATOM     27  C   UNL     1      -2.969   5.427  -8.381  0.00  0.00    +0.277 C 
ENDBRANCH  23  26
ENDBRANCH   7  20
TORSDOF 3
