REMARK  Name = ZINC08772700
REMARK  14 active torsions:
REMARK  status: ('A' for Active; 'I' for Inactive)
REMARK    1  A    between atoms: C_1  and  C_2
REMARK    2  A    between atoms: C_2  and  C_3
REMARK    3  A    between atoms: C_3  and  C_5
REMARK    4  A    between atoms: C_3  and  N_67
REMARK    5  A    between atoms: N_9  and  C_10
REMARK    6  A    between atoms: C_10  and  C_11
REMARK    7  A    between atoms: C_17  and  C_18
REMARK    8  A    between atoms: C_17  and  N_67
REMARK    9  A    between atoms: C_23  and  C_24
REMARK   10  A    between atoms: C_23  and  N_67
REMARK   11  A    between atoms: C_28  and  O_35
REMARK   12  A    between atoms: C_33  and  O_34
REMARK   13  A    between atoms: O_35  and  C_36
REMARK   14  A    between atoms: C_36  and  C_37
REMARK                            x       y       z     vdW  Elec       q    Type
REMARK                         _______ _______ _______ _____ _____    ______ ____
ROOT
ATOM      1  N   UNL     1       0.501  -1.713   3.037  0.00  0.00    +0.394 N 
ATOM      2  H   UNL     1       0.117  -2.665   3.022  0.00  0.00    -0.080 HD
ENDROOT
BRANCH   1   3
ATOM      3  C   UNL     1      -0.406  -0.817   2.291  0.00  0.00    +0.003 C 
BRANCH   3   4
ATOM      4  C   UNL     1       0.213   0.548   2.131  0.00  0.00    +0.138 A 
ATOM      5  N   UNL     1       1.448   0.811   1.783  0.00  0.00    -0.115 NA
ATOM      6  N   UNL     1       1.591   2.091   1.757  0.00  0.00    -0.023 NA
ATOM      7  N   UNL     1       0.476   2.652   2.075  0.00  0.00    -0.044 NA
ATOM      8  N   UNL     1      -0.397   1.734   2.318  0.00  0.00    -0.226 N 
BRANCH   8   9
ATOM      9  C   UNL     1      -1.790   1.942   2.718  0.00  0.00    +0.182 C 
BRANCH   9  10
ATOM     10  C   UNL     1      -1.880   1.998   4.221  0.00  0.00    -0.026 A 
ATOM     11  C   UNL     1      -2.094   0.839   4.944  0.00  0.00    +0.005 A 
ATOM     12  C   UNL     1      -2.171   0.890   6.323  0.00  0.00    +0.000 A 
ATOM     13  C   UNL     1      -2.044   2.100   6.979  0.00  0.00    +0.000 A 
ATOM     14  C   UNL     1      -1.835   3.259   6.255  0.00  0.00    +0.000 A 
ATOM     15  C   UNL     1      -1.753   3.208   4.877  0.00  0.00    +0.005 A 
ENDBRANCH   9  10
ENDBRANCH   8   9
ENDBRANCH   3   4
BRANCH   3  17
ATOM     16  C   UNL     1      -1.340  -2.788   1.072  0.00  0.00    +0.002 C 
ATOM     17  C   UNL     1      -0.672  -1.421   0.910  0.00  0.00    -0.011 C 
ENDBRANCH   3  17
ENDBRANCH   1   3
BRANCH   1  18
ATOM     18  C   UNL     1       1.836  -1.724   2.402  0.00  0.00    -0.002 C 
BRANCH  18  19
ATOM     19  C   UNL     1       2.590  -2.936   2.884  0.00  0.00    +0.089 A 
ATOM     20  C   UNL     1       2.455  -4.188   2.409  0.00  0.00    +0.042 A 
ATOM     21  C   UNL     1       3.347  -5.003   3.142  0.00  0.00    +0.041 A 
ATOM     22  C   UNL     1       3.974  -4.201   4.022  0.00  0.00    +0.195 A 
ATOM     23  O   UNL     1       3.516  -2.950   3.857  0.00  0.00    -0.470 OA
ENDBRANCH  18  19
ENDBRANCH   1  18
BRANCH   1  24
ATOM     24  C   UNL     1       0.614  -1.264   4.441  0.00  0.00    -0.036 C 
BRANCH  24  25
ATOM     25  C   UNL     1       1.168  -2.395   5.268  0.00  0.00    -0.002 A 
ATOM     26  C   UNL     1       2.296  -2.209   6.011  0.00  0.00    +0.017 A 
ATOM     27  C   UNL     1       2.780  -3.293   6.771  0.00  0.00    +0.004 A 
ATOM     28  C   UNL     1       3.936  -3.171   7.557  0.00  0.00    +0.055 A 
ATOM     29  C   UNL     1       4.376  -4.243   8.281  0.00  0.00    +0.121 A 
ATOM     30  C   UNL     1       3.688  -5.459   8.245  0.00  0.00    +0.048 A 
ATOM     31  C   UNL     1       2.565  -5.607   7.492  0.00  0.00    +0.032 A 
ATOM     32  C   UNL     1       2.083  -4.525   6.735  0.00  0.00    +0.075 A 
ATOM     33  N   UNL     1       0.982  -4.647   5.985  0.00  0.00    -0.213 NA
ATOM     34  C   UNL     1       0.522  -3.637   5.279  0.00  0.00    +0.214 A 
BRANCH  34  35
ATOM     35  O   UNL     1      -0.602  -3.805   4.539  0.00  0.00    -0.492 OA
ATOM     36  H   UNL     1      -0.437  -4.115   3.638  0.00  0.00    +0.294 HD
ENDBRANCH  34  35
BRANCH  29  37
ATOM     37  O   UNL     1       5.495  -4.126   9.044  0.00  0.00    -0.492 OA
BRANCH  37  38
ATOM     38  C   UNL     1       5.904  -5.282   9.777  0.00  0.00    +0.225 C 
ATOM     39  C   UNL     1       7.173  -4.960  10.569  0.00  0.00    +0.048 C 
ENDBRANCH  37  38
ENDBRANCH  29  37
ENDBRANCH  24  25
ENDBRANCH   1  24
TORSDOF 12
