REMARK  Name = ZINC32999800
REMARK  11 active torsions:
REMARK  status: ('A' for Active; 'I' for Inactive)
REMARK    1  A    between atoms: C_1  and  C_2
REMARK    2  A    between atoms: C_2  and  C_3
REMARK    3  A    between atoms: C_2  and  C_4
REMARK    4  A    between atoms: C_4  and  C_6
REMARK    5  A    between atoms: C_4  and  N_22
REMARK    6  A    between atoms: N_8  and  C_9
REMARK    7  A    between atoms: C_9  and  C_10
REMARK    8  A    between atoms: C_10  and  C_12
REMARK    9  A    between atoms: C_10  and  O_21
REMARK   10  A    between atoms: C_15  and  N_18
REMARK   11  A    between atoms: C_23  and  C_25
REMARK                            x       y       z     vdW  Elec       q    Type
REMARK                         _______ _______ _______ _____ _____    ______ ____
ROOT
ATOM      1  C   UNL     1      -2.109   1.339   1.177  0.00  0.00    +0.234 C 
ATOM      2  O   UNL     1      -3.150   1.959   1.119  0.00  0.00    -0.274 OA
ATOM      3  N   UNL     1      -2.130  -0.004   1.297  0.00  0.00    -0.311 N 
ATOM      4  H   UNL     1      -1.189  -0.573   1.266  0.00  0.00    +0.149 HD
ENDROOT
BRANCH   1   5
ATOM      5  C   UNL     1      -0.792   2.069   1.113  0.00  0.00    +0.162 C 
BRANCH   5   6
ATOM      6  N   UNL     1      -0.994   3.472   1.484  0.00  0.00    -0.300 N 
ATOM      7  C   UNL     1       0.030   4.191   1.985  0.00  0.00    +0.246 C 
ATOM      8  O   UNL     1       1.121   3.675   2.130  0.00  0.00    -0.270 OA
ATOM      9  H   UNL     1      -1.982   3.939   1.353  0.00  0.00    +0.150 HD
BRANCH   7  10
ATOM     10  C   UNL     1      -0.174   5.606   2.358  0.00  0.00    +0.055 A 
ATOM     11  C   UNL     1      -1.426   6.202   2.193  0.00  0.00    +0.016 A 
ATOM     12  C   UNL     1      -1.610   7.522   2.543  0.00  0.00    +0.021 A 
ATOM     13  C   UNL     1      -0.556   8.259   3.058  0.00  0.00    +0.042 A 
ATOM     14  C   UNL     1       0.689   7.676   3.224  0.00  0.00    +0.040 A 
ATOM     15  C   UNL     1       0.884   6.352   2.883  0.00  0.00    +0.054 A 
ATOM     16 CL   UNL     1       2.443   5.619   3.100  0.00  0.00    -0.083 Cl
ATOM     17 CL   UNL     1      -0.796   9.921   3.496  0.00  0.00    -0.083 Cl
ENDBRANCH   7  10
ENDBRANCH   5   6
BRANCH   5  19
ATOM     18  C   UNL     1       1.164   2.611  -0.343  0.00  0.00    +0.009 C 
ATOM     19  C   UNL     1      -0.235   1.992  -0.309  0.00  0.00    +0.012 C 
ATOM     20  C   UNL     1      -1.155   2.761  -1.260  0.00  0.00    +0.009 C 
ENDBRANCH   5  19
ENDBRANCH   1   5
BRANCH   3  21
ATOM     21  C   UNL     1      -3.405  -0.704   1.469  0.00  0.00    +0.140 C 
BRANCH  21  22
ATOM     22  C   UNL     1      -3.149  -2.208   1.580  0.00  0.00    +0.162 C 
BRANCH  22  23
ATOM     23  C   UNL     1      -4.461  -2.929   1.757  0.00  0.00    -0.018 A 
ATOM     24  C   UNL     1      -5.218  -3.268   0.651  0.00  0.00    +0.008 A 
ATOM     25  C   UNL     1      -6.419  -3.933   0.814  0.00  0.00    +0.033 A 
ATOM     26  C   UNL     1      -6.868  -4.250   2.082  0.00  0.00    +0.126 A 
ATOM     27  C   UNL     1      -6.113  -3.907   3.188  0.00  0.00    +0.033 A 
ATOM     28  C   UNL     1      -4.910  -3.246   3.026  0.00  0.00    +0.008 A 
BRANCH  26  29
ATOM     29  N   UNL     1      -8.156  -4.957   2.256  0.00  0.00    +0.056 N 
ATOM     30  O   UNL     1      -8.552  -5.236   3.374  0.00  0.00    -0.126 OA
ATOM     31  O   UNL     1      -8.822  -5.260   1.282  0.00  0.00    -0.126 OA
ENDBRANCH  26  29
ENDBRANCH  22  23
BRANCH  22  32
ATOM     32  O   UNL     1      -2.508  -2.672   0.390  0.00  0.00    -0.386 OA
ATOM     33  H   UNL     1      -2.244  -3.734   0.285  0.00  0.00    +0.210 HD
ENDBRANCH  22  32
ENDBRANCH  21  22
ENDBRANCH   3  21
TORSDOF 9
