REMARK  Name = ZINC36643425
REMARK  13 active torsions:
REMARK  status: ('A' for Active; 'I' for Inactive)
REMARK    1  A    between atoms: C_1  and  C_2
REMARK    2  A    between atoms: N_11  and  C_12
REMARK    3  A    between atoms: C_12  and  C_13
REMARK    4  A    between atoms: C_13  and  C_14
REMARK    5  A    between atoms: C_14  and  N_15
REMARK    6  A    between atoms: N_15  and  C_16
REMARK    7  A    between atoms: N_15  and  C_17
REMARK    8  A    between atoms: C_18  and  C_20
REMARK    9  A    between atoms: C_23  and  S_26
REMARK   10  A    between atoms: S_26  and  N_29
REMARK   11  A    between atoms: N_29  and  C_30
REMARK   12  A    between atoms: N_29  and  C_31
REMARK   13  A    between atoms: C_31  and  C_32
REMARK                            x       y       z     vdW  Elec       q    Type
REMARK                         _______ _______ _______ _____ _____    ______ ____
ROOT
ATOM      1  C   UNL     1       0.509  -3.643   0.645  0.00  0.00    +0.046 C 
ATOM      2  C   UNL     1      -0.830  -2.952   0.642  0.00  0.00    -0.024 A 
ATOM      3  C   UNL     1      -1.644  -3.056  -0.455  0.00  0.00    +0.005 A 
ATOM      4  C   UNL     1      -2.884  -2.435  -0.500  0.00  0.00    +0.001 A 
ATOM      5  C   UNL     1      -3.309  -1.694   0.587  0.00  0.00    +0.017 A 
ATOM      6  C   UNL     1      -2.501  -1.584   1.691  0.00  0.00    +0.041 A 
ATOM      7  C   UNL     1      -1.234  -2.207   1.774  0.00  0.00    +0.083 A 
ATOM      8  N   UNL     1      -0.560  -2.009   2.927  0.00  0.00    -0.224 NA
ATOM      9  C   UNL     1      -1.044  -1.291   3.914  0.00  0.00    +0.168 A 
ATOM     10  S   UNL     1      -2.624  -0.766   3.263  0.00  0.00    -0.052 S 
ATOM     11  N   UNL     1      -0.473  -1.005   5.141  0.00  0.00    -0.246 N 
ATOM     12  C   UNL     1      -0.077   0.252   5.424  0.00  0.00    +0.252 C 
ATOM     13  O   UNL     1       0.507   0.485   6.464  0.00  0.00    -0.270 OA
ENDROOT
BRANCH  12  14
ATOM     14  C   UNL     1      -0.353   1.346   4.470  0.00  0.00    +0.037 A 
ATOM     15  C   UNL     1      -0.370   1.091   3.098  0.00  0.00    +0.015 A 
ATOM     16  C   UNL     1      -0.629   2.117   2.212  0.00  0.00    +0.029 A 
ATOM     17  C   UNL     1      -0.871   3.396   2.682  0.00  0.00    +0.106 A 
ATOM     18  C   UNL     1      -0.856   3.655   4.041  0.00  0.00    +0.029 A 
ATOM     19  C   UNL     1      -0.604   2.637   4.938  0.00  0.00    +0.015 A 
BRANCH  17  20
ATOM     20  S   UNL     1      -1.200   4.701   1.544  0.00  0.00    +0.061 S 
ATOM     21  O   UNL     1      -0.856   5.911   2.204  0.00  0.00    -0.153 OA
ATOM     22  O   UNL     1      -0.620   4.316   0.306  0.00  0.00    -0.153 OA
BRANCH  20  23
ATOM     23  N   UNL     1      -2.839   4.741   1.306  0.00  0.00    -0.177 NA
ATOM     24  C   UNL     1      -3.683   5.572   2.168  0.00  0.00    +0.131 C 
BRANCH  23  25
ATOM     25  C   UNL     1      -3.443   3.946   0.234  0.00  0.00    +0.140 C 
BRANCH  25  26
ATOM     26  C   UNL     1      -3.926   2.610   0.801  0.00  0.00    +0.134 C 
ATOM     27  C   UNL     1      -4.455   1.717  -0.342  0.00  0.00    +0.035 C 
ATOM     28  C   UNL     1      -5.694   1.046   0.310  0.00  0.00    +0.031 C 
ATOM     29  C   UNL     1      -6.198   2.188   1.228  0.00  0.00    +0.160 C 
ATOM     30  O   UNL     1      -5.007   2.832   1.714  0.00  0.00    -0.375 OA
ENDBRANCH  25  26
ENDBRANCH  23  25
ENDBRANCH  20  23
ENDBRANCH  17  20
ENDBRANCH  12  14
BRANCH  11  31
ATOM     31  C   UNL     1      -0.298  -2.069   6.134  0.00  0.00    +0.114 C 
BRANCH  31  32
ATOM     32  C   UNL     1       1.069  -2.729   5.938  0.00  0.00    +0.001 C 
BRANCH  32  33
ATOM     33  C   UNL     1       1.251  -3.840   6.974  0.00  0.00    -0.078 C 
BRANCH  33  34
ATOM     34  N   UNL     1       2.563  -4.473   6.787  0.00  0.00    +0.376 N 
ATOM     35  C   UNL     1       3.624  -3.497   7.073  0.00  0.00    -0.097 C 
ATOM     36  C   UNL     1       2.691  -5.616   7.701  0.00  0.00    -0.097 C 
ATOM     37  H   UNL     1       2.649  -4.793   5.834  0.00  0.00    -0.083 HD
ENDBRANCH  33  34
ENDBRANCH  32  33
ENDBRANCH  31  32
ENDBRANCH  11  31
TORSDOF 9
