REMARK  Name = ZINC13424503
REMARK  4 active torsions:
REMARK  status: ('A' for Active; 'I' for Inactive)
REMARK    1  A    between atoms: C_4  and  C_23
REMARK    2  A    between atoms: C_5  and  C_7
REMARK    3  A    between atoms: C_7  and  N_8
REMARK    4  A    between atoms: C_16  and  C_17
REMARK                            x       y       z     vdW  Elec       q    Type
REMARK                         _______ _______ _______ _____ _____    ______ ____
ROOT
ATOM      1  N   UNL     1      -6.556   2.139   1.444  0.00  0.00    -0.318 N 
ATOM      2  C   UNL     1      -7.745   2.183   2.142  0.00  0.00    +0.069 A 
ATOM      3  C   UNL     1      -9.029   2.613   1.834  0.00  0.00    +0.028 A 
ATOM      4  C   UNL     1     -10.026   2.521   2.781  0.00  0.00    +0.002 A 
ATOM      5  C   UNL     1      -9.756   2.001   4.039  0.00  0.00    +0.002 A 
ATOM      6  C   UNL     1      -8.500   1.573   4.362  0.00  0.00    +0.030 A 
ATOM      7  C   UNL     1      -7.471   1.657   3.418  0.00  0.00    +0.090 A 
ATOM      8  N   UNL     1      -6.159   1.323   3.439  0.00  0.00    -0.226 NA
ATOM      9  C   UNL     1      -5.615   1.599   2.279  0.00  0.00    +0.167 A 
ENDROOT
BRANCH   9  10
ATOM     10  C   UNL     1      -4.197   1.366   1.927  0.00  0.00    +0.190 A 
ATOM     11  C   UNL     1      -3.092   0.893   2.793  0.00  0.00    +0.191 A 
ATOM     12  N   UNL     1      -2.073   0.868   1.967  0.00  0.00    -0.033 NA
ATOM     13  O   UNL     1      -2.432   1.236   0.873  0.00  0.00    -0.240 OA
ATOM     14  N   UNL     1      -3.599   1.532   0.767  0.00  0.00    -0.044 NA
ATOM     15  N   UNL     1      -3.127   0.558   4.140  0.00  0.00    -0.339 N 
ATOM     16  H   UNL     1      -3.959   0.621   4.635  0.00  0.00    +0.144 HD
ATOM     17  H   UNL     1      -2.319   0.259   4.587  0.00  0.00    +0.144 HD
ENDBRANCH   9  10
BRANCH   1  18
ATOM     18  C   UNL     1      -6.341   2.581   0.064  0.00  0.00    +0.159 C 
BRANCH  18  23
ATOM     19  C   UNL     1      -5.219   5.984   1.256  0.00  0.00    +0.000 A 
ATOM     20  C   UNL     1      -5.020   6.654   0.061  0.00  0.00    +0.001 A 
ATOM     21  C   UNL     1      -5.241   6.010  -1.139  0.00  0.00    +0.011 A 
ATOM     22  C   UNL     1      -5.677   4.684  -1.146  0.00  0.00    +0.014 A 
ATOM     23  C   UNL     1      -5.876   4.015   0.062  0.00  0.00    -0.018 A 
ATOM     24  C   UNL     1      -5.646   4.669   1.256  0.00  0.00    +0.006 A 
BRANCH  22  25
ATOM     25  C   UNL     1      -5.922   3.990  -2.428  0.00  0.00    +0.134 A 
ATOM     26  N   UNL     1      -6.229   2.722  -2.666  0.00  0.00    -0.140 NA
ATOM     27  N   UNL     1      -6.406   2.286  -3.836  0.00  0.00    -0.126 NA
ATOM     28  C   UNL     1      -6.295   3.072  -4.901  0.00  0.00    +0.179 A 
ATOM     29  S   UNL     1      -5.879   4.620  -4.104  0.00  0.00    -0.031 S 
ATOM     30  N   UNL     1      -6.452   2.777  -6.245  0.00  0.00    -0.336 N 
ATOM     31  H   UNL     1      -6.678   1.875  -6.520  0.00  0.00    +0.144 HD
ATOM     32  H   UNL     1      -6.339   3.474  -6.911  0.00  0.00    +0.144 HD
ENDBRANCH  22  25
ENDBRANCH  18  23
ENDBRANCH   1  18
TORSDOF 4
