REMARK  Name = ZINC39631212
REMARK  14 active torsions:
REMARK  status: ('A' for Active; 'I' for Inactive)
REMARK    1  A    between atoms: C_1  and  C_2
REMARK    2  A    between atoms: C_2  and  C_3
REMARK    3  A    between atoms: C_3  and  C_4
REMARK    4  A    between atoms: C_4  and  C_5
REMARK    5  A    between atoms: C_9  and  C_18
REMARK    6  A    between atoms: N_20  and  C_21
REMARK    7  A    between atoms: C_21  and  C_23
REMARK    8  A    between atoms: C_21  and  C_24
REMARK    9  A    between atoms: C_24  and  C_25
REMARK   10  A    between atoms: C_25  and  C_26
REMARK   11  A    between atoms: C_26  and  C_27
REMARK   12  A    between atoms: C_27  and  C_28
REMARK   13  A    between atoms: C_27  and  C_29
REMARK   14  A    between atoms: C_27  and  O_30
REMARK                            x       y       z     vdW  Elec       q    Type
REMARK                         _______ _______ _______ _____ _____    ______ ____
ROOT
ATOM      1  C   UNL     1       1.395  -2.553  -2.174  0.00  0.00    +0.216 C 
ATOM      2  O   UNL     1       1.834  -1.679  -2.891  0.00  0.00    -0.276 OA
ATOM      3  N   UNL     1       1.554  -3.847  -2.516  0.00  0.00    -0.300 N 
ATOM      4  C   UNL     1       1.086  -5.045  -1.779  0.00  0.00    +0.121 C 
ATOM      5  C   UNL     1       0.600  -6.015  -2.880  0.00  0.00    +0.100 C 
ATOM      6  C   UNL     1       1.358  -5.583  -4.146  0.00  0.00    -0.004 C 
ATOM      7  C   UNL     1       2.229  -4.394  -3.718  0.00  0.00    +0.115 C 
ATOM      8  C   UNL     1       0.374  -5.147  -5.228  0.00  0.00    -0.010 C 
ATOM      9  C   UNL     1       1.149  -4.777  -6.496  0.00  0.00    -0.082 C 
ATOM     10  N   UNL     1       1.927  -5.936  -6.952  0.00  0.00    +0.379 N 
ATOM     11  C   UNL     1       2.933  -6.291  -5.944  0.00  0.00    -0.082 C 
ATOM     12  C   UNL     1       2.234  -6.725  -4.653  0.00  0.00    -0.010 C 
ATOM     13  H   UNL     1       1.307  -6.719  -7.098  0.00  0.00    -0.086 HD
ATOM     14  H   UNL     1       2.388  -5.709  -7.820  0.00  0.00    -0.086 HD
ENDROOT
BRANCH   5  15
ATOM     15  C   UNL     1      -0.887  -5.875  -3.082  0.00  0.00    +0.218 C 
ATOM     16  O   UNL     1      -1.428  -4.807  -2.888  0.00  0.00    -0.275 OA
ATOM     17  N   UNL     1      -1.616  -6.938  -3.479  0.00  0.00    -0.312 N 
ATOM     18  H   UNL     1      -1.183  -7.792  -3.634  0.00  0.00    +0.149 HD
BRANCH  17  19
ATOM     19  C   UNL     1      -3.061  -6.802  -3.675  0.00  0.00    +0.070 C 
ATOM     20  C   UNL     1      -3.337  -6.272  -5.084  0.00  0.00    +0.028 C 
BRANCH  19  21
ATOM     21  C   UNL     1      -3.729  -8.167  -3.504  0.00  0.00    +0.022 C 
BRANCH  21  22
ATOM     22  C   UNL     1      -3.561  -8.640  -2.059  0.00  0.00    +0.005 C 
BRANCH  22  23
ATOM     23  C   UNL     1      -4.229 -10.006  -1.887  0.00  0.00    +0.034 C 
BRANCH  23  24
ATOM     24  C   UNL     1      -4.060 -10.479  -0.442  0.00  0.00    +0.061 C 
ATOM     25  C   UNL     1      -4.618 -11.896  -0.301  0.00  0.00    +0.041 C 
ATOM     26  C   UNL     1      -2.575 -10.476  -0.075  0.00  0.00    +0.041 C 
BRANCH  24  27
ATOM     27  O   UNL     1      -4.768  -9.598   0.433  0.00  0.00    -0.389 OA
ATOM     28  H   UNL     1      -4.705  -9.838   1.367  0.00  0.00    +0.210 HD
ENDBRANCH  24  27
ENDBRANCH  23  24
ENDBRANCH  22  23
ENDBRANCH  21  22
ENDBRANCH  19  21
ENDBRANCH  17  19
ENDBRANCH   5  15
BRANCH   1  29
ATOM     29  C   UNL     1       0.674  -2.193  -0.901  0.00  0.00    +0.096 C 
BRANCH  29  30
ATOM     30  C   UNL     1       0.633  -0.671  -0.751  0.00  0.00    +0.009 C 
BRANCH  30  32
ATOM     31  C   UNL     1      -0.141   1.217   0.692  0.00  0.00    +0.004 C 
ATOM     32  C   UNL     1      -0.100  -0.305   0.542  0.00  0.00    -0.003 C 
ENDBRANCH  30  32
ENDBRANCH  29  30
ENDBRANCH   1  29
TORSDOF 10
