REMARK  Name = ZINC39675577
REMARK  11 active torsions:
REMARK  status: ('A' for Active; 'I' for Inactive)
REMARK    1  A    between atoms: C_1  and  C_2
REMARK    2  A    between atoms: C_2  and  O_4
REMARK    3  A    between atoms: O_4  and  C_5
REMARK    4  A    between atoms: C_10  and  C_11
REMARK    5  A    between atoms: C_15  and  C_24
REMARK    6  A    between atoms: N_26  and  C_27
REMARK    7  A    between atoms: C_27  and  C_28
REMARK    8  A    between atoms: C_28  and  C_30
REMARK    9  A    between atoms: C_28  and  N_36
REMARK   10  A    between atoms: N_36  and  C_37
REMARK   11  A    between atoms: N_36  and  C_38
REMARK                            x       y       z     vdW  Elec       q    Type
REMARK                         _______ _______ _______ _____ _____    ______ ____
ROOT
ATOM      1  C   UNL     1      -3.429  -2.294  -0.148  0.00  0.00    +0.250 C 
ATOM      2  O   UNL     1      -3.575  -1.091  -0.244  0.00  0.00    -0.270 OA
ATOM      3  N   UNL     1      -4.506  -3.104  -0.125  0.00  0.00    -0.296 N 
ATOM      4  C   UNL     1      -4.527  -4.585  -0.070  0.00  0.00    +0.121 C 
ATOM      5  C   UNL     1      -5.696  -4.923   0.883  0.00  0.00    +0.100 C 
ATOM      6  C   UNL     1      -6.617  -3.694   0.826  0.00  0.00    -0.004 C 
ATOM      7  C   UNL     1      -5.936  -2.715  -0.142  0.00  0.00    +0.115 C 
ATOM      8  C   UNL     1      -6.739  -3.060   2.208  0.00  0.00    -0.010 C 
ATOM      9  C   UNL     1      -7.705  -1.874   2.138  0.00  0.00    -0.082 C 
ATOM     10  N   UNL     1      -9.018  -2.337   1.672  0.00  0.00    +0.379 N 
ATOM     11  C   UNL     1      -8.909  -2.860   0.305  0.00  0.00    -0.082 C 
ATOM     12  C   UNL     1      -7.993  -4.088   0.298  0.00  0.00    -0.010 C 
ATOM     13  H   UNL     1      -9.353  -3.066   2.284  0.00  0.00    -0.086 HD
ATOM     14  H   UNL     1      -9.669  -1.566   1.685  0.00  0.00    -0.086 HD
ENDROOT
BRANCH   1  20
ATOM     15  C   UNL     1      -1.067  -2.190   0.648  0.00  0.00    +0.144 A 
ATOM     16  C   UNL     1       0.203  -2.741   0.733  0.00  0.00    +0.047 A 
ATOM     17  C   UNL     1       0.476  -3.949   0.121  0.00  0.00    +0.004 A 
ATOM     18  C   UNL     1      -0.513  -4.618  -0.581  0.00  0.00    +0.001 A 
ATOM     19  C   UNL     1      -1.781  -4.085  -0.675  0.00  0.00    +0.017 A 
ATOM     20  C   UNL     1      -2.072  -2.867  -0.056  0.00  0.00    +0.079 A 
BRANCH  15  21
ATOM     21  O   UNL     1      -1.337  -1.004   1.249  0.00  0.00    -0.425 OA
BRANCH  21  23
ATOM     22  C   UNL     1      -2.025   0.263   3.254  0.00  0.00    +0.136 C 
ATOM     23  C   UNL     1      -1.816  -1.027   2.503  0.00  0.00    +0.309 C 
ATOM     24  O   UNL     1      -2.081  -2.082   3.029  0.00  0.00    -0.251 OA
ENDBRANCH  21  23
ENDBRANCH  15  21
ENDBRANCH   1  20
BRANCH   5  25
ATOM     25  C   UNL     1      -5.185  -5.135   2.285  0.00  0.00    +0.218 C 
ATOM     26  O   UNL     1      -4.248  -4.482   2.694  0.00  0.00    -0.275 OA
ATOM     27  N   UNL     1      -5.769  -6.049   3.084  0.00  0.00    -0.316 N 
ATOM     28  H   UNL     1      -6.518  -6.571   2.757  0.00  0.00    +0.149 HD
BRANCH  27  29
ATOM     29  C   UNL     1      -5.273  -6.255   4.447  0.00  0.00    +0.093 C 
BRANCH  29  30
ATOM     30  C   UNL     1      -6.022  -7.422   5.092  0.00  0.00    -0.021 C 
BRANCH  30  31
ATOM     31  C   UNL     1      -7.490  -7.094   5.172  0.00  0.00    -0.059 A 
ATOM     32  C   UNL     1      -7.961  -6.273   6.180  0.00  0.00    +0.002 A 
ATOM     33  C   UNL     1      -9.308  -5.972   6.254  0.00  0.00    +0.000 A 
ATOM     34  C   UNL     1     -10.185  -6.491   5.319  0.00  0.00    +0.000 A 
ATOM     35  C   UNL     1      -9.714  -7.311   4.311  0.00  0.00    +0.000 A 
ATOM     36  C   UNL     1      -8.366  -7.609   4.234  0.00  0.00    +0.002 A 
ENDBRANCH  30  31
BRANCH  30  37
ATOM     37  N   UNL     1      -5.497  -7.654   6.444  0.00  0.00    +0.382 N 
ATOM     38  C   UNL     1      -6.139  -8.842   7.022  0.00  0.00    -0.096 C 
ATOM     39  C   UNL     1      -4.045  -7.865   6.377  0.00  0.00    -0.096 C 
ATOM     40  H   UNL     1      -5.694  -6.851   7.023  0.00  0.00    -0.082 HD
ENDBRANCH  30  37
ENDBRANCH  29  30
ENDBRANCH  27  29
ENDBRANCH   5  25
TORSDOF 8
