REMARK  Name = ZINC06685202
REMARK  7 active torsions:
REMARK  status: ('A' for Active; 'I' for Inactive)
REMARK    1  A    between atoms: C_1  and  C_2
REMARK    2  A    between atoms: C_5  and  C_8
REMARK    3  A    between atoms: N_14  and  N_15
REMARK    4  A    between atoms: C_16  and  C_17
REMARK    5  A    between atoms: C_18  and  C_25
REMARK    6  A    between atoms: C_20  and  C_24
REMARK    7  A    between atoms: C_22  and  C_23
REMARK                            x       y       z     vdW  Elec       q    Type
REMARK                         _______ _______ _______ _____ _____    ______ ____
ROOT
ATOM      1  C   UNL     1      -1.395  -4.903   0.277  0.00  0.00    +0.184 A 
ATOM      2  N   UNL     1      -1.152  -5.525  -0.843  0.00  0.00    -0.152 NA
ATOM      3  N   UNL     1       0.134  -6.077  -0.762  0.00  0.00    -0.253 N 
ATOM      4  H   UNL     1       0.580  -6.595  -1.451  0.00  0.00    +0.191 HD
ATOM      5  C   UNL     1       0.638  -5.757   0.447  0.00  0.00    +0.197 A 
ATOM      6  S   UNL     1       2.183  -6.191   1.044  0.00  0.00    -0.010 S 
ATOM      7  N   UNL     1      -0.291  -5.029   1.098  0.00  0.00    -0.188 N 
ENDROOT
BRANCH   1  12
ATOM      8  C   UNL     1      -6.246  -2.090   1.576  0.00  0.00    +0.044 C 
ATOM      9  C   UNL     1      -4.976  -2.826   1.236  0.00  0.00    -0.050 A 
ATOM     10  C   UNL     1      -4.796  -3.338  -0.037  0.00  0.00    +0.004 A 
ATOM     11  C   UNL     1      -3.635  -4.013  -0.355  0.00  0.00    +0.012 A 
ATOM     12  C   UNL     1      -2.642  -4.179   0.611  0.00  0.00    +0.021 A 
ATOM     13  C   UNL     1      -2.830  -3.661   1.892  0.00  0.00    +0.012 A 
ATOM     14  C   UNL     1      -3.992  -2.983   2.196  0.00  0.00    +0.004 A 
ENDBRANCH   1  12
BRANCH   7  15
ATOM     15  N   UNL     1      -0.160  -4.494   2.386  0.00  0.00    -0.171 NA
ATOM     16  C   UNL     1      -0.021  -5.284   3.406  0.00  0.00    +0.141 C 
BRANCH  16  17
ATOM     17  C   UNL     1       0.118  -4.721   4.762  0.00  0.00    +0.001 A 
ATOM     18  C   UNL     1       0.160  -5.568   5.873  0.00  0.00    -0.041 A 
ATOM     19  C   UNL     1       0.290  -5.034   7.138  0.00  0.00    +0.007 A 
ATOM     20  C   UNL     1       0.380  -3.663   7.308  0.00  0.00    -0.050 A 
ATOM     21  C   UNL     1       0.340  -2.819   6.213  0.00  0.00    +0.007 A 
ATOM     22  C   UNL     1       0.216  -3.339   4.941  0.00  0.00    -0.041 A 
ATOM     23  C   UNL     1       0.179  -2.418   3.749  0.00  0.00    +0.044 C 
ATOM     24  C   UNL     1       0.522  -3.088   8.694  0.00  0.00    +0.044 C 
ATOM     25  C   UNL     1       0.061  -7.060   5.689  0.00  0.00    +0.044 C 
ENDBRANCH  16  17
ENDBRANCH   7  15
TORSDOF 3
