REMARK  Name = ZINC34971067
REMARK  10 active torsions:
REMARK  status: ('A' for Active; 'I' for Inactive)
REMARK    1  A    between atoms: C_1  and  C_2
REMARK    2  A    between atoms: C_6  and  C_35
REMARK    3  A    between atoms: C_7  and  N_8
REMARK    4  A    between atoms: N_11  and  C_12
REMARK    5  A    between atoms: C_12  and  C_14
REMARK    6  A    between atoms: C_12  and  C_21
REMARK    7  A    between atoms: C_14  and  C_15
REMARK    8  A    between atoms: C_25  and  C_34
REMARK    9  A    between atoms: C_30  and  C_32
REMARK   10  A    between atoms: C_30  and  C_33
REMARK                            x       y       z     vdW  Elec       q    Type
REMARK                         _______ _______ _______ _____ _____    ______ ____
ROOT
ATOM      1  C   UNL     1      -0.589  -0.602   6.176  0.00  0.00    +0.165 C 
ENDROOT
BRANCH   1   2
ATOM      2  C   UNL     1      -1.546   0.126   7.084  0.00  0.00    +0.237 C 
ATOM      3  O   UNL     1      -2.010   1.194   6.745  0.00  0.00    -0.274 OA
ATOM      4  N   UNL     1      -1.885  -0.410   8.274  0.00  0.00    -0.296 N 
ATOM      5  C   UNL     1      -1.311  -1.628   8.865  0.00  0.00    +0.114 C 
ATOM      6  C   UNL     1      -2.059  -1.861  10.198  0.00  0.00    -0.014 C 
ATOM      7  C   UNL     1      -2.465  -0.418  10.601  0.00  0.00    +0.030 C 
ATOM      8  C   UNL     1      -2.887   0.130   9.215  0.00  0.00    +0.077 C 
ATOM      9  C   UNL     1      -4.254  -0.467   8.889  0.00  0.00    +0.029 C 
ATOM     10  C   UNL     1      -4.287  -1.984   8.932  0.00  0.00    -0.033 C 
ATOM     11  C   UNL     1      -3.342  -2.641   9.919  0.00  0.00    +0.014 C 
ATOM     12  C   UNL     1      -4.049  -2.547   7.522  0.00  0.00    +0.011 C 
ATOM     13  C   UNL     1      -5.726  -2.399   9.329  0.00  0.00    +0.011 C 
ATOM     14  C   UNL     1      -1.171  -2.536  11.254  0.00  0.00    +0.013 C 
ENDBRANCH   1   2
BRANCH   1  18
ATOM     15  N   UNL     1      -0.846  -0.467   2.512  0.00  0.00    -0.269 N 
ATOM     16  C   UNL     1      -0.625  -0.923   3.760  0.00  0.00    +0.304 C 
ATOM     17  O   UNL     1      -0.337  -2.091   3.939  0.00  0.00    -0.252 OA
ATOM     18  N   UNL     1      -0.723  -0.085   4.811  0.00  0.00    -0.288 N 
ATOM     19  H   UNL     1      -1.028   0.474   2.364  0.00  0.00    +0.156 HD
ATOM     20  H   UNL     1      -0.881   0.861   4.664  0.00  0.00    +0.151 HD
BRANCH  15  27
ATOM     21  C   UNL     1       0.612   0.303   0.192  0.00  0.00    +0.045 C 
ATOM     22  C   UNL     1      -0.113  -1.015   0.276  0.00  0.00    -0.029 A 
ATOM     23  C   UNL     1      -0.077  -1.893  -0.790  0.00  0.00    +0.005 A 
ATOM     24  C   UNL     1      -0.743  -3.103  -0.714  0.00  0.00    +0.001 A 
ATOM     25  C   UNL     1      -1.445  -3.438   0.429  0.00  0.00    +0.005 A 
ATOM     26  C   UNL     1      -1.485  -2.565   1.498  0.00  0.00    -0.029 A 
ATOM     27  C   UNL     1      -0.813  -1.352   1.428  0.00  0.00    +0.041 A 
ATOM     28  C   UNL     1      -2.252  -2.931   2.743  0.00  0.00    +0.045 C 
ENDBRANCH  15  27
ENDBRANCH   1  18
BRANCH   1  29
ATOM     29  C   UNL     1       0.844  -0.385   6.665  0.00  0.00    +0.067 C 
BRANCH  29  30
ATOM     30  C   UNL     1       1.793  -1.188   5.813  0.00  0.00    -0.045 A 
ATOM     31  C   UNL     1       2.016  -2.522   6.096  0.00  0.00    +0.004 A 
ATOM     32  C   UNL     1       2.886  -3.259   5.314  0.00  0.00    +0.000 A 
ATOM     33  C   UNL     1       3.533  -2.661   4.249  0.00  0.00    +0.000 A 
ATOM     34  C   UNL     1       3.309  -1.327   3.965  0.00  0.00    +0.000 A 
ATOM     35  C   UNL     1       2.436  -0.591   4.745  0.00  0.00    +0.004 A 
ENDBRANCH  29  30
ENDBRANCH   1  29
TORSDOF 5
