REMARK  Name = ZINC09952829
REMARK  4 active torsions:
REMARK  status: ('A' for Active; 'I' for Inactive)
REMARK    1  A    between atoms: C_1  and  N_2
REMARK    2  A    between atoms: C_3  and  C_5
REMARK    3  A    between atoms: C_16  and  C_18
REMARK    4  A    between atoms: C_18  and  N_19
REMARK                            x       y       z     vdW  Elec       q    Type
REMARK                         _______ _______ _______ _____ _____    ______ ____
ROOT
ATOM      1  C   UNL     1       5.449  -2.379  -1.860  0.00  0.00    +0.214 C 
ENDROOT
BRANCH   1   2
ATOM      2  N   UNL     1       5.358  -3.703  -2.482  0.00  0.00    -0.215 N 
ATOM      3  C   UNL     1       5.456  -3.925  -3.809  0.00  0.00    +0.252 C 
ATOM      4  O   UNL     1       5.628  -3.100  -4.681  0.00  0.00    -0.272 OA
ATOM      5  C   UNL     1       5.304  -5.419  -3.980  0.00  0.00    +0.144 C 
ATOM      6  C   UNL     1       6.564  -6.013  -4.603  0.00  0.00    +0.081 C 
ATOM      7  C   UNL     1       6.571  -5.665  -6.098  0.00  0.00    +0.232 C 
ATOM      8  O   UNL     1       5.449  -6.297  -6.715  0.00  0.00    -0.492 OA
ATOM      9  C   UNL     1       4.230  -6.146  -6.135  0.00  0.00    +0.126 A 
ATOM     10  C   UNL     1       4.098  -5.730  -4.820  0.00  0.00    +0.027 A 
ATOM     11  C   UNL     1       2.837  -5.596  -4.265  0.00  0.00    +0.010 A 
ATOM     12  C   UNL     1       1.710  -5.871  -5.017  0.00  0.00    +0.001 A 
ATOM     13  C   UNL     1       1.840  -6.282  -6.330  0.00  0.00    +0.004 A 
ATOM     14  C   UNL     1       3.094  -6.419  -6.889  0.00  0.00    +0.046 A 
ATOM     15  N   UNL     1       5.122  -5.918  -2.611  0.00  0.00    -0.281 N 
ATOM     16  C   UNL     1       5.174  -4.842  -1.803  0.00  0.00    +0.310 C 
ATOM     17  O   UNL     1       5.062  -4.898  -0.594  0.00  0.00    -0.252 OA
ATOM     18  H   UNL     1       4.994  -6.841  -2.342  0.00  0.00    +0.152 HD
ENDBRANCH   1   2
BRANCH   1  29
ATOM     19  C   UNL     1       4.945   1.696  -1.377  0.00  0.00    +0.276 C 
ATOM     20  C   UNL     1       5.073   0.268  -0.829  0.00  0.00    +0.168 C 
ATOM     21  N   UNL     1       3.924  -0.505  -1.329  0.00  0.00    -0.263 N 
ATOM     22  C   UNL     1       2.665   0.119  -1.324  0.00  0.00    +0.078 A 
ATOM     23  C   UNL     1       1.516  -0.632  -1.509  0.00  0.00    +0.027 A 
ATOM     24  C   UNL     1       0.280  -0.013  -1.509  0.00  0.00    +0.002 A 
ATOM     25  C   UNL     1       0.191   1.355  -1.325  0.00  0.00    +0.004 A 
ATOM     26  C   UNL     1       1.334   2.109  -1.138  0.00  0.00    +0.047 A 
ATOM     27  C   UNL     1       2.578   1.496  -1.135  0.00  0.00    +0.143 A 
ATOM     28  O   UNL     1       3.696   2.244  -0.947  0.00  0.00    -0.476 OA
ATOM     29  C   UNL     1       4.074  -1.768  -1.776  0.00  0.00    +0.238 C 
ATOM     30  O   UNL     1       3.102  -2.412  -2.111  0.00  0.00    -0.274 OA
BRANCH  19  33
ATOM     31  C   UNL     1       8.444   3.092  -0.699  0.00  0.00    +0.128 C 
ATOM     32  N   UNL     1       7.345   2.273  -1.215  0.00  0.00    -0.315 N 
ATOM     33  C   UNL     1       6.075   2.543  -0.851  0.00  0.00    +0.255 C 
ATOM     34  O   UNL     1       5.843   3.466  -0.100  0.00  0.00    -0.272 OA
ATOM     35  H   UNL     1       7.530   1.534  -1.815  0.00  0.00    +0.148 HD
ENDBRANCH  19  33
ENDBRANCH   1  29
TORSDOF 3
