REMARK  Name = ZINC09836239
REMARK  5 active torsions:
REMARK  status: ('A' for Active; 'I' for Inactive)
REMARK    1  A    between atoms: C_1  and  C_2
REMARK    2  A    between atoms: C_2  and  C_4
REMARK    3  A    between atoms: C_2  and  N_55
REMARK    4  A    between atoms: C_17  and  C_18
REMARK    5  A    between atoms: C_17  and  N_55
REMARK                            x       y       z     vdW  Elec       q    Type
REMARK                         _______ _______ _______ _____ _____    ______ ____
ROOT
ATOM      1  C   UNL     1      -0.973   7.635  -1.803  0.00  0.00    -0.004 C 
ATOM      2  C   UNL     1      -2.261   7.101  -1.172  0.00  0.00    +0.013 C 
ENDROOT
BRANCH   2   3
ATOM      3  C   UNL     1      -3.445   7.557  -1.984  0.00  0.00    +0.206 C 
ATOM      4  O   UNL     1      -4.183   6.739  -2.492  0.00  0.00    -0.277 OA
ATOM      5  N   UNL     1      -3.684   8.873  -2.147  0.00  0.00    -0.262 N 
ATOM      6  C   UNL     1      -2.808   9.884  -1.536  0.00  0.00    +0.209 C 
ATOM      7  C   UNL     1      -3.650  10.991  -0.966  0.00  0.00    +0.235 C 
ATOM      8  O   UNL     1      -3.245  11.620  -0.011  0.00  0.00    -0.274 OA
ATOM      9  N   UNL     1      -4.850  11.290  -1.498  0.00  0.00    -0.283 N 
ATOM     10  C   UNL     1      -5.363  10.548  -2.568  0.00  0.00    +0.055 A 
ATOM     11  C   UNL     1      -4.780   9.323  -2.899  0.00  0.00    +0.058 A 
ATOM     12  C   UNL     1      -5.281   8.576  -3.949  0.00  0.00    +0.025 A 
ATOM     13  C   UNL     1      -6.361   9.049  -4.674  0.00  0.00    +0.002 A 
ATOM     14  C   UNL     1      -6.937  10.263  -4.351  0.00  0.00    +0.002 A 
ATOM     15  C   UNL     1      -6.442  11.014  -3.301  0.00  0.00    +0.025 A 
ATOM     16  H   UNL     1      -5.365  12.028  -1.136  0.00  0.00    +0.155 HD
ENDBRANCH   2   3
BRANCH   2  17
ATOM     17  N   UNL     1      -2.225   5.626  -1.153  0.00  0.00    +0.387 N 
ATOM     18  H   UNL     1      -1.742   5.288  -1.994  0.00  0.00    -0.085 HD
ATOM     19  H   UNL     1      -3.186   5.264  -1.142  0.00  0.00    -0.085 HD
BRANCH  17  20
ATOM     20  C   UNL     1      -1.510   5.146   0.044  0.00  0.00    -0.075 C 
BRANCH  20  21
ATOM     21  C   UNL     1      -1.490   3.616   0.036  0.00  0.00    -0.044 C 
ATOM     22  C   UNL     1      -0.773   3.123  -1.223  0.00  0.00    +0.008 C 
ATOM     23  C   UNL     1      -0.753   1.593  -1.232  0.00  0.00    -0.010 C 
ATOM     24  C   UNL     1      -0.013   1.086   0.008  0.00  0.00    +0.007 C 
ATOM     25  C   UNL     1      -0.729   1.579   1.267  0.00  0.00    -0.010 C 
ATOM     26  C   UNL     1      -0.750   3.109   1.275  0.00  0.00    +0.008 C 
ATOM     27  C   UNL     1      -2.164   1.050   1.278  0.00  0.00    +0.007 C 
ATOM     28  C   UNL     1      -2.904   1.556   0.038  0.00  0.00    -0.010 C 
ATOM     29  C   UNL     1      -2.188   1.063  -1.221  0.00  0.00    +0.007 C 
ATOM     30  C   UNL     1      -2.925   3.086   0.047  0.00  0.00    +0.008 C 
ENDBRANCH  20  21
ENDBRANCH  17  20
ENDBRANCH   2  17
TORSDOF 4
