REMARK  Name = ZINC39466076
REMARK  8 active torsions:
REMARK  status: ('A' for Active; 'I' for Inactive)
REMARK    1  A    between atoms: C_1  and  C_2
REMARK    2  A    between atoms: C_2  and  C_3
REMARK    3  A    between atoms: C_2  and  S_4
REMARK    4  A    between atoms: S_4  and  P_7
REMARK    5  A    between atoms: C_15  and  C_25
REMARK    6  A    between atoms: C_16  and  O_23
REMARK    7  A    between atoms: O_23  and  C_24
REMARK    8  A    between atoms: C_30  and  O_31
REMARK                            x       y       z     vdW  Elec       q    Type
REMARK                         _______ _______ _______ _____ _____    ______ ____
ROOT
ATOM      1  P   UNL     1      -1.503  -2.736   0.180  0.00  0.00    +0.419 P 
ATOM      2  O   UNL     1      -0.828  -3.088   1.450  0.00  0.00    -0.246 OA
ATOM      3  N   UNL     1      -2.989  -3.457   0.101  0.00  0.00    -0.161 NA
ATOM      4  N   UNL     1      -3.010  -4.786  -0.258  0.00  0.00    -0.224 NA
ATOM      5  C   UNL     1      -4.399  -5.269  -0.300  0.00  0.00    +0.108 C 
ATOM      6  C   UNL     1      -4.387  -6.796  -0.366  0.00  0.00    +0.052 C 
ATOM      7  C   UNL     1      -3.489  -7.248  -1.490  0.00  0.00    -0.041 A 
ATOM      8  C   UNL     1      -3.635  -8.538  -1.971  0.00  0.00    +0.016 A 
ATOM      9  C   UNL     1      -2.827  -8.997  -3.006  0.00  0.00    +0.028 A 
ATOM     10  C   UNL     1      -1.865  -8.145  -3.557  0.00  0.00    +0.128 A 
ATOM     11  C   UNL     1      -1.729  -6.859  -3.067  0.00  0.00    +0.051 A 
ATOM     12  C   UNL     1      -2.539  -6.408  -2.034  0.00  0.00    -0.020 A 
ATOM     13  C   UNL     1      -2.344  -4.997  -1.543  0.00  0.00    +0.130 C 
ATOM     14  C   UNL     1      -0.843  -4.709  -1.438  0.00  0.00    +0.195 C 
ATOM     15  O   UNL     1      -0.664  -3.323  -1.083  0.00  0.00    -0.298 OA
ATOM     16  H   UNL     1      -3.804  -2.969   0.298  0.00  0.00    +0.152 HD
ENDROOT
BRANCH   9  17
ATOM     17  C   UNL     1      -2.985 -10.379  -3.521  0.00  0.00    +0.027 A 
ATOM     18  C   UNL     1      -4.162 -10.757  -4.162  0.00  0.00    +0.012 A 
ATOM     19  C   UNL     1      -4.304 -12.044  -4.639  0.00  0.00    +0.001 A 
ATOM     20  C   UNL     1      -3.280 -12.961  -4.484  0.00  0.00    +0.004 A 
ATOM     21  C   UNL     1      -2.107 -12.597  -3.850  0.00  0.00    +0.046 A 
ATOM     22  C   UNL     1      -1.949 -11.306  -3.371  0.00  0.00    +0.125 A 
BRANCH  22  23
ATOM     23  O   UNL     1      -0.795 -10.945  -2.752  0.00  0.00    -0.506 OA
ATOM     24  H   UNL     1      -0.798 -11.092  -1.796  0.00  0.00    +0.292 HD
ENDBRANCH  22  23
ENDBRANCH   9  17
BRANCH   1  25
ATOM     25  S   UNL     1      -1.700  -0.632   0.015  0.00  0.00    +0.058 S 
ATOM     26  O   UNL     1      -2.359  -0.234   1.209  0.00  0.00    -0.164 OA
ATOM     27  O   UNL     1      -2.308  -0.423  -1.252  0.00  0.00    -0.164 OA
BRANCH  25  29
ATOM     28  C   UNL     1      -0.019   1.526   0.010  0.00  0.00    +0.032 C 
ATOM     29  C   UNL     1       0.002  -0.004   0.002  0.00  0.00    +0.136 C 
ATOM     30  C   UNL     1       0.742  -0.511   1.242  0.00  0.00    +0.032 C 
ENDBRANCH  25  29
ENDBRANCH   1  25
BRANCH  10  31
ATOM     31  O   UNL     1      -1.068  -8.578  -4.569  0.00  0.00    -0.494 OA
ATOM     32  C   UNL     1      -0.109  -7.651  -5.081  0.00  0.00    +0.277 C 
ENDBRANCH  10  31
TORSDOF 5
