REMARK  Name = ZINC00756913
REMARK  5 active torsions:
REMARK  status: ('A' for Active; 'I' for Inactive)
REMARK    1  A    between atoms: C_1  and  C_2
REMARK    2  A    between atoms: C_2  and  O_3
REMARK    3  A    between atoms: O_3  and  C_4
REMARK    4  A    between atoms: C_9  and  N_10
REMARK    5  A    between atoms: C_18  and  C_20
REMARK                            x       y       z     vdW  Elec       q    Type
REMARK                         _______ _______ _______ _____ _____    ______ ____
ROOT
ATOM      1  N   UNL     1      -0.491   4.229  -0.886  0.00  0.00    -0.296 N 
ATOM      2  C   UNL     1       0.736   4.466  -0.293  0.00  0.00    +0.135 A 
ATOM      3  C   UNL     1       1.686   3.426  -0.076  0.00  0.00    +0.051 A 
ATOM      4  C   UNL     1       1.542   2.021  -0.418  0.00  0.00    -0.025 A 
ATOM      5  C   UNL     1       2.583   1.213  -0.115  0.00  0.00    -0.004 A 
ATOM      6  S   UNL     1       3.795   2.272   0.634  0.00  0.00    -0.073 S 
ATOM      7  C   UNL     1       2.909   3.794   0.540  0.00  0.00    +0.114 A 
ATOM      8  N   UNL     1       3.191   5.028   0.908  0.00  0.00    -0.225 NA
ATOM      9  C   UNL     1       2.263   5.949   0.677  0.00  0.00    +0.129 A 
ATOM     10  N   UNL     1       1.105   5.681   0.109  0.00  0.00    -0.217 NA
ATOM     11  C   UNL     1       2.550   7.371   1.084  0.00  0.00    +0.088 C 
ATOM     12  C   UNL     1       2.688  -0.261  -0.359  0.00  0.00    +0.043 C 
ATOM     13  C   UNL     1       1.287  -0.804  -0.675  0.00  0.00    +0.005 C 
ATOM     14  C   UNL     1       0.633   0.107  -1.718  0.00  0.00    +0.005 C 
ATOM     15  C   UNL     1       0.291   1.456  -1.087  0.00  0.00    +0.037 C 
ATOM     16  H   UNL     1      -0.766   3.320  -1.085  0.00  0.00    +0.154 HD
ENDROOT
BRANCH   1  22
ATOM     17  C   UNL     1      -2.719   5.129  -1.178  0.00  0.00    +0.142 A 
ATOM     18  C   UNL     1      -3.550   6.192  -1.488  0.00  0.00    +0.047 A 
ATOM     19  C   UNL     1      -3.008   7.421  -1.818  0.00  0.00    +0.004 A 
ATOM     20  C   UNL     1      -1.636   7.592  -1.838  0.00  0.00    +0.002 A 
ATOM     21  C   UNL     1      -0.800   6.537  -1.525  0.00  0.00    +0.027 A 
ATOM     22  C   UNL     1      -1.337   5.300  -1.199  0.00  0.00    +0.075 A 
BRANCH  17  23
ATOM     23  O   UNL     1      -3.251   3.920  -0.853  0.00  0.00    -0.490 OA
BRANCH  23  25
ATOM     24  C   UNL     1      -5.085   2.395  -0.466  0.00  0.00    +0.048 C 
ATOM     25  C   UNL     1      -4.676   3.817  -0.853  0.00  0.00    +0.226 C 
ENDBRANCH  23  25
ENDBRANCH  17  23
ENDBRANCH   1  22
TORSDOF 3
