REMARK  Name = ZINC64006710
REMARK  5 active torsions:
REMARK  status: ('A' for Active; 'I' for Inactive)
REMARK    1  A    between atoms: C_1  and  C_2
REMARK    2  A    between atoms: C_4  and  C_26
REMARK    3  A    between atoms: C_7  and  C_12
REMARK    4  A    between atoms: C_12  and  N_13
REMARK    5  A    between atoms: C_14  and  C_16
REMARK                            x       y       z     vdW  Elec       q    Type
REMARK                         _______ _______ _______ _____ _____    ______ ____
ROOT
ATOM      1  N   UNL     1      -3.459  -4.858   3.076  0.00  0.00    -0.311 N 
ATOM      2  C   UNL     1      -4.373  -5.754   3.497  0.00  0.00    +0.218 C 
ATOM      3  O   UNL     1      -5.235  -5.418   4.281  0.00  0.00    -0.275 OA
ATOM      4  H   UNL     1      -2.769  -5.127   2.449  0.00  0.00    +0.149 HD
ENDROOT
BRANCH   2   5
ATOM      5  C   UNL     1      -4.324  -7.174   2.994  0.00  0.00    +0.092 C 
ATOM      6  C   UNL     1      -5.466  -7.978   3.621  0.00  0.00    +0.016 C 
ATOM      7  C   UNL     1      -5.398  -9.428   3.136  0.00  0.00    +0.020 C 
ATOM      8  C   UNL     1      -5.563  -9.461   1.613  0.00  0.00    +0.109 C 
ATOM      9  N   UNL     1      -4.558  -8.575   1.010  0.00  0.00    -0.285 N 
ATOM     10  C   UNL     1      -4.476  -7.182   1.470  0.00  0.00    +0.122 C 
ATOM     11  C   UNL     1      -3.727  -9.031   0.052  0.00  0.00    +0.300 C 
ATOM     12  O   UNL     1      -2.963  -8.267  -0.505  0.00  0.00    -0.253 OA
ATOM     13  N   UNL     1      -3.743 -10.335  -0.289  0.00  0.00    -0.313 N 
ATOM     14  H   UNL     1      -4.402 -10.930   0.101  0.00  0.00    +0.146 HD
ATOM     15  H   UNL     1      -3.096 -10.678  -0.925  0.00  0.00    +0.146 HD
ENDBRANCH   2   5
BRANCH   1  16
ATOM     16  C   UNL     1      -3.506  -3.478   3.565  0.00  0.00    +0.139 C 
BRANCH  16  22
ATOM     17  C   UNL     1      -0.017   1.525   0.011  0.00  0.00    +0.035 C 
ATOM     18  C   UNL     1       0.004  -0.005   0.003  0.00  0.00    +0.103 C 
ATOM     19  C   UNL     1      -1.408  -0.545   0.039  0.00  0.00    -0.042 C 
ATOM     20  C   UNL     1      -1.501  -1.276   1.174  0.00  0.00    -0.001 A 
ATOM     21  C   UNL     1      -2.596  -2.046   1.774  0.00  0.00    +0.015 A 
ATOM     22  C   UNL     1      -2.383  -2.687   2.946  0.00  0.00    -0.030 A 
ATOM     23  C   UNL     1      -1.144  -2.634   3.599  0.00  0.00    +0.007 A 
ATOM     24  C   UNL     1      -0.090  -1.948   3.110  0.00  0.00    +0.026 A 
ATOM     25  C   UNL     1      -0.202  -1.236   1.884  0.00  0.00    +0.043 A 
ATOM     26  N   UNL     1       0.661  -0.509   1.214  0.00  0.00    -0.378 N 
ATOM     27  C   UNL     1      -2.493  -0.316  -0.981  0.00  0.00    +0.042 C 
ATOM     28  H   UNL     1       1.578  -0.334   1.474  0.00  0.00    +0.160 HD
ENDBRANCH  16  22
ENDBRANCH   1  16
TORSDOF 3
