REMARK  Name = ZINC11591766
REMARK  7 active torsions:
REMARK  status: ('A' for Active; 'I' for Inactive)
REMARK    1  A    between atoms: C_1  and  C_2
REMARK    2  A    between atoms: C_2  and  C_4
REMARK    3  A    between atoms: C_2  and  S_16
REMARK    4  A    between atoms: N_6  and  C_7
REMARK    5  A    between atoms: S_16  and  C_17
REMARK    6  A    between atoms: C_20  and  C_23
REMARK    7  A    between atoms: N_21  and  N_22
REMARK                            x       y       z     vdW  Elec       q    Type
REMARK                         _______ _______ _______ _____ _____    ______ ____
ROOT
ATOM      1  C   UNL     1       2.303   9.607   1.413  0.00  0.00    +0.029 C 
ATOM      2  C   UNL     1       2.729   9.580  -0.056  0.00  0.00    +0.137 C 
ENDROOT
BRANCH   2   3
ATOM      3  C   UNL     1       3.694  10.707  -0.320  0.00  0.00    +0.230 C 
ATOM      4  O   UNL     1       4.887  10.488  -0.360  0.00  0.00    -0.274 OA
ATOM      5  N   UNL     1       3.232  11.959  -0.512  0.00  0.00    -0.283 N 
ATOM      6  H   UNL     1       2.277  12.123  -0.545  0.00  0.00    +0.155 HD
BRANCH   5   7
ATOM      7  C   UNL     1       4.132  13.021  -0.663  0.00  0.00    +0.053 A 
ATOM      8  C   UNL     1       5.342  12.821  -1.314  0.00  0.00    +0.046 A 
ATOM      9  C   UNL     1       6.227  13.871  -1.463  0.00  0.00    +0.061 A 
ATOM     10  C   UNL     1       5.909  15.123  -0.964  0.00  0.00    +0.061 A 
ATOM     11  C   UNL     1       4.704  15.325  -0.315  0.00  0.00    +0.043 A 
ATOM     12  C   UNL     1       3.812  14.279  -0.168  0.00  0.00    +0.064 A 
ATOM     13 CL   UNL     1       2.298  14.536   0.641  0.00  0.00    -0.082 Cl
ATOM     14 CL   UNL     1       7.023  16.441  -1.153  0.00  0.00    -0.082 Cl
ATOM     15 CL   UNL     1       7.740  13.621  -2.277  0.00  0.00    -0.082 Cl
ENDBRANCH   5   7
ENDBRANCH   2   3
BRANCH   2  16
ATOM     16  S   UNL     1       3.533   8.000  -0.422  0.00  0.00    -0.072 S 
BRANCH  16  17
ATOM     17  C   UNL     1       2.174   6.903  -0.182  0.00  0.00    +0.209 A 
ATOM     18  N   UNL     1       0.954   7.240   0.167  0.00  0.00    -0.121 NA
ATOM     19  N   UNL     1       0.213   6.194   0.253  0.00  0.00    -0.126 NA
ATOM     20  C   UNL     1       0.916   5.121  -0.036  0.00  0.00    +0.188 A 
ATOM     21  N   UNL     1       2.197   5.543  -0.319  0.00  0.00    -0.223 N 
BRANCH  20  22
ATOM     22  C   UNL     1       0.430   3.732  -0.049  0.00  0.00    +0.058 A 
ATOM     23  C   UNL     1      -0.862   3.269  -0.048  0.00  0.00    +0.019 A 
ATOM     24  C   UNL     1      -1.075   1.909  -0.068  0.00  0.00    +0.008 A 
ATOM     25  C   UNL     1      -0.007   1.070  -0.078  0.00  0.00    +0.046 A 
ATOM     26  S   UNL     1       1.366   2.212  -0.072  0.00  0.00    -0.093 S 
ENDBRANCH  20  22
BRANCH  21  27
ATOM     27  N   UNL     1       3.265   4.765  -0.665  0.00  0.00    -0.295 N 
ATOM     28  H   UNL     1       3.317   4.649  -1.666  0.00  0.00    +0.163 HD
ATOM     29  H   UNL     1       4.124   5.148  -0.300  0.00  0.00    +0.163 HD
ENDBRANCH  21  27
ENDBRANCH  16  17
ENDBRANCH   2  16
TORSDOF 6
