REMARK  Name = ZINC39673790
REMARK  7 active torsions:
REMARK  status: ('A' for Active; 'I' for Inactive)
REMARK    1  A    between atoms: C_1  and  C_2
REMARK    2  A    between atoms: C_2  and  C_3
REMARK    3  A    between atoms: C_3  and  C_4
REMARK    4  A    between atoms: C_4  and  C_6
REMARK    5  A    between atoms: C_4  and  N_7
REMARK    6  A    between atoms: C_8  and  C_10
REMARK    7  A    between atoms: C_21  and  C_23
REMARK                            x       y       z     vdW  Elec       q    Type
REMARK                         _______ _______ _______ _____ _____    ______ ____
ROOT
ATOM      1  C   UNL     1      -2.325  -4.294   1.028  0.00  0.00    +0.100 C 
ATOM      2  C   UNL     1      -2.662  -4.557   2.513  0.00  0.00    +0.121 C 
ATOM      3  N   UNL     1      -3.491  -5.785   2.497  0.00  0.00    -0.297 N 
ATOM      4  C   UNL     1      -2.859  -6.643   1.467  0.00  0.00    +0.115 C 
ATOM      5  C   UNL     1      -2.454  -5.666   0.345  0.00  0.00    -0.004 C 
ATOM      6  C   UNL     1      -1.118  -6.083  -0.261  0.00  0.00    -0.010 C 
ATOM      7  C   UNL     1      -1.286  -7.422  -0.985  0.00  0.00    -0.082 C 
ATOM      8  N   UNL     1      -2.302  -7.288  -2.035  0.00  0.00    +0.379 N 
ATOM      9  C   UNL     1      -3.606  -6.979  -1.435  0.00  0.00    -0.082 C 
ATOM     10  C   UNL     1      -3.535  -5.621  -0.731  0.00  0.00    -0.010 C 
ATOM     11  C   UNL     1      -4.575  -6.060   3.249  0.00  0.00    +0.260 C 
ATOM     12  O   UNL     1      -5.151  -7.119   3.119  0.00  0.00    -0.271 OA
ATOM     13  H   UNL     1      -2.038  -6.545  -2.664  0.00  0.00    -0.086 HD
ATOM     14  H   UNL     1      -2.368  -8.154  -2.550  0.00  0.00    -0.086 HD
ENDROOT
BRANCH  11  15
ATOM     15  C   UNL     1      -5.071  -5.050   4.252  0.00  0.00    +0.296 C 
ATOM     16  C   UNL     1      -4.027  -4.866   5.362  0.00  0.00    +0.283 C 
ATOM     17  O   UNL     1      -4.535  -3.913   6.302  0.00  0.00    -0.484 OA
ATOM     18  C   UNL     1      -5.825  -4.080   6.704  0.00  0.00    +0.162 A 
ATOM     19  C   UNL     1      -6.267  -3.442   7.854  0.00  0.00    +0.049 A 
ATOM     20  C   UNL     1      -7.574  -3.599   8.273  0.00  0.00    +0.004 A 
ATOM     21  C   UNL     1      -8.445  -4.391   7.548  0.00  0.00    +0.004 A 
ATOM     22  C   UNL     1      -8.011  -5.031   6.403  0.00  0.00    +0.049 A 
ATOM     23  C   UNL     1      -6.699  -4.879   5.977  0.00  0.00    +0.163 A 
ATOM     24  O   UNL     1      -6.284  -5.521   4.851  0.00  0.00    -0.473 OA
ENDBRANCH  11  15
BRANCH   1  26
ATOM     25  N   UNL     1      -0.598  -2.952  -0.127  0.00  0.00    -0.312 N 
ATOM     26  C   UNL     1      -0.918  -3.772   0.893  0.00  0.00    +0.218 C 
ATOM     27  O   UNL     1      -0.073  -4.090   1.704  0.00  0.00    -0.275 OA
ATOM     28  H   UNL     1      -1.274  -2.697  -0.775  0.00  0.00    +0.149 HD
BRANCH  25  29
ATOM     29  C   UNL     1       0.770  -2.444  -0.258  0.00  0.00    +0.070 C 
ATOM     30  C   UNL     1       0.934  -1.193   0.607  0.00  0.00    +0.028 C 
BRANCH  29  31
ATOM     31  C   UNL     1       1.046  -2.093  -1.721  0.00  0.00    +0.022 C 
BRANCH  31  33
ATOM     32  C   UNL     1       1.280  -3.015  -4.031  0.00  0.00    +0.004 C 
ATOM     33  C   UNL     1       1.004  -3.366  -2.568  0.00  0.00    -0.002 C 
ENDBRANCH  31  33
ENDBRANCH  29  31
ENDBRANCH  25  29
ENDBRANCH   1  26
TORSDOF 5
