REMARK  Name = ZINC67561079
REMARK  5 active torsions:
REMARK  status: ('A' for Active; 'I' for Inactive)
REMARK    1  A    between atoms: C_3  and  C_7
REMARK    2  A    between atoms: N_17  and  C_18
REMARK    3  A    between atoms: C_18  and  C_19
REMARK    4  A    between atoms: C_22  and  O_25
REMARK    5  A    between atoms: O_25  and  C_26
REMARK                            x       y       z     vdW  Elec       q    Type
REMARK                         _______ _______ _______ _____ _____    ______ ____
ROOT
ATOM      1  C   UNL     1       3.536   1.920  -0.009  0.00  0.00    +0.137 C 
ATOM      2  C   UNL     1       4.012   1.850  -1.438  0.00  0.00    +0.058 A 
ATOM      3  C   UNL     1       5.278   1.521  -1.783  0.00  0.00    +0.039 A 
ATOM      4  N   UNL     1       5.346   1.556  -3.140  0.00  0.00    -0.349 N 
ATOM      5  H   UNL     1       6.126   1.365  -3.684  0.00  0.00    +0.166 HD
ATOM      6  C   UNL     1       4.118   1.907  -3.588  0.00  0.00    +0.171 A 
ATOM      7  N   UNL     1       3.328   2.081  -2.559  0.00  0.00    -0.348 N 
ATOM      8  C   UNL     1       6.355   1.195  -0.781  0.00  0.00    +0.070 C 
ATOM      9  C   UNL     1       5.880   1.682   0.596  0.00  0.00    +0.092 C 
ATOM     10  N   UNL     1       4.509   1.211   0.839  0.00  0.00    -0.286 NA
ATOM     11  H   UNL     1       2.393   2.337  -2.605  0.00  0.00    +0.166 HD
ENDROOT
BRANCH   1  14
ATOM     12  C   UNL     1      -0.189   1.384   0.263  0.00  0.00    +0.020 A 
ATOM     13  C   UNL     1       1.032   2.032   0.155  0.00  0.00    +0.008 A 
ATOM     14  C   UNL     1       2.185   1.263   0.109  0.00  0.00    -0.006 A 
ATOM     15  C   UNL     1       2.080  -0.114   0.174  0.00  0.00    +0.116 A 
ATOM     16  N   UNL     1       0.901  -0.696   0.277  0.00  0.00    -0.263 NA
ATOM     17  C   UNL     1      -0.216   0.003   0.323  0.00  0.00    +0.111 A 
ENDBRANCH   1  14
BRANCH  10  18
ATOM     18  C   UNL     1       4.155   1.331   2.260  0.00  0.00    +0.120 C 
BRANCH  18  19
ATOM     19  C   UNL     1       5.018   0.401   3.073  0.00  0.00    -0.033 A 
ATOM     20  C   UNL     1       4.602  -0.896   3.311  0.00  0.00    +0.008 A 
ATOM     21  C   UNL     1       5.391  -1.750   4.056  0.00  0.00    +0.047 A 
ATOM     22  C   UNL     1       6.603  -1.306   4.566  0.00  0.00    +0.132 A 
ATOM     23  C   UNL     1       7.019  -0.004   4.325  0.00  0.00    +0.047 A 
ATOM     24  C   UNL     1       6.228   0.845   3.575  0.00  0.00    +0.008 A 
BRANCH  22  25
ATOM     25  O   UNL     1       7.381  -2.144   5.300  0.00  0.00    -0.424 OA
BRANCH  25  26
ATOM     26  C   UNL     1       7.974  -3.182   4.662  0.00  0.00    +0.323 A 
ATOM     27  N   UNL     1       7.877  -3.272   3.346  0.00  0.00    -0.203 NA
ATOM     28  C   UNL     1       8.445  -4.272   2.692  0.00  0.00    +0.118 A 
ATOM     29  C   UNL     1       9.148  -5.232   3.404  0.00  0.00    +0.040 A 
ATOM     30  C   UNL     1       9.230  -5.106   4.782  0.00  0.00    +0.118 A 
ATOM     31  N   UNL     1       8.642  -4.078   5.372  0.00  0.00    -0.203 NA
ENDBRANCH  25  26
ENDBRANCH  22  25
ENDBRANCH  18  19
ENDBRANCH  10  18
TORSDOF 5
