REMARK  Name = ZINC04237922
REMARK  6 active torsions:
REMARK  status: ('A' for Active; 'I' for Inactive)
REMARK    1  A    between atoms: C_1  and  C_2
REMARK    2  A    between atoms: C_4  and  C_17
REMARK    3  A    between atoms: C_7  and  C_13
REMARK    4  A    between atoms: C_11  and  C_12
REMARK    5  A    between atoms: C_13  and  O_15
REMARK    6  A    between atoms: O_15  and  C_16
REMARK                            x       y       z     vdW  Elec       q    Type
REMARK                         _______ _______ _______ _____ _____    ______ ____
ROOT
ATOM      1  C   UNL     1      -0.018   1.503   0.010  0.00  0.00    +0.044 C 
ATOM      2  C   UNL     1       0.002  -0.004   0.002  0.00  0.00    -0.045 A 
ATOM      3  C   UNL     1       0.006  -0.685  -1.209  0.00  0.00    +0.007 A 
ATOM      4  C   UNL     1       0.024  -2.049  -1.239  0.00  0.00    -0.041 A 
ATOM      5  C   UNL     1       0.040  -2.772  -0.039  0.00  0.00    +0.004 A 
ATOM      6  C   UNL     1       0.060  -4.155   0.262  0.00  0.00    +0.043 A 
ATOM      7  C   UNL     1       0.069  -4.284   1.615  0.00  0.00    +0.125 A 
ATOM      8  N   UNL     1       0.055  -3.028   2.190  0.00  0.00    -0.349 N 
ATOM      9  H   UNL     1       0.057  -2.842   3.142  0.00  0.00    +0.166 HD
ATOM     10  C   UNL     1       0.037  -2.084   1.190  0.00  0.00    +0.051 A 
ATOM     11  C   UNL     1       0.023  -0.692   1.194  0.00  0.00    -0.024 A 
ATOM     12  C   UNL     1       0.024   0.060   2.501  0.00  0.00    +0.046 C 
ATOM     13  C   UNL     1       0.027  -2.776  -2.559  0.00  0.00    +0.044 C 
ENDROOT
BRANCH   7  14
ATOM     14  C   UNL     1       0.089  -5.556   2.350  0.00  0.00    +0.355 C 
ATOM     15  O   UNL     1       0.100  -6.609   1.742  0.00  0.00    -0.243 OA
BRANCH  14  16
ATOM     16  O   UNL     1       0.096  -5.556   3.698  0.00  0.00    -0.463 OA
ATOM     17  C   UNL     1       0.116  -6.830   4.347  0.00  0.00    +0.280 C 
ENDBRANCH  14  16
ENDBRANCH   7  14
TORSDOF 2
