REMARK  Name = ZINC48474521
REMARK  7 active torsions:
REMARK  status: ('A' for Active; 'I' for Inactive)
REMARK    1  A    between atoms: C_1  and  C_2
REMARK    2  A    between atoms: C_2  and  C_3
REMARK    3  A    between atoms: C_2  and  C_4
REMARK    4  A    between atoms: C_7  and  C_11
REMARK    5  A    between atoms: C_8  and  O_10
REMARK    6  A    between atoms: N_16  and  C_19
REMARK    7  A    between atoms: C_19  and  C_20
REMARK                            x       y       z     vdW  Elec       q    Type
REMARK                         _______ _______ _______ _____ _____    ______ ____
ROOT
ATOM      1  C   UNL     1       2.686  -1.854  -4.742  0.00  0.00    +0.250 C 
ATOM      2  O   UNL     1       2.059  -1.552  -3.745  0.00  0.00    -0.270 OA
ATOM      3  N   UNL     1       2.266  -1.437  -5.953  0.00  0.00    -0.295 N 
ATOM      4  C   UNL     1       1.133  -0.509  -6.081  0.00  0.00    +0.123 C 
ATOM      5  C   UNL     1       0.134  -1.095  -7.084  0.00  0.00    +0.104 C 
ATOM      6  N   UNL     1       0.830  -1.403  -8.341  0.00  0.00    -0.294 NA
ATOM      7  C   UNL     1       1.860  -2.431  -8.142  0.00  0.00    +0.104 C 
ATOM      8  C   UNL     1       2.933  -1.895  -7.182  0.00  0.00    +0.123 C 
ENDROOT
BRANCH   1  12
ATOM      9  C   UNL     1       6.200  -4.219  -4.409  0.00  0.00    -0.041 A 
ATOM     10  C   UNL     1       6.241  -3.008  -5.081  0.00  0.00    +0.005 A 
ATOM     11  C   UNL     1       5.105  -2.236  -5.193  0.00  0.00    +0.017 A 
ATOM     12  C   UNL     1       3.906  -2.675  -4.626  0.00  0.00    +0.078 A 
ATOM     13  C   UNL     1       3.869  -3.901  -3.947  0.00  0.00    +0.129 A 
ATOM     14  C   UNL     1       5.020  -4.667  -3.849  0.00  0.00    +0.050 A 
BRANCH   9  16
ATOM     15  C   UNL     1       7.952  -5.416  -5.692  0.00  0.00    +0.012 C 
ATOM     16  C   UNL     1       7.449  -5.054  -4.293  0.00  0.00    +0.013 C 
ATOM     17  C   UNL     1       8.527  -4.260  -3.553  0.00  0.00    +0.012 C 
ENDBRANCH   9  16
BRANCH  13  18
ATOM     18  O   UNL     1       2.710  -4.337  -3.392  0.00  0.00    -0.506 OA
ATOM     19  H   UNL     1       2.168  -4.876  -3.986  0.00  0.00    +0.292 HD
ENDBRANCH  13  18
ENDBRANCH   1  12
BRANCH   6  20
ATOM     20  C   UNL     1      -0.121  -1.805  -9.385  0.00  0.00    +0.139 C 
BRANCH  20  21
ATOM     21  C   UNL     1       0.589  -1.874 -10.713  0.00  0.00    +0.048 A 
ATOM     22  C   UNL     1       0.641  -0.884 -11.630  0.00  0.00    +0.115 A 
ATOM     23  N   UNL     1       1.380  -1.349 -12.684  0.00  0.00    -0.308 N 
ATOM     24  C   UNL     1       1.751  -0.786 -13.871  0.00  0.00    +0.092 A 
ATOM     25  C   UNL     1       2.499  -1.478 -14.756  0.00  0.00    +0.018 A 
ATOM     26  C   UNL     1       2.906  -2.791 -14.466  0.00  0.00    +0.005 A 
ATOM     27  C   UNL     1       2.543  -3.364 -13.287  0.00  0.00    +0.045 A 
ATOM     28  C   UNL     1       1.762  -2.628 -12.373  0.00  0.00    +0.115 A 
ATOM     29  N   UNL     1       1.276  -2.921 -11.175  0.00  0.00    -0.342 N 
ATOM     30  H   UNL     1       1.399  -3.763 -10.709  0.00  0.00    +0.167 HD
ENDBRANCH  20  21
ENDBRANCH   6  20
TORSDOF 5
