REMARK  Name = ZINC13095919
REMARK  11 active torsions:
REMARK  status: ('A' for Active; 'I' for Inactive)
REMARK    1  A    between atoms: C_1  and  C_2
REMARK    2  A    between atoms: C_7  and  N_12
REMARK    3  A    between atoms: C_9  and  C_11
REMARK    4  A    between atoms: C_13  and  C_15
REMARK    5  A    between atoms: C_15  and  C_17
REMARK    6  A    between atoms: C_15  and  S_18
REMARK    7  A    between atoms: S_18  and  C_19
REMARK    8  A    between atoms: C_22  and  S_25
REMARK    9  A    between atoms: S_25  and  N_28
REMARK   10  A    between atoms: N_31  and  C_34
REMARK   11  A    between atoms: C_34  and  C_35
REMARK                            x       y       z     vdW  Elec       q    Type
REMARK                         _______ _______ _______ _____ _____    ______ ____
ROOT
ATOM      1  C   UNL     1      -4.032   1.922   0.819  0.00  0.00    +0.098 A 
ATOM      2  C   UNL     1      -5.225   1.422   1.333  0.00  0.00    +0.037 A 
ATOM      3  C   UNL     1      -6.332   2.248   1.388  0.00  0.00    +0.032 A 
ATOM      4  C   UNL     1      -6.209   3.552   0.925  0.00  0.00    +0.124 A 
ATOM      5  C   UNL     1      -4.995   3.983   0.428  0.00  0.00    +0.140 A 
ATOM      6  N   UNL     1      -3.954   3.174   0.393  0.00  0.00    -0.247 NA
ENDROOT
BRANCH   4   7
ATOM      7  S   UNL     1      -7.590   4.646   0.972  0.00  0.00    +0.062 S 
ATOM      8  O   UNL     1      -7.357   5.636  -0.021  0.00  0.00    -0.153 OA
ATOM      9  O   UNL     1      -8.754   3.832   0.978  0.00  0.00    -0.153 OA
BRANCH   7  10
ATOM     10  N   UNL     1      -7.549   5.424   2.434  0.00  0.00    -0.174 NA
ATOM     11  C   UNL     1      -8.243   4.867   3.605  0.00  0.00    +0.125 C 
ATOM     12  C   UNL     1      -7.247   4.813   4.774  0.00  0.00    +0.102 C 
ATOM     13  N   UNL     1      -6.662   6.146   4.975  0.00  0.00    -0.296 NA
ATOM     14  C   UNL     1      -5.888   6.570   3.801  0.00  0.00    +0.102 C 
ATOM     15  C   UNL     1      -6.822   6.693   2.594  0.00  0.00    +0.125 C 
BRANCH  13  16
ATOM     16  C   UNL     1      -5.839   6.182   6.191  0.00  0.00    +0.119 C 
BRANCH  16  17
ATOM     17  C   UNL     1      -6.581   5.514   7.320  0.00  0.00    -0.033 A 
ATOM     18  C   UNL     1      -7.405   6.260   8.142  0.00  0.00    +0.005 A 
ATOM     19  C   UNL     1      -8.089   5.647   9.175  0.00  0.00    +0.000 A 
ATOM     20  C   UNL     1      -7.941   4.290   9.392  0.00  0.00    +0.000 A 
ATOM     21  C   UNL     1      -7.112   3.545   8.574  0.00  0.00    +0.000 A 
ATOM     22  C   UNL     1      -6.432   4.158   7.538  0.00  0.00    +0.005 A 
ENDBRANCH  16  17
ENDBRANCH  13  16
ENDBRANCH   7  10
ENDBRANCH   4   7
BRANCH   1  23
ATOM     23  S   UNL     1      -2.611   0.883   0.742  0.00  0.00    -0.093 S 
BRANCH  23  24
ATOM     24  C   UNL     1      -1.330   1.944   0.019  0.00  0.00    +0.135 C 
ATOM     25  C   UNL     1      -1.720   2.311  -1.414  0.00  0.00    +0.029 C 
BRANCH  24  27
ATOM     26  N   UNL     1       1.143   1.898   0.001  0.00  0.00    -0.311 N 
ATOM     27  C   UNL     1      -0.014   1.209   0.009  0.00  0.00    +0.226 C 
ATOM     28  O   UNL     1       0.002  -0.004   0.002  0.00  0.00    -0.275 OA
ATOM     29  H   UNL     1       1.129   2.998   0.007  0.00  0.00    +0.149 HD
BRANCH  26  35
ATOM     30  C   UNL     1       5.936   2.214   1.177  0.00  0.00    +0.008 C 
ATOM     31  C   UNL     1       4.846   1.325   0.573  0.00  0.00    -0.009 C 
ATOM     32  C   UNL     1       5.216   0.974  -0.870  0.00  0.00    +0.003 C 
ATOM     33  C   UNL     1       4.127   0.085  -1.474  0.00  0.00    +0.002 C 
ATOM     34  C   UNL     1       2.792   0.832  -1.457  0.00  0.00    +0.022 C 
ATOM     35  C   UNL     1       2.422   1.183  -0.015  0.00  0.00    +0.076 C 
ATOM     36  C   UNL     1       3.511   2.072   0.589  0.00  0.00    +0.009 C 
ATOM     37  C   UNL     1       3.635   3.357  -0.232  0.00  0.00    +0.009 C 
ENDBRANCH  26  35
ENDBRANCH  24  27
ENDBRANCH  23  24
ENDBRANCH   1  23
TORSDOF 8
