REMARK  Name = ZINC39710905
REMARK  9 active torsions:
REMARK  status: ('A' for Active; 'I' for Inactive)
REMARK    1  A    between atoms: C_1  and  C_2
REMARK    2  A    between atoms: C_8  and  C_14
REMARK    3  A    between atoms: C_14  and  C_16
REMARK    4  A    between atoms: C_14  and  N_28
REMARK    5  A    between atoms: N_21  and  C_22
REMARK    6  A    between atoms: N_28  and  C_29
REMARK    7  A    between atoms: N_28  and  C_36
REMARK    8  A    between atoms: C_29  and  C_30
REMARK    9  A    between atoms: C_36  and  C_37
REMARK                            x       y       z     vdW  Elec       q    Type
REMARK                         _______ _______ _______ _____ _____    ______ ____
ROOT
ATOM      1  C   UNL     1       1.630  -2.101   4.307  0.00  0.00    -0.009 C 
ENDROOT
BRANCH   1   9
ATOM      2  C   UNL     1       0.444   2.990   1.090  0.00  0.00    +0.045 C 
ATOM      3  C   UNL     1       0.558   1.547   0.668  0.00  0.00    -0.029 A 
ATOM      4  C   UNL     1       0.702   1.239  -0.647  0.00  0.00    +0.005 A 
ATOM      5  C   UNL     1       0.814  -0.074  -1.104  0.00  0.00    +0.001 A 
ATOM      6  C   UNL     1       0.783  -1.127  -0.246  0.00  0.00    +0.009 A 
ATOM      7  C   UNL     1       0.630  -0.866   1.185  0.00  0.00    -0.007 A 
ATOM      8  C   UNL     1       0.594  -1.891   2.083  0.00  0.00    -0.006 C 
ATOM      9  C   UNL     1       0.432  -1.528   3.546  0.00  0.00    +0.088 C 
ATOM     10  C   UNL     1       0.324  -0.060   3.890  0.00  0.00    +0.223 C 
ATOM     11  O   UNL     1       0.193   0.288   5.049  0.00  0.00    -0.275 OA
ATOM     12  N   UNL     1       0.372   0.845   2.927  0.00  0.00    -0.284 N 
ATOM     13  C   UNL     1       0.520   0.531   1.640  0.00  0.00    +0.043 A 
ATOM     14  H   UNL     1       0.301   1.782   3.169  0.00  0.00    +0.155 HD
ENDBRANCH   1   9
BRANCH   1  15
ATOM     15  C   UNL     1       2.908  -1.393   3.853  0.00  0.00    +0.205 C 
ATOM     16  N   UNL     1       2.789   0.058   4.051  0.00  0.00    -0.152 NA
ATOM     17  N   UNL     1       2.886   0.619   2.957  0.00  0.00    -0.070 NA
ATOM     18  N   UNL     1       3.073  -0.276   1.904  0.00  0.00    -0.179 N 
ATOM     19  N   UNL     1       3.098  -1.557   2.396  0.00  0.00    -0.185 NA
ATOM     20  H   UNL     1       3.171  -0.031   0.970  0.00  0.00    +0.191 HD
BRANCH  19  21
ATOM     21  C   UNL     1       4.380  -2.211   2.103  0.00  0.00    +0.080 C 
ATOM     22  C   UNL     1       5.526  -1.360   2.655  0.00  0.00    +0.021 C 
ATOM     23  C   UNL     1       6.861  -2.041   2.350  0.00  0.00    +0.002 C 
ATOM     24  C   UNL     1       7.022  -2.193   0.836  0.00  0.00    +0.000 C 
ATOM     25  C   UNL     1       5.877  -3.045   0.284  0.00  0.00    +0.002 C 
ATOM     26  C   UNL     1       4.541  -2.363   0.590  0.00  0.00    +0.021 C 
ENDBRANCH  19  21
ENDBRANCH   1  15
BRANCH   1  27
ATOM     27  N   UNL     1       1.440  -1.891   5.749  0.00  0.00    +0.390 N 
ATOM     28  H   UNL     1       1.322  -0.906   5.933  0.00  0.00    -0.080 HD
BRANCH  27  29
ATOM     29  C   UNL     1       2.616  -2.387   6.475  0.00  0.00    -0.042 C 
BRANCH  29  30
ATOM     30  C   UNL     1       2.574  -1.893   7.898  0.00  0.00    -0.064 A 
ATOM     31  C   UNL     1       3.051  -0.632   8.206  0.00  0.00    +0.002 A 
ATOM     32  C   UNL     1       3.013  -0.178   9.511  0.00  0.00    +0.000 A 
ATOM     33  C   UNL     1       2.496  -0.985  10.508  0.00  0.00    +0.000 A 
ATOM     34  C   UNL     1       2.018  -2.244  10.200  0.00  0.00    +0.000 A 
ATOM     35  C   UNL     1       2.053  -2.697   8.894  0.00  0.00    +0.002 A 
ENDBRANCH  29  30
ENDBRANCH  27  29
BRANCH  27  36
ATOM     36  C   UNL     1       0.245  -2.618   6.196  0.00  0.00    -0.040 C 
BRANCH  36  37
ATOM     37  C   UNL     1       0.346  -4.060   5.771  0.00  0.00    -0.046 A 
ATOM     38  C   UNL     1      -0.089  -4.453   4.514  0.00  0.00    +0.005 A 
ATOM     39  C   UNL     1       0.023  -5.790   4.165  0.00  0.00    +0.020 A 
ATOM     40  C   UNL     1       0.561  -6.681   5.075  0.00  0.00    +0.111 A 
ATOM     41  N   UNL     1       0.964  -6.272   6.262  0.00  0.00    -0.263 NA
ATOM     42  C   UNL     1       0.878  -5.007   6.625  0.00  0.00    +0.112 A 
ENDBRANCH  36  37
ENDBRANCH  27  36
ENDBRANCH   1  27
TORSDOF 8
