REMARK  Name = ZINC16690154
REMARK  8 active torsions:
REMARK  status: ('A' for Active; 'I' for Inactive)
REMARK    1  A    between atoms: C_1  and  C_2
REMARK    2  A    between atoms: C_2  and  C_3
REMARK    3  A    between atoms: C_8  and  O_30
REMARK    4  A    between atoms: C_9  and  C_11
REMARK    5  A    between atoms: C_11  and  C_13
REMARK    6  A    between atoms: C_11  and  N_20
REMARK    7  A    between atoms: C_22  and  C_29
REMARK    8  A    between atoms: C_25  and  C_28
REMARK                            x       y       z     vdW  Elec       q    Type
REMARK                         _______ _______ _______ _____ _____    ______ ____
ROOT
ATOM      1  C   UNL     1      -0.074   5.619   0.032  0.00  0.00    +0.129 C 
ENDROOT
BRANCH   1   8
ATOM      2  C   UNL     1      -0.374   7.803  -5.509  0.00  0.00    +0.152 A 
ATOM      3  N   UNL     1      -1.495   7.327  -4.971  0.00  0.00    -0.205 NA
ATOM      4  C   UNL     1      -1.246   6.894  -3.765  0.00  0.00    +0.199 A 
ATOM      5  N   UNL     1       0.072   7.079  -3.478  0.00  0.00    -0.173 N 
ATOM      6  N   UNL     1       0.602   7.678  -4.650  0.00  0.00    -0.147 NA
ATOM      7  C   UNL     1       0.508   6.676  -2.238  0.00  0.00    +0.228 A 
ATOM      8  C   UNL     1      -0.341   6.125  -1.363  0.00  0.00    +0.076 A 
ATOM      9  S   UNL     1      -1.871   6.139  -2.284  0.00  0.00    -0.047 S 
BRANCH   2  11
ATOM     10  C   UNL     1       0.091   7.288  -7.889  0.00  0.00    +0.012 C 
ATOM     11  C   UNL     1      -0.251   8.394  -6.889  0.00  0.00    +0.075 C 
ENDBRANCH   2  11
BRANCH   7  12
ATOM     12  O   UNL     1       1.815   6.838  -1.899  0.00  0.00    -0.492 OA
ATOM     13  H   UNL     1       2.170   6.516  -0.908  0.00  0.00    +0.294 HD
ENDBRANCH   7  12
ENDBRANCH   1   8
BRANCH   1  14
ATOM     14  N   UNL     1      -1.133   6.090   0.934  0.00  0.00    -0.286 NA
ATOM     15  C   UNL     1      -1.107   7.554   1.059  0.00  0.00    +0.116 C 
ATOM     16  C   UNL     1      -2.260   8.005   1.958  0.00  0.00    +0.130 C 
ATOM     17  O   UNL     1      -2.154   7.351   3.226  0.00  0.00    -0.371 OA
ATOM     18  C   UNL     1      -2.177   5.924   3.141  0.00  0.00    +0.130 C 
ATOM     19  C   UNL     1      -1.023   5.452   2.254  0.00  0.00    +0.116 C 
ATOM     20  C   UNL     1      -2.024   5.327   4.542  0.00  0.00    +0.039 C 
ATOM     21  C   UNL     1      -2.191   9.521   2.157  0.00  0.00    +0.039 C 
ENDBRANCH   1  14
BRANCH   1  22
ATOM     22  C   UNL     1      -0.054   4.112   0.024  0.00  0.00    -0.025 A 
ATOM     23  C   UNL     1       1.153   3.438   0.009  0.00  0.00    +0.008 A 
ATOM     24  C   UNL     1       1.173   2.056   0.002  0.00  0.00    +0.038 A 
ATOM     25  C   UNL     1      -0.016   1.347   0.009  0.00  0.00    +0.123 A 
ATOM     26  C   UNL     1      -1.224   2.023   0.019  0.00  0.00    +0.038 A 
ATOM     27  C   UNL     1      -1.242   3.405   0.032  0.00  0.00    +0.008 A 
ATOM     28  F   UNL     1       0.002  -0.004   0.002  0.00  0.00    -0.205 F 
ENDBRANCH   1  22
TORSDOF 5
