REMARK  Name = ZINC26383343
REMARK  10 active torsions:
REMARK  status: ('A' for Active; 'I' for Inactive)
REMARK    1  A    between atoms: C_1  and  C_2
REMARK    2  A    between atoms: C_5  and  C_34
REMARK    3  A    between atoms: C_5  and  C_35
REMARK    4  A    between atoms: N_11  and  C_15
REMARK    5  A    between atoms: C_15  and  C_16
REMARK    6  A    between atoms: N_18  and  C_19
REMARK    7  A    between atoms: C_19  and  C_21
REMARK    8  A    between atoms: C_19  and  C_31
REMARK    9  A    between atoms: C_31  and  C_32
REMARK   10  A    between atoms: C_31  and  C_33
REMARK                            x       y       z     vdW  Elec       q    Type
REMARK                         _______ _______ _______ _____ _____    ______ ____
ROOT
ATOM      1  C   UNL     1       4.590  -2.537   1.459  0.00  0.00    +0.231 C 
ATOM      2  O   UNL     1       5.650  -2.009   1.195  0.00  0.00    -0.274 OA
ATOM      3  N   UNL     1       3.447  -2.050   0.937  0.00  0.00    -0.307 N 
ATOM      4  H   UNL     1       2.486  -2.529   1.176  0.00  0.00    +0.149 HD
ENDROOT
BRANCH   1   5
ATOM      5  C   UNL     1       4.552  -3.736   2.370  0.00  0.00    +0.213 C 
BRANCH   5  15
ATOM      6  C   UNL     1      11.407  -2.646   3.809  0.00  0.00    +0.007 C 
ATOM      7  C   UNL     1      10.337  -3.738   3.872  0.00  0.00    -0.011 C 
ATOM      8  C   UNL     1      10.511  -4.549   5.158  0.00  0.00    +0.009 C 
ATOM      9  C   UNL     1       9.448  -5.649   5.215  0.00  0.00    -0.032 C 
ATOM     10  C   UNL     1       8.056  -5.012   5.209  0.00  0.00    +0.041 C 
ATOM     11  C   UNL     1       7.881  -4.178   3.944  0.00  0.00    +0.113 C 
ATOM     12  C   UNL     1       8.949  -3.093   3.860  0.00  0.00    +0.038 C 
ATOM     13  C   UNL     1       6.501  -3.563   3.906  0.00  0.00    +0.247 C 
ATOM     14  O   UNL     1       6.024  -2.781   4.700  0.00  0.00    -0.273 OA
ATOM     15  N   UNL     1       5.913  -4.066   2.801  0.00  0.00    -0.215 N 
ATOM     16  C   UNL     1       6.725  -4.908   2.150  0.00  0.00    +0.310 C 
ATOM     17  O   UNL     1       6.417  -5.490   1.129  0.00  0.00    -0.252 OA
ATOM     18  N   UNL     1       7.923  -5.035   2.753  0.00  0.00    -0.285 N 
ATOM     19  C   UNL     1       9.629  -6.466   6.496  0.00  0.00    +0.011 C 
ATOM     20  C   UNL     1       9.596  -6.565   3.999  0.00  0.00    +0.011 C 
ATOM     21  H   UNL     1       8.829  -5.614   2.523  0.00  0.00    +0.151 HD
ENDBRANCH   5  15
ENDBRANCH   1   5
BRANCH   3  22
ATOM     22  C   UNL     1       3.484  -0.884   0.051  0.00  0.00    +0.106 C 
BRANCH  22  23
ATOM     23  C   UNL     1       2.154  -0.176   0.096  0.00  0.00    -0.023 A 
ATOM     24  C   UNL     1       0.983  -0.910   0.130  0.00  0.00    +0.009 A 
ATOM     25  C   UNL     1      -0.239  -0.266   0.170  0.00  0.00    +0.050 A 
ATOM     26  C   UNL     1      -0.293   1.120   0.174  0.00  0.00    +0.162 A 
ATOM     27  C   UNL     1       0.884   1.858   0.141  0.00  0.00    +0.162 A 
ATOM     28  C   UNL     1       2.107   1.205   0.101  0.00  0.00    +0.055 A 
ATOM     29  O   UNL     1       0.854   3.219   0.153  0.00  0.00    -0.485 OA
ATOM     30  C   UNL     1      -0.393   3.838  -0.183  0.00  0.00    +0.270 C 
ATOM     31  C   UNL     1      -1.509   3.121   0.589  0.00  0.00    +0.270 C 
ATOM     32  O   UNL     1      -1.504   1.742   0.204  0.00  0.00    -0.485 OA
ENDBRANCH  22  23
BRANCH  22  33
ATOM     33  C   UNL     1       3.771  -1.340  -1.381  0.00  0.00    +0.008 C 
ATOM     34  C   UNL     1       3.810  -0.122  -2.306  0.00  0.00    +0.009 C 
ATOM     35  C   UNL     1       5.122  -2.058  -1.426  0.00  0.00    +0.009 C 
ENDBRANCH  22  33
ENDBRANCH   3  22
TORSDOF 5
