REMARK  Name = ZINC17194385
REMARK  3 active torsions:
REMARK  status: ('A' for Active; 'I' for Inactive)
REMARK    1  A    between atoms: C_4  and  C_7
REMARK    2  A    between atoms: C_11  and  C_18
REMARK    3  A    between atoms: C_19  and  N_20
REMARK                            x       y       z     vdW  Elec       q    Type
REMARK                         _______ _______ _______ _____ _____    ______ ____
ROOT
ATOM      1  C   UNL     1       4.377   3.051   0.145  0.00  0.00    +0.263 C 
ATOM      2  O   UNL     1       4.333   3.833  -0.783  0.00  0.00    -0.267 OA
ATOM      3  N   UNL     1       3.880   1.806   0.001  0.00  0.00    -0.283 N 
ATOM      4  C   UNL     1       2.549   1.481   0.046  0.00  0.00    +0.103 A 
ATOM      5  C   UNL     1       2.399   0.145  -0.131  0.00  0.00    +0.002 A 
ATOM      6  C   UNL     1       3.751  -0.415  -0.311  0.00  0.00    +0.007 A 
ATOM      7  C   UNL     1       4.638   0.670  -0.219  0.00  0.00    +0.057 A 
ATOM      8  C   UNL     1       6.003   0.449  -0.352  0.00  0.00    +0.027 A 
ATOM      9  C   UNL     1       6.476  -0.828  -0.572  0.00  0.00    +0.002 A 
ATOM     10  C   UNL     1       5.599  -1.899  -0.662  0.00  0.00    +0.001 A 
ATOM     11  C   UNL     1       4.242  -1.700  -0.534  0.00  0.00    +0.010 A 
ENDROOT
BRANCH   1  15
ATOM     12  C   UNL     1       6.093   4.237   3.844  0.00  0.00    +0.000 A 
ATOM     13  C   UNL     1       5.952   5.160   2.823  0.00  0.00    +0.001 A 
ATOM     14  C   UNL     1       5.395   4.781   1.619  0.00  0.00    +0.013 A 
ATOM     15  C   UNL     1       4.974   3.463   1.432  0.00  0.00    +0.040 A 
ATOM     16  C   UNL     1       5.115   2.538   2.468  0.00  0.00    +0.013 A 
ATOM     17  C   UNL     1       5.678   2.929   3.665  0.00  0.00    +0.001 A 
ENDBRANCH   1  15
BRANCH   5  18
ATOM     18  C   UNL     1       1.127  -0.603  -0.147  0.00  0.00    +0.034 C 
ATOM     19  C   UNL     1       0.169  -0.302   0.721  0.00  0.00    +0.179 C 
BRANCH  19  20
ATOM     20  N   UNL     1       0.448   0.629   1.838  0.00  0.00    +0.049 N 
ATOM     21  O   UNL     1       1.582   1.032   2.026  0.00  0.00    -0.127 OA
ATOM     22  O   UNL     1      -0.457   0.997   2.565  0.00  0.00    -0.127 OA
ENDBRANCH  19  20
ENDBRANCH   5  18
TORSDOF 3
