REMARK  Name = ZINC66937742
REMARK  4 active torsions:
REMARK  status: ('A' for Active; 'I' for Inactive)
REMARK    1  A    between atoms: C_3  and  C_11
REMARK    2  A    between atoms: N_16  and  S_17
REMARK    3  A    between atoms: S_17  and  C_20
REMARK    4  A    between atoms: C_23  and  C_26
REMARK                            x       y       z     vdW  Elec       q    Type
REMARK                         _______ _______ _______ _____ _____    ______ ____
ROOT
ATOM      1  C   UNL     1       3.670   2.195  -0.023  0.00  0.00    +0.113 C 
ATOM      2  C   UNL     1       4.147   2.402  -1.476  0.00  0.00    +0.027 C 
ATOM      3  C   UNL     1       4.718   3.845  -1.451  0.00  0.00    +0.019 C 
ATOM      4  C   UNL     1       3.751   4.545  -0.464  0.00  0.00    +0.110 C 
ATOM      5  N   UNL     1       3.456   3.526   0.564  0.00  0.00    -0.169 NA
ENDROOT
BRANCH   1   8
ATOM      6  C   UNL     1      -0.017   1.378   0.010  0.00  0.00    +0.004 A 
ATOM      7  C   UNL     1       1.170   2.088   0.002  0.00  0.00    +0.009 A 
ATOM      8  C   UNL     1       2.378   1.418  -0.014  0.00  0.00    +0.017 A 
ATOM      9  C   UNL     1       2.404   0.031  -0.023  0.00  0.00    +0.167 A 
ATOM     10  C   UNL     1       1.212  -0.683  -0.013  0.00  0.00    +0.162 A 
ATOM     11  C   UNL     1       0.002  -0.004   0.002  0.00  0.00    +0.049 A 
ATOM     12  O   UNL     1       1.214  -2.044  -0.013  0.00  0.00    -0.485 OA
ATOM     13  C   UNL     1       2.434  -2.685  -0.404  0.00  0.00    +0.270 C 
ATOM     14  C   UNL     1       3.594  -1.997   0.328  0.00  0.00    +0.270 C 
ATOM     15  O   UNL     1       3.602  -0.615  -0.043  0.00  0.00    -0.485 OA
ENDBRANCH   1   8
BRANCH   5  16
ATOM     16  S   UNL     1       2.966   3.828   2.116  0.00  0.00    +0.061 S 
ATOM     17  O   UNL     1       2.362   5.114   2.108  0.00  0.00    -0.153 OA
ATOM     18  O   UNL     1       2.277   2.666   2.559  0.00  0.00    -0.153 OA
BRANCH  16  19
ATOM     19  C   UNL     1       4.418   3.960   3.105  0.00  0.00    +0.106 A 
ATOM     20  C   UNL     1       4.949   2.831   3.704  0.00  0.00    +0.029 A 
ATOM     21  C   UNL     1       6.085   2.927   4.480  0.00  0.00    +0.015 A 
ATOM     22  C   UNL     1       6.701   4.167   4.659  0.00  0.00    +0.037 A 
ATOM     23  C   UNL     1       6.161   5.302   4.052  0.00  0.00    +0.015 A 
ATOM     24  C   UNL     1       5.027   5.191   3.275  0.00  0.00    +0.029 A 
BRANCH  22  25
ATOM     25  C   UNL     1       7.919   4.278   5.489  0.00  0.00    +0.242 C 
ATOM     26  O   UNL     1       8.387   3.288   6.017  0.00  0.00    -0.270 OA
ATOM     27  N   UNL     1       8.511   5.476   5.661  0.00  0.00    -0.325 N 
ATOM     28  H   UNL     1       8.138   6.266   5.240  0.00  0.00    +0.145 HD
ATOM     29  H   UNL     1       9.311   5.549   6.206  0.00  0.00    +0.145 HD
ENDBRANCH  22  25
ENDBRANCH  16  19
ENDBRANCH   5  16
TORSDOF 4
