REMARK  Name = ZINC06446593
REMARK  8 active torsions:
REMARK  status: ('A' for Active; 'I' for Inactive)
REMARK    1  A    between atoms: C_4  and  C_7
REMARK    2  A    between atoms: C_7  and  O_8
REMARK    3  A    between atoms: O_8  and  C_9
REMARK    4  A    between atoms: C_18  and  C_30
REMARK    5  A    between atoms: C_20  and  C_26
REMARK    6  A    between atoms: C_20  and  C_28
REMARK    7  A    between atoms: C_21  and  N_25
REMARK    8  A    between atoms: C_22  and  C_23
REMARK                            x       y       z     vdW  Elec       q    Type
REMARK                         _______ _______ _______ _____ _____    ______ ____
ROOT
ATOM      1  C   UNL     1      -0.050   2.227  -2.166  0.00  0.00    +0.403 C 
ATOM      2  O   UNL     1       1.141   2.440  -2.059  0.00  0.00    -0.226 OA
ATOM      3  N   UNL     1      -0.706   1.564  -1.193  0.00  0.00    -0.263 N 
ATOM      4  C   UNL     1      -2.151   1.288  -1.290  0.00  0.00    +0.138 C 
ATOM      5  C   UNL     1      -2.798   1.862  -0.056  0.00  0.00    -0.003 C 
ATOM      6  C   UNL     1      -2.126   1.996   1.071  0.00  0.00    -0.026 C 
ATOM      7  C   UNL     1      -0.704   1.565   1.264  0.00  0.00    +0.048 C 
ATOM      8  C   UNL     1      -0.013   1.086   0.008  0.00  0.00    +0.120 C 
ATOM      9  C   UNL     1       0.059   2.710   1.933  0.00  0.00    +0.071 C 
ATOM     10  C   UNL     1      -0.541   2.964   3.316  0.00  0.00    +0.188 C 
ATOM     11  C   UNL     1      -2.031   3.115   3.253  0.00  0.00    +0.054 C 
ATOM     12  C   UNL     1      -2.786   2.662   2.226  0.00  0.00    +0.074 C 
ENDROOT
BRANCH   9  13
ATOM     13  C   UNL     1       1.512   2.336   2.071  0.00  0.00    -0.003 A 
ATOM     14  C   UNL     1       2.615   3.020   1.510  0.00  0.00    +0.045 A 
ATOM     15  C   UNL     1       3.720   2.349   1.881  0.00  0.00    +0.195 A 
ATOM     16  O   UNL     1       3.347   1.300   2.633  0.00  0.00    -0.471 OA
ATOM     17  C   UNL     1       2.009   1.291   2.756  0.00  0.00    +0.198 A 
ENDBRANCH   9  13
BRANCH  11  18
ATOM     18  N   UNL     1      -2.660   3.743   4.291  0.00  0.00    -0.358 N 
ATOM     19  H   UNL     1      -3.753   3.870   4.275  0.00  0.00    +0.142 HD
ATOM     20  H   UNL     1      -2.075   4.121   5.142  0.00  0.00    +0.142 HD
ENDBRANCH  11  18
BRANCH  12  21
ATOM     21  C   UNL     1      -4.209   2.825   2.250  0.00  0.00    +0.101 C 
ATOM     22  N   UNL     1      -5.337   2.954   2.270  0.00  0.00    -0.191 NA
ENDBRANCH  12  21
BRANCH  10  23
ATOM     23  C   UNL     1      -0.209   1.832   4.198  0.00  0.00    +0.091 C 
ATOM     24  N   UNL     1       0.046   0.959   4.878  0.00  0.00    -0.194 NA
ENDBRANCH  10  23
BRANCH  10  25
ATOM     25  C   UNL     1       0.043   4.194   3.875  0.00  0.00    +0.091 C 
ATOM     26  N   UNL     1       0.493   5.144   4.306  0.00  0.00    -0.194 NA
ENDBRANCH  10  25
BRANCH   1  27
ATOM     27  O   UNL     1      -0.715   2.653  -3.256  0.00  0.00    -0.445 OA
BRANCH  27  28
ATOM     28  C   UNL     1       0.055   3.360  -4.264  0.00  0.00    +0.269 C 
BRANCH  28  32
ATOM     29  C   UNL     1      -2.510   4.485  -7.489  0.00  0.00    +0.000 A 
ATOM     30  C   UNL     1      -2.330   5.340  -6.418  0.00  0.00    +0.000 A 
ATOM     31  C   UNL     1      -1.500   4.976  -5.374  0.00  0.00    +0.007 A 
ATOM     32  C   UNL     1      -0.850   3.757  -5.401  0.00  0.00    -0.010 A 
ATOM     33  C   UNL     1      -1.026   2.903  -6.474  0.00  0.00    +0.007 A 
ATOM     34  C   UNL     1      -1.860   3.265  -7.516  0.00  0.00    +0.000 A 
ENDBRANCH  28  32
ENDBRANCH  27  28
ENDBRANCH   1  27
TORSDOF 8
