REMARK  Name = ZINC23753594
REMARK  7 active torsions:
REMARK  status: ('A' for Active; 'I' for Inactive)
REMARK    1  A    between atoms: C_6  and  S_7
REMARK    2  A    between atoms: S_7  and  N_10
REMARK    3  A    between atoms: N_13  and  C_16
REMARK    4  A    between atoms: C_16  and  C_17
REMARK    5  A    between atoms: N_19  and  C_20
REMARK    6  A    between atoms: C_20  and  C_21
REMARK    7  A    between atoms: C_21  and  C_22
REMARK                            x       y       z     vdW  Elec       q    Type
REMARK                         _______ _______ _______ _____ _____    ______ ____
ROOT
ATOM      1  N   UNL     1       0.533   3.151   1.285  0.00  0.00    -0.180 NA
ATOM      2  C   UNL     1      -0.721   2.402   1.110  0.00  0.00    +0.091 C 
ATOM      3  C   UNL     1      -1.526   3.052  -0.021  0.00  0.00    -0.061 C 
ATOM      4  N   UNL     1      -0.687   3.148  -1.223  0.00  0.00    +0.387 N 
ATOM      5  C   UNL     1       0.472   4.021  -0.995  0.00  0.00    -0.061 C 
ATOM      6  C   UNL     1       1.359   3.411   0.096  0.00  0.00    +0.091 C 
ATOM      7  H   UNL     1      -0.308   2.140  -1.448  0.00  0.00    -0.081 HD
ENDROOT
BRANCH   1   8
ATOM      8  S   UNL     1       0.998   3.691   2.780  0.00  0.00    +0.061 S 
ATOM      9  O   UNL     1       1.870   4.792   2.561  0.00  0.00    -0.153 OA
ATOM     10  O   UNL     1      -0.186   3.801   3.558  0.00  0.00    -0.153 OA
BRANCH   8  16
ATOM     11  C   UNL     1       1.362   1.446   4.288  0.00  0.00    +0.029 A 
ATOM     12  C   UNL     1       2.122   0.444   4.861  0.00  0.00    +0.017 A 
ATOM     13  C   UNL     1       3.492   0.420   4.670  0.00  0.00    +0.018 A 
ATOM     14  C   UNL     1       4.099   1.397   3.901  0.00  0.00    +0.017 A 
ATOM     15  C   UNL     1       3.338   2.395   3.324  0.00  0.00    +0.029 A 
ATOM     16  C   UNL     1       1.969   2.418   3.515  0.00  0.00    +0.106 A 
ATOM     17 BR   UNL     1       4.534  -0.946   5.460  0.00  0.00    -0.050 Br
ENDBRANCH   8  16
ENDBRANCH   1   8
BRANCH   4  18
ATOM     18  C   UNL     1      -1.472   3.606  -2.377  0.00  0.00    +0.019 C 
BRANCH  18  19
ATOM     19  C   UNL     1      -1.954   5.013  -2.131  0.00  0.00    +0.196 C 
ATOM     20  O   UNL     1      -1.761   5.540  -1.056  0.00  0.00    -0.278 OA
ATOM     21  N   UNL     1      -2.599   5.684  -3.105  0.00  0.00    -0.317 N 
ATOM     22  H   UNL     1      -2.773   5.206  -4.080  0.00  0.00    +0.149 HD
BRANCH  21  23
ATOM     23  C   UNL     1      -3.067   7.052  -2.866  0.00  0.00    +0.108 C 
BRANCH  23  24
ATOM     24  C   UNL     1      -3.761   7.580  -4.122  0.00  0.00    +0.049 C 
BRANCH  24  25
ATOM     25  C   UNL     1      -4.243   8.987  -3.876  0.00  0.00    -0.072 C 
ATOM     26  C   UNL     1      -3.479   9.964  -4.247  0.00  0.00    -0.028 C 
ATOM     27  C   UNL     1      -3.818  11.414  -4.061  0.00  0.00    +0.027 C 
ATOM     28  C   UNL     1      -5.314  11.574  -3.782  0.00  0.00    +0.004 C 
ATOM     29  C   UNL     1      -5.709  10.592  -2.672  0.00  0.00    +0.005 C 
ATOM     30  C   UNL     1      -5.581   9.168  -3.221  0.00  0.00    +0.030 C 
ENDBRANCH  24  25
ENDBRANCH  23  24
ENDBRANCH  21  23
ENDBRANCH  18  19
ENDBRANCH   4  18
TORSDOF 7
