REMARK  Name = ZINC12778487
REMARK  9 active torsions:
REMARK  status: ('A' for Active; 'I' for Inactive)
REMARK    1  A    between atoms: C_1  and  N_2
REMARK    2  A    between atoms: N_2  and  S_3
REMARK    3  A    between atoms: S_3  and  C_6
REMARK    4  A    between atoms: C_6  and  C_7
REMARK    5  A    between atoms: C_10  and  C_13
REMARK    6  A    between atoms: C_13  and  N_14
REMARK    7  A    between atoms: N_17  and  C_18
REMARK    8  A    between atoms: N_17  and  C_19
REMARK    9  A    between atoms: C_19  and  C_20
REMARK                            x       y       z     vdW  Elec       q    Type
REMARK                         _______ _______ _______ _____ _____    ______ ____
ROOT
ATOM      1  N   UNL     1       2.145   8.617   0.803  0.00  0.00    -0.295 N 
ATOM      2  C   UNL     1       1.124   8.020   0.157  0.00  0.00    +0.302 C 
ATOM      3  O   UNL     1       1.306   7.518  -0.935  0.00  0.00    -0.253 OA
ATOM      4  N   UNL     1      -0.099   7.980   0.722  0.00  0.00    -0.285 N 
ATOM      5  C   UNL     1      -0.319   8.585   2.038  0.00  0.00    +0.133 C 
ATOM      6  H   UNL     1       2.000   9.018   1.674  0.00  0.00    +0.151 HD
ENDROOT
BRANCH   1   7
ATOM      7  C   UNL     1       3.475   8.661   0.189  0.00  0.00    +0.141 C 
BRANCH   7  11
ATOM      8  C   UNL     1       6.181  10.693   2.795  0.00  0.00    -0.025 A 
ATOM      9  C   UNL     1       6.019   9.324   2.898  0.00  0.00    +0.005 A 
ATOM     10  C   UNL     1       5.143   8.666   2.055  0.00  0.00    +0.005 A 
ATOM     11  C   UNL     1       4.429   9.377   1.109  0.00  0.00    -0.030 A 
ATOM     12  C   UNL     1       4.595  10.746   1.002  0.00  0.00    +0.005 A 
ATOM     13  C   UNL     1       5.468  11.404   1.849  0.00  0.00    +0.005 A 
BRANCH   8  14
ATOM     14  C   UNL     1       7.136  11.410   3.715  0.00  0.00    +0.220 C 
BRANCH  14  15
ATOM     15  S   UNL     1       8.782  11.464   2.955  0.00  0.00    +0.033 S 
ATOM     16  O   UNL     1       9.334  10.156   2.889  0.00  0.00    -0.158 OA
ATOM     17  O   UNL     1       8.764  12.301   1.807  0.00  0.00    -0.158 OA
BRANCH  15  19
ATOM     18  C   UNL     1       9.992  11.676   5.364  0.00  0.00    +0.127 C 
ATOM     19  N   UNL     1       9.730  12.267   4.050  0.00  0.00    -0.197 NA
ATOM     20  H   UNL     1      10.111  13.129   3.820  0.00  0.00    +0.147 HD
ENDBRANCH  15  19
ENDBRANCH  14  15
ENDBRANCH   8  14
ENDBRANCH   7  11
ENDBRANCH   1   7
BRANCH   4  21
ATOM     21  C   UNL     1      -1.209   7.332   0.019  0.00  0.00    +0.157 C 
BRANCH  21  22
ATOM     22  C   UNL     1      -1.263   5.852   0.407  0.00  0.00    +0.228 C 
ATOM     23  C   UNL     1      -2.424   5.167  -0.326  0.00  0.00    +0.275 C 
ATOM     24  O   UNL     1      -2.437   3.785   0.048  0.00  0.00    -0.485 OA
ATOM     25  C   UNL     1      -1.241   3.136   0.030  0.00  0.00    +0.162 A 
ATOM     26  C   UNL     1      -1.219   1.749   0.017  0.00  0.00    +0.049 A 
ATOM     27  C   UNL     1      -0.013   1.076   0.008  0.00  0.00    +0.004 A 
ATOM     28  C   UNL     1       1.176   1.782   0.000  0.00  0.00    +0.004 A 
ATOM     29  C   UNL     1       1.161   3.164   0.007  0.00  0.00    +0.049 A 
ATOM     30  C   UNL     1      -0.046   3.846   0.020  0.00  0.00    +0.163 A 
ATOM     31  O   UNL     1      -0.045   5.207   0.019  0.00  0.00    -0.480 OA
ENDBRANCH  21  22
ENDBRANCH   4  21
TORSDOF 7
