REMARK  Name = ZINC01096802
REMARK  5 active torsions:
REMARK  status: ('A' for Active; 'I' for Inactive)
REMARK    1  A    between atoms: C_1  and  C_2
REMARK    2  A    between atoms: C_3  and  C_14
REMARK    3  A    between atoms: N_5  and  C_7
REMARK    4  A    between atoms: C_27  and  S_30
REMARK    5  A    between atoms: S_30  and  C_31
REMARK                            x       y       z     vdW  Elec       q    Type
REMARK                         _______ _______ _______ _____ _____    ______ ____
ROOT
ATOM      1  C   UNL     1      -0.308   0.337   0.055  0.00  0.00    +0.237 C 
ATOM      2  N   UNL     1      -0.763   1.730   0.106  0.00  0.00    -0.359 N 
ATOM      3  C   UNL     1      -0.033   2.832   0.148  0.00  0.00    +0.046 A 
ATOM      4  C   UNL     1      -0.817   4.006   0.191  0.00  0.00    +0.026 A 
ATOM      5  C   UNL     1      -0.203   5.218   0.236  0.00  0.00    +0.002 A 
ATOM      6  C   UNL     1       1.186   5.338   0.242  0.00  0.00    +0.001 A 
ATOM      7  C   UNL     1       1.999   4.247   0.202  0.00  0.00    +0.012 A 
ATOM      8  C   UNL     1       1.432   2.962   0.154  0.00  0.00    +0.026 A 
ATOM      9  C   UNL     1       2.392   1.943   0.117  0.00  0.00    +0.119 C 
ATOM     10  C   UNL     1       2.182   0.481   0.062  0.00  0.00    +0.244 C 
ATOM     11  N   UNL     1       1.064  -0.179   0.037  0.00  0.00    -0.219 NA
ATOM     12  O   UNL     1       3.266  -0.327   0.033  0.00  0.00    -0.412 OA
ATOM     13  C   UNL     1       4.506   0.207   0.053  0.00  0.00    +0.273 C 
ATOM     14  N   UNL     1       4.717   1.490   0.101  0.00  0.00    -0.137 NA
ATOM     15  N   UNL     1       3.659   2.410   0.135  0.00  0.00    -0.228 N 
ATOM     16  H   UNL     1       3.869   3.489   0.175  0.00  0.00    +0.175 HD
ATOM     17  H   UNL     1      -1.861   1.797   0.108  0.00  0.00    +0.162 HD
ENDROOT
BRANCH   1  20
ATOM     18  C   UNL     1      -2.486  -1.962   0.078  0.00  0.00    +0.068 C 
ATOM     19  C   UNL     1      -1.940  -1.276  -1.147  0.00  0.00    +0.069 A 
ATOM     20  C   UNL     1      -0.978  -0.260  -1.156  0.00  0.00    +0.056 A 
ATOM     21  C   UNL     1      -0.750   0.088  -2.445  0.00  0.00    +0.140 A 
ATOM     22  N   UNL     1      -1.550  -0.683  -3.226  0.00  0.00    -0.221 N 
ATOM     23  N   UNL     1      -2.287  -1.526  -2.384  0.00  0.00    -0.170 NA
ATOM     24 CL   UNL     1       0.362   1.300  -2.999  0.00  0.00    -0.061 Cl
BRANCH  22  25
ATOM     25  C   UNL     1      -1.626  -0.642  -4.625  0.00  0.00    +0.067 A 
ATOM     26  C   UNL     1      -1.488   0.566  -5.295  0.00  0.00    +0.028 A 
ATOM     27  C   UNL     1      -1.557   0.602  -6.673  0.00  0.00    +0.002 A 
ATOM     28  C   UNL     1      -1.775  -0.562  -7.387  0.00  0.00    +0.000 A 
ATOM     29  C   UNL     1      -1.919  -1.767  -6.723  0.00  0.00    +0.002 A 
ATOM     30  C   UNL     1      -1.845  -1.810  -5.344  0.00  0.00    +0.028 A 
ENDBRANCH  22  25
ENDBRANCH   1  20
BRANCH  13  31
ATOM     31  S   UNL     1       5.894  -0.878   0.014  0.00  0.00    -0.069 S 
ATOM     32  C   UNL     1       7.239   0.332   0.060  0.00  0.00    +0.094 C 
ENDBRANCH  13  31
TORSDOF 3
