REMARK  Name = ZINC32124268
REMARK  11 active torsions:
REMARK  status: ('A' for Active; 'I' for Inactive)
REMARK    1  A    between atoms: C_1  and  O_2
REMARK    2  A    between atoms: O_2  and  C_3
REMARK    3  A    between atoms: C_8  and  C_9
REMARK    4  A    between atoms: N_22  and  C_23
REMARK    5  A    between atoms: C_23  and  C_25
REMARK    6  A    between atoms: C_23  and  C_30
REMARK    7  A    between atoms: C_25  and  C_26
REMARK    8  A    between atoms: C_26  and  O_28
REMARK    9  A    between atoms: O_28  and  C_29
REMARK   10  A    between atoms: C_30  and  O_32
REMARK   11  A    between atoms: O_32  and  C_33
REMARK                            x       y       z     vdW  Elec       q    Type
REMARK                         _______ _______ _______ _____ _____    ______ ____
ROOT
ATOM      1  C   UNL     1       0.016  -2.828  -0.013  0.00  0.00    +0.160 C 
ATOM      2  C   UNL     1       0.587  -2.920   1.382  0.00  0.00    +0.062 A 
ATOM      3  C   UNL     1       0.581  -4.050   2.121  0.00  0.00    +0.040 A 
ATOM      4  N   UNL     1       1.171  -3.749   3.311  0.00  0.00    -0.349 N 
ATOM      5  H   UNL     1       1.313  -4.355   4.055  0.00  0.00    +0.166 HD
ATOM      6  C   UNL     1       1.524  -2.443   3.260  0.00  0.00    +0.171 A 
ATOM      7  N   UNL     1       1.169  -1.957   2.099  0.00  0.00    -0.348 N 
ATOM      8  C   UNL     1       0.020  -5.372   1.668  0.00  0.00    +0.074 C 
ATOM      9  C   UNL     1      -0.911  -5.131   0.473  0.00  0.00    +0.116 C 
ATOM     10  N   UNL     1      -0.260  -4.204  -0.467  0.00  0.00    -0.273 N 
ATOM     11  C   UNL     1       0.078  -4.601  -1.709  0.00  0.00    +0.304 C 
ATOM     12  O   UNL     1       0.702  -3.854  -2.438  0.00  0.00    -0.253 OA
ATOM     13  N   UNL     1      -0.276  -5.827  -2.144  0.00  0.00    -0.286 N 
ATOM     14  H   UNL     1      -0.837  -6.394  -1.592  0.00  0.00    +0.151 HD
ATOM     15  H   UNL     1       1.307  -1.043   1.807  0.00  0.00    +0.167 HD
ENDROOT
BRANCH   1  21
ATOM     16  C   UNL     1      -1.799  -1.549  -1.177  0.00  0.00    +0.125 A 
ATOM     17  C   UNL     1      -2.979  -0.818  -1.156  0.00  0.00    +0.046 A 
ATOM     18  C   UNL     1      -3.612  -0.567   0.046  0.00  0.00    +0.004 A 
ATOM     19  C   UNL     1      -3.072  -1.044   1.226  0.00  0.00    +0.001 A 
ATOM     20  C   UNL     1      -1.897  -1.771   1.207  0.00  0.00    +0.009 A 
ATOM     21  C   UNL     1      -1.262  -2.030   0.007  0.00  0.00    +0.021 A 
BRANCH  16  23
ATOM     22  C   UNL     1      -1.785  -1.271  -3.539  0.00  0.00    +0.277 C 
ATOM     23  O   UNL     1      -1.175  -1.797  -2.358  0.00  0.00    -0.495 OA
ENDBRANCH  16  23
ENDBRANCH   1  21
BRANCH  13  24
ATOM     24  C   UNL     1       0.187  -6.303  -3.450  0.00  0.00    +0.194 C 
BRANCH  24  25
ATOM     25  C   UNL     1      -0.748  -5.811  -4.524  0.00  0.00    +0.328 C 
ATOM     26  O   UNL     1      -1.703  -5.132  -4.229  0.00  0.00    -0.249 OA
BRANCH  25  27
ATOM     27  O   UNL     1      -0.520  -6.126  -5.809  0.00  0.00    -0.467 OA
ATOM     28  C   UNL     1      -1.447  -5.626  -6.774  0.00  0.00    +0.280 C 
ENDBRANCH  25  27
ENDBRANCH  24  25
BRANCH  24  29
ATOM     29  C   UNL     1       0.211  -7.833  -3.456  0.00  0.00    +0.154 C 
BRANCH  29  30
ATOM     30  C   UNL     1       1.236  -8.324  -2.467  0.00  0.00    +0.309 C 
ATOM     31  O   UNL     1       1.882  -7.531  -1.823  0.00  0.00    -0.251 OA
BRANCH  30  32
ATOM     32  O   UNL     1       1.432  -9.641  -2.301  0.00  0.00    -0.468 OA
ATOM     33  C   UNL     1       2.420 -10.035  -1.347  0.00  0.00    +0.280 C 
ENDBRANCH  30  32
ENDBRANCH  29  30
ENDBRANCH  24  29
ENDBRANCH  13  24
TORSDOF 8
