REMARK  Name = ZINC08882252
REMARK  3 active torsions:
REMARK  status: ('A' for Active; 'I' for Inactive)
REMARK    1  A    between atoms: C_1  and  C_2
REMARK    2  A    between atoms: C_2  and  C_4
REMARK    3  A    between atoms: C_2  and  N_11
REMARK                            x       y       z     vdW  Elec       q    Type
REMARK                         _______ _______ _______ _____ _____    ______ ____
ROOT
ATOM      1  N   UNL     1      -0.011  -2.695   0.571  0.00  0.00    -0.217 N 
ATOM      2  C   UNL     1      -0.068  -3.404   1.717  0.00  0.00    +0.247 C 
ATOM      3  O   UNL     1       0.860  -3.730   2.426  0.00  0.00    -0.273 OA
ATOM      4  C   UNL     1      -1.533  -3.704   1.932  0.00  0.00    +0.113 C 
ATOM      5  C   UNL     1      -1.795  -5.181   2.004  0.00  0.00    +0.035 C 
ATOM      6  C   UNL     1      -3.137  -5.567   1.347  0.00  0.00    +0.003 C 
ATOM      7  C   UNL     1      -4.269  -4.574   1.679  0.00  0.00    +0.000 C 
ATOM      8  C   UNL     1      -4.253  -4.140   3.119  0.00  0.00    +0.000 C 
ATOM      9  C   UNL     1      -3.462  -2.820   3.224  0.00  0.00    +0.003 C 
ATOM     10  C   UNL     1      -2.021  -3.035   3.232  0.00  0.00    +0.035 C 
ATOM     11  N   UNL     1      -2.199  -3.086   0.779  0.00  0.00    -0.285 N 
ATOM     12  C   UNL     1      -1.227  -2.518   0.039  0.00  0.00    +0.310 C 
ATOM     13  O   UNL     1      -1.431  -1.912  -0.995  0.00  0.00    -0.252 OA
ATOM     14  H   UNL     1      -3.150  -3.086   0.588  0.00  0.00    +0.151 HD
ENDROOT
BRANCH   1  16
ATOM     15  C   UNL     1       1.473  -2.877  -1.365  0.00  0.00    +0.034 C 
ATOM     16  C   UNL     1       1.228  -2.186  -0.022  0.00  0.00    +0.114 C 
BRANCH  16  17
ATOM     17  C   UNL     1       1.110  -0.699  -0.236  0.00  0.00    -0.008 A 
ATOM     18  C   UNL     1       0.894  -0.199  -1.506  0.00  0.00    +0.007 A 
ATOM     19  C   UNL     1       0.786   1.165  -1.703  0.00  0.00    +0.000 A 
ATOM     20  C   UNL     1       0.893   2.030  -0.629  0.00  0.00    +0.001 A 
ATOM     21  C   UNL     1       1.109   1.531   0.641  0.00  0.00    +0.020 A 
ATOM     22  C   UNL     1       1.217   0.165   0.839  0.00  0.00    +0.046 A 
ATOM     23 CL   UNL     1       1.488  -0.462   2.434  0.00  0.00    -0.083 Cl
ENDBRANCH  16  17
ENDBRANCH   1  16
TORSDOF 2
