REMARK  Name = ZINC43213184
REMARK  9 active torsions:
REMARK  status: ('A' for Active; 'I' for Inactive)
REMARK    1  A    between atoms: C_1  and  C_2
REMARK    2  A    between atoms: C_2  and  C_31
REMARK    3  A    between atoms: C_7  and  C_12
REMARK    4  A    between atoms: C_12  and  N_13
REMARK    5  A    between atoms: C_14  and  C_16
REMARK    6  A    between atoms: C_19  and  C_21
REMARK    7  A    between atoms: C_21  and  C_23
REMARK    8  A    between atoms: C_21  and  N_30
REMARK    9  A    between atoms: C_23  and  C_24
REMARK                            x       y       z     vdW  Elec       q    Type
REMARK                         _______ _______ _______ _____ _____    ______ ____
ROOT
ATOM      1  C   UNL     1       5.604   1.408   4.626  0.00  0.00    +0.163 A 
ATOM      2  C   UNL     1       6.408   1.312   5.720  0.00  0.00    +0.230 A 
ATOM      3  O   UNL     1       7.277   2.333   5.658  0.00  0.00    -0.449 OA
ATOM      4  C   UNL     1       7.013   3.042   4.551  0.00  0.00    +0.182 A 
ATOM      5  N   UNL     1       6.017   2.496   3.920  0.00  0.00    -0.210 NA
ENDROOT
BRANCH   1   7
ATOM      6  N   UNL     1       3.787   0.716   3.144  0.00  0.00    -0.310 N 
ATOM      7  C   UNL     1       4.498   0.501   4.268  0.00  0.00    +0.266 C 
ATOM      8  O   UNL     1       4.228  -0.441   4.988  0.00  0.00    -0.268 OA
ATOM      9  H   UNL     1       4.002   1.467   2.570  0.00  0.00    +0.149 HD
BRANCH   6  10
ATOM     10  C   UNL     1       2.688  -0.186   2.789  0.00  0.00    +0.108 C 
BRANCH  10  16
ATOM     11  C   UNL     1      -0.019   1.526   0.010  0.00  0.00    +0.011 C 
ATOM     12  C   UNL     1       0.002  -0.004   0.002  0.00  0.00    -0.029 C 
ATOM     13  C   UNL     1       1.063  -0.607  -0.938  0.00  0.00    -0.005 C 
ATOM     14  C   UNL     1       2.319   0.281  -1.002  0.00  0.00    +0.004 C 
ATOM     15  C   UNL     1       3.066   0.147   0.333  0.00  0.00    +0.005 C 
ATOM     16  C   UNL     1       2.051   0.278   1.478  0.00  0.00    +0.010 C 
ATOM     17  C   UNL     1       0.830  -0.622   1.145  0.00  0.00    -0.000 C 
ATOM     18  C   UNL     1       1.211  -1.715   0.125  0.00  0.00    +0.008 C 
ATOM     19  C   UNL     1      -1.389  -0.620  -0.156  0.00  0.00    +0.011 C 
ENDBRANCH  10  16
ENDBRANCH   6  10
ENDBRANCH   1   7
BRANCH   4  20
ATOM     20  C   UNL     1       7.758   4.274   4.106  0.00  0.00    +0.017 C 
BRANCH  20  21
ATOM     21  N   UNL     1       7.957   5.168   5.254  0.00  0.00    +0.386 N 
ATOM     22  H   UNL     1       8.492   4.690   5.964  0.00  0.00    -0.089 HD
ATOM     23  H   UNL     1       8.456   5.993   4.956  0.00  0.00    -0.089 HD
ATOM     24  H   UNL     1       7.060   5.435   5.632  0.00  0.00    -0.089 HD
ENDBRANCH  20  21
BRANCH  20  25
ATOM     25  C   UNL     1       9.118   3.869   3.533  0.00  0.00    +0.028 C 
BRANCH  25  26
ATOM     26  C   UNL     1       9.811   5.085   2.976  0.00  0.00    -0.048 A 
ATOM     27  C   UNL     1       9.617   5.448   1.657  0.00  0.00    +0.003 A 
ATOM     28  C   UNL     1      10.253   6.564   1.146  0.00  0.00    +0.000 A 
ATOM     29  C   UNL     1      11.083   7.317   1.955  0.00  0.00    +0.000 A 
ATOM     30  C   UNL     1      11.277   6.955   3.275  0.00  0.00    +0.000 A 
ATOM     31  C   UNL     1      10.637   5.842   3.787  0.00  0.00    +0.003 A 
ENDBRANCH  25  26
ENDBRANCH  20  25
ENDBRANCH   4  20
TORSDOF 7
