REMARK  Name = ZINC39710334
REMARK  13 active torsions:
REMARK  status: ('A' for Active; 'I' for Inactive)
REMARK    1  A    between atoms: C_1  and  C_2
REMARK    2  A    between atoms: C_9  and  C_14
REMARK    3  A    between atoms: C_14  and  C_16
REMARK    4  A    between atoms: C_14  and  N_25
REMARK    5  A    between atoms: N_20  and  C_21
REMARK    6  A    between atoms: C_21  and  C_22
REMARK    7  A    between atoms: C_22  and  O_23
REMARK    8  A    between atoms: O_23  and  C_24
REMARK    9  A    between atoms: N_25  and  C_26
REMARK   10  A    between atoms: N_25  and  C_34
REMARK   11  A    between atoms: C_26  and  C_27
REMARK   12  A    between atoms: C_27  and  C_28
REMARK   13  A    between atoms: C_34  and  C_35
REMARK                            x       y       z     vdW  Elec       q    Type
REMARK                         _______ _______ _______ _____ _____    ______ ____
ROOT
ATOM      1  C   UNL     1      -1.510  -4.746   2.830  0.00  0.00    +0.142 C 
ENDROOT
BRANCH   1  10
ATOM      2  C   UNL     1       1.837   0.163  -1.133  0.00  0.00    +0.044 C 
ATOM      3  C   UNL     1       1.372  -1.240  -0.838  0.00  0.00    -0.050 A 
ATOM      4  C   UNL     1       1.246  -2.153  -1.885  0.00  0.00    +0.005 A 
ATOM      5  C   UNL     1       0.834  -3.434  -1.695  0.00  0.00    +0.024 A 
ATOM      6  C   UNL     1       0.511  -3.897  -0.406  0.00  0.00    +0.040 A 
ATOM      7  N   UNL     1       0.108  -5.155  -0.232  0.00  0.00    -0.284 N 
ATOM      8  C   UNL     1      -0.212  -5.654   0.950  0.00  0.00    +0.226 C 
ATOM      9  O   UNL     1      -0.573  -6.812   1.047  0.00  0.00    -0.275 OA
ATOM     10  C   UNL     1      -0.125  -4.780   2.181  0.00  0.00    +0.123 C 
ATOM     11  C   UNL     1       0.333  -3.348   1.988  0.00  0.00    -0.003 C 
ATOM     12  C   UNL     1       0.634  -2.954   0.719  0.00  0.00    -0.007 A 
ATOM     13  C   UNL     1       1.089  -1.590   0.444  0.00  0.00    +0.012 A 
ATOM     14  H   UNL     1       0.045  -5.732  -1.010  0.00  0.00    +0.155 HD
ENDBRANCH   1  10
BRANCH   1  15
ATOM     15  C   UNL     1      -2.517  -4.225   1.838  0.00  0.00    +0.170 A 
ATOM     16  N   UNL     1      -2.895  -4.809   0.727  0.00  0.00    -0.112 NA
ATOM     17  N   UNL     1      -3.768  -4.052   0.157  0.00  0.00    -0.023 NA
ATOM     18  N   UNL     1      -3.957  -3.001   0.875  0.00  0.00    -0.044 NA
ATOM     19  N   UNL     1      -3.208  -3.073   1.923  0.00  0.00    -0.225 N 
BRANCH  19  20
ATOM     20  C   UNL     1      -3.122  -2.084   3.001  0.00  0.00    +0.175 C 
BRANCH  20  21
ATOM     21  C   UNL     1      -2.157  -0.969   2.594  0.00  0.00    +0.183 C 
BRANCH  21  22
ATOM     22  O   UNL     1      -1.991  -0.061   3.685  0.00  0.00    -0.381 OA
ATOM     23  C   UNL     1      -1.104   1.025   3.408  0.00  0.00    +0.194 C 
ENDBRANCH  21  22
ENDBRANCH  20  21
ENDBRANCH  19  20
ENDBRANCH   1  15
BRANCH   1  24
ATOM     24  N   UNL     1      -1.889  -6.103   3.247  0.00  0.00    -0.287 NA
BRANCH  24  25
ATOM     25  C   UNL     1      -0.994  -6.599   4.301  0.00  0.00    +0.090 C 
BRANCH  25  26
ATOM     26  C   UNL     1      -1.152  -5.734   5.553  0.00  0.00    +0.050 C 
BRANCH  26  27
ATOM     27  C   UNL     1      -0.148  -6.166   6.591  0.00  0.00    -0.046 A 
ATOM     28  C   UNL     1      -0.478  -7.150   7.504  0.00  0.00    +0.003 A 
ATOM     29  C   UNL     1       0.443  -7.546   8.456  0.00  0.00    +0.000 A 
ATOM     30  C   UNL     1       1.693  -6.959   8.495  0.00  0.00    +0.000 A 
ATOM     31  C   UNL     1       2.023  -5.975   7.581  0.00  0.00    +0.000 A 
ATOM     32  C   UNL     1       1.104  -5.582   6.627  0.00  0.00    +0.003 A 
ENDBRANCH  26  27
ENDBRANCH  25  26
ENDBRANCH  24  25
BRANCH  24  33
ATOM     33  C   UNL     1      -3.292  -6.146   3.683  0.00  0.00    +0.127 C 
BRANCH  33  34
ATOM     34  C   UNL     1      -3.691  -7.575   3.946  0.00  0.00    +0.004 A 
ATOM     35  C   UNL     1      -3.711  -8.254   5.120  0.00  0.00    +0.012 A 
ATOM     36  C   UNL     1      -4.120  -9.575   5.123  0.00  0.00    +0.008 A 
ATOM     37  C   UNL     1      -4.489 -10.152   3.954  0.00  0.00    +0.045 A 
ATOM     38  S   UNL     1      -4.269  -8.811   2.795  0.00  0.00    -0.100 S 
ENDBRANCH  33  34
ENDBRANCH  24  33
ENDBRANCH   1  24
TORSDOF 11
