REMARK  Name = ZINC26975518
REMARK  7 active torsions:
REMARK  status: ('A' for Active; 'I' for Inactive)
REMARK    1  A    between atoms: C_1  and  C_2
REMARK    2  A    between atoms: C_2  and  C_3
REMARK    3  A    between atoms: C_3  and  N_4
REMARK    4  A    between atoms: N_4  and  C_5
REMARK    5  A    between atoms: C_6  and  C_8
REMARK    6  A    between atoms: C_10  and  N_23
REMARK    7  A    between atoms: C_15  and  C_17
REMARK                            x       y       z     vdW  Elec       q    Type
REMARK                         _______ _______ _______ _____ _____    ______ ____
ROOT
ATOM      1  C   UNL     1       6.380  -0.756  -0.407  0.00  0.00    +0.044 A 
ATOM      2  C   UNL     1       6.687   0.617  -0.522  0.00  0.00    +0.056 A 
ATOM      3  C   UNL     1       5.687   1.525  -0.681  0.00  0.00    +0.121 A 
ATOM      4  N   UNL     1       4.384   1.127  -0.731  0.00  0.00    -0.199 N 
ATOM      5  C   UNL     1       4.049  -0.196  -0.623  0.00  0.00    +0.159 A 
ATOM      6  C   UNL     1       5.055  -1.161  -0.458  0.00  0.00    +0.061 A 
ATOM      7  N   UNL     1       2.725  -0.283  -0.700  0.00  0.00    -0.204 NA
ATOM      8  C   UNL     1       2.205   0.934  -0.861  0.00  0.00    +0.218 A 
ATOM      9  N   UNL     1       3.179   1.828  -0.883  0.00  0.00    -0.140 NA
ENDROOT
BRANCH   8  10
ATOM     10  C   UNL     1       0.764   1.237  -0.989  0.00  0.00    +0.175 A 
ATOM     11  C   UNL     1      -0.247   0.328  -0.969  0.00  0.00    +0.054 A 
ATOM     12  C   UNL     1      -1.446   1.050  -1.127  0.00  0.00    +0.057 A 
ATOM     13  C   UNL     1      -1.112   2.353  -1.227  0.00  0.00    +0.171 A 
ATOM     14  O   UNL     1       0.224   2.461  -1.147  0.00  0.00    -0.445 OA
ATOM     15 BR   UNL     1      -2.322   3.789  -1.450  0.00  0.00    -0.008 Br
ENDBRANCH   8  10
BRANCH   1  18
ATOM     16  N   UNL     1       7.284  -2.800   0.595  0.00  0.00    -0.301 N 
ATOM     17  C   UNL     1       5.987  -3.012   1.241  0.00  0.00    +0.132 C 
ATOM     18  C   UNL     1       7.460  -1.751  -0.234  0.00  0.00    +0.247 C 
ATOM     19  O   UNL     1       8.507  -1.623  -0.838  0.00  0.00    -0.270 OA
BRANCH  16  20
ATOM     20  C   UNL     1       8.389  -3.727   0.848  0.00  0.00    +0.107 C 
BRANCH  20  22
ATOM     21  C   UNL     1      10.352  -4.208   2.317  0.00  0.00    +0.005 C 
ATOM     22  C   UNL     1       9.198  -3.239   2.053  0.00  0.00    +0.016 C 
ENDBRANCH  20  22
ENDBRANCH  16  20
ENDBRANCH   1  18
BRANCH   3  23
ATOM     23  N   UNL     1       5.996   2.870  -0.793  0.00  0.00    -0.343 N 
ATOM     24  H   UNL     1       5.193   3.610  -0.922  0.00  0.00    +0.144 HD
ATOM     25  H   UNL     1       7.045   3.199  -0.754  0.00  0.00    +0.144 HD
ENDBRANCH   3  23
TORSDOF 5
