REMARK  Name = ZINC09316229
REMARK  6 active torsions:
REMARK  status: ('A' for Active; 'I' for Inactive)
REMARK    1  A    between atoms: C_1  and  C_2
REMARK    2  A    between atoms: C_11  and  N_21
REMARK    3  A    between atoms: C_13  and  C_15
REMARK    4  A    between atoms: C_15  and  N_63
REMARK    5  A    between atoms: N_21  and  C_22
REMARK    6  A    between atoms: C_22  and  C_23
REMARK                            x       y       z     vdW  Elec       q    Type
REMARK                         _______ _______ _______ _____ _____    ______ ____
ROOT
ATOM      1  C   UNL     1      -4.261   5.184  -8.031  0.00  0.00    +0.008 C 
ATOM      2  C   UNL     1      -3.940   4.577  -6.664  0.00  0.00    -0.009 C 
ATOM      3  C   UNL     1      -3.858   3.052  -6.785  0.00  0.00    +0.008 C 
ATOM      4  C   UNL     1      -3.785   2.424  -5.393  0.00  0.00    +0.037 C 
ATOM      5  C   UNL     1      -2.651   3.084  -4.614  0.00  0.00    -0.025 A 
ATOM      6  C   UNL     1      -2.152   4.276  -5.000  0.00  0.00    -0.004 A 
ATOM      7  S   UNL     1      -0.877   4.647  -3.825  0.00  0.00    -0.073 S 
ATOM      8  C   UNL     1      -1.017   3.197  -2.813  0.00  0.00    +0.114 A 
ATOM      9  C   UNL     1      -2.055   2.468  -3.427  0.00  0.00    +0.051 A 
ATOM     10  C   UNL     1      -2.383   1.231  -2.806  0.00  0.00    +0.131 A 
ATOM     11  N   UNL     1      -1.712   0.853  -1.730  0.00  0.00    -0.219 NA
ATOM     12  C   UNL     1      -0.751   1.592  -1.204  0.00  0.00    +0.116 A 
ATOM     13  N   UNL     1      -0.403   2.748  -1.736  0.00  0.00    -0.227 NA
ATOM     14  C   UNL     1      -2.585   5.104  -6.171  0.00  0.00    +0.046 C 
ENDROOT
BRANCH  10  15
ATOM     15  N   UNL     1      -3.386   0.431  -3.324  0.00  0.00    -0.324 N 
ATOM     16  H   UNL     1      -3.927   0.749  -4.064  0.00  0.00    +0.148 HD
BRANCH  15  17
ATOM     17  C   UNL     1      -3.632  -0.895  -2.754  0.00  0.00    +0.139 C 
BRANCH  17  18
ATOM     18  C   UNL     1      -4.768  -1.556  -3.491  0.00  0.00    -0.012 A 
ATOM     19  C   UNL     1      -4.518  -2.341  -4.608  0.00  0.00    +0.010 A 
ATOM     20  C   UNL     1      -5.590  -2.929  -5.256  0.00  0.00    +0.048 A 
ATOM     21  C   UNL     1      -6.874  -2.716  -4.769  0.00  0.00    +0.154 A 
ATOM     22  N   UNL     1      -7.072  -1.961  -3.701  0.00  0.00    -0.236 NA
ATOM     23  C   UNL     1      -6.070  -1.392  -3.059  0.00  0.00    +0.118 A 
ATOM     24  N   UNL     1      -7.966  -3.304  -5.414  0.00  0.00    -0.222 N 
ATOM     25  C   UNL     1      -9.269  -3.188  -5.048  0.00  0.00    +0.116 A 
ATOM     26  C   UNL     1     -10.006  -3.903  -5.929  0.00  0.00    +0.041 A 
ATOM     27  C   UNL     1      -9.131  -4.481  -6.856  0.00  0.00    +0.135 A 
ATOM     28  N   UNL     1      -7.911  -4.123  -6.549  0.00  0.00    -0.173 NA
ENDBRANCH  17  18
ENDBRANCH  15  17
ENDBRANCH  10  15
BRANCH  12  29
ATOM     29  C   UNL     1      -0.033   1.100   0.026  0.00  0.00    -0.001 C 
BRANCH  29  35
ATOM     30  C   UNL     1      -0.629   3.050   1.333  0.00  0.00    -0.050 C 
ATOM     31  C   UNL     1      -1.414   3.520   2.560  0.00  0.00    +0.141 C 
ATOM     32  O   UNL     1      -0.911   2.857   3.724  0.00  0.00    -0.383 OA
ATOM     33  C   UNL     1      -0.992   1.431   3.653  0.00  0.00    +0.141 C 
ATOM     34  C   UNL     1      -0.203   0.940   2.437  0.00  0.00    -0.050 C 
ATOM     35  N   UNL     1      -0.754   1.582   1.224  0.00  0.00    +0.387 N 
ATOM     36  H   UNL     1      -1.747   1.336   1.138  0.00  0.00    -0.081 HD
ENDBRANCH  29  35
ENDBRANCH  12  29
TORSDOF 5
