REMARK  Name = ZINC66390482
REMARK  7 active torsions:
REMARK  status: ('A' for Active; 'I' for Inactive)
REMARK    1  A    between atoms: C_1  and  C_2
REMARK    2  A    between atoms: C_3  and  O_29
REMARK    3  A    between atoms: C_12  and  C_13
REMARK    4  A    between atoms: C_13  and  N_14
REMARK    5  A    between atoms: N_14  and  C_15
REMARK    6  A    between atoms: C_15  and  C_16
REMARK    7  A    between atoms: C_16  and  C_22
REMARK                            x       y       z     vdW  Elec       q    Type
REMARK                         _______ _______ _______ _____ _____    ______ ____
ROOT
ATOM      1  N   UNL     1      -1.303  -4.861   2.359  0.00  0.00    -0.311 NA
ATOM      2  H   UNL     1      -1.887  -4.481   3.089  0.00  0.00    +0.122 HD
ENDROOT
BRANCH   1   3
ATOM      3  C   UNL     1       0.071  -4.351   2.466  0.00  0.00    +0.117 C 
BRANCH   3  15
ATOM      4  C   UNL     1      -0.018   1.503   0.010  0.00  0.00    +0.051 C 
ATOM      5  C   UNL     1       0.002  -0.004   0.002  0.00  0.00    +0.034 A 
ATOM      6  C   UNL     1       0.006  -0.693  -1.200  0.00  0.00    +0.123 A 
ATOM      7  C   UNL     1       0.024  -2.086  -1.219  0.00  0.00    +0.046 A 
ATOM      8  C   UNL     1       0.039  -2.792  -0.051  0.00  0.00    +0.015 A 
ATOM      9  C   UNL     1       0.036  -2.113   1.173  0.00  0.00    +0.022 A 
ATOM     10  C   UNL     1       0.023  -0.706   1.198  0.00  0.00    +0.146 A 
ATOM     11  O   UNL     1       0.025  -0.054   2.380  0.00  0.00    -0.422 OA
ATOM     12  C   UNL     1       0.045  -0.719   3.546  0.00  0.00    +0.338 A 
ATOM     13  O   UNL     1       0.046  -0.089   4.588  0.00  0.00    -0.245 OA
ATOM     14  C   UNL     1       0.065  -2.128   3.595  0.00  0.00    +0.097 A 
ATOM     15  C   UNL     1       0.051  -2.845   2.441  0.00  0.00    -0.016 A 
BRANCH   6  16
ATOM     16  O   UNL     1      -0.009  -0.004  -2.370  0.00  0.00    -0.506 OA
ATOM     17  H   UNL     1       0.870   0.207  -2.713  0.00  0.00    +0.292 HD
ENDBRANCH   6  16
ENDBRANCH   3  15
ENDBRANCH   1   3
BRANCH   1  18
ATOM     18  C   UNL     1      -1.323  -6.330   2.380  0.00  0.00    +0.093 C 
BRANCH  18  19
ATOM     19  C   UNL     1      -2.767  -6.822   2.267  0.00  0.00    +0.012 C 
ATOM     20  C   UNL     1      -3.582  -6.293   3.452  0.00  0.00    +0.041 C 
ATOM     21  C   UNL     1      -3.009  -6.865   4.751  0.00  0.00    +0.160 C 
ATOM     22  O   UNL     1      -3.031  -8.293   4.692  0.00  0.00    -0.380 OA
ATOM     23  C   UNL     1      -2.247  -8.845   3.632  0.00  0.00    +0.160 C 
ATOM     24  C   UNL     1      -2.790  -8.353   2.288  0.00  0.00    +0.041 C 
BRANCH  19  25
ATOM     25  C   UNL     1      -3.369  -6.326   0.978  0.00  0.00    -0.040 A 
ATOM     26  C   UNL     1      -3.836  -7.230   0.041  0.00  0.00    +0.007 A 
ATOM     27  C   UNL     1      -4.389  -6.777  -1.141  0.00  0.00    +0.038 A 
ATOM     28  C   UNL     1      -4.476  -5.417  -1.389  0.00  0.00    +0.123 A 
ATOM     29  C   UNL     1      -4.008  -4.513  -0.450  0.00  0.00    +0.038 A 
ATOM     30  C   UNL     1      -3.460  -4.968   0.734  0.00  0.00    +0.007 A 
ATOM     31  F   UNL     1      -5.015  -4.973  -2.545  0.00  0.00    -0.205 F 
ENDBRANCH  19  25
ENDBRANCH  18  19
ENDBRANCH   1  18
TORSDOF 6
