REMARK  Name = ZINC39596548
REMARK  9 active torsions:
REMARK  status: ('A' for Active; 'I' for Inactive)
REMARK    1  A    between atoms: C_1  and  C_2
REMARK    2  A    between atoms: C_5  and  C_8
REMARK    3  A    between atoms: C_8  and  C_9
REMARK    4  A    between atoms: C_13  and  C_22
REMARK    5  A    between atoms: N_24  and  C_25
REMARK    6  A    between atoms: C_25  and  C_26
REMARK    7  A    between atoms: C_26  and  C_28
REMARK    8  A    between atoms: C_26  and  O_29
REMARK    9  A    between atoms: O_29  and  C_30
REMARK                            x       y       z     vdW  Elec       q    Type
REMARK                         _______ _______ _______ _____ _____    ______ ____
ROOT
ATOM      1  C   UNL     1       3.638  -5.471   1.064  0.00  0.00    +0.220 C 
ATOM      2  O   UNL     1       4.740  -4.969   1.139  0.00  0.00    -0.275 OA
ATOM      3  N   UNL     1       3.514  -6.796   0.854  0.00  0.00    -0.300 N 
ATOM      4  C   UNL     1       2.264  -7.582   0.727  0.00  0.00    +0.121 C 
ATOM      5  C   UNL     1       2.559  -8.606  -0.392  0.00  0.00    +0.100 C 
ATOM      6  C   UNL     1       4.091  -8.743  -0.405  0.00  0.00    -0.004 C 
ATOM      7  C   UNL     1       4.597  -7.796   0.692  0.00  0.00    +0.115 C 
ATOM      8  C   UNL     1       4.648  -8.318  -1.760  0.00  0.00    -0.010 C 
ATOM      9  C   UNL     1       6.167  -8.517  -1.767  0.00  0.00    -0.082 C 
ATOM     10  N   UNL     1       6.477  -9.929  -1.509  0.00  0.00    +0.379 N 
ATOM     11  C   UNL     1       6.019 -10.305  -0.166  0.00  0.00    -0.082 C 
ATOM     12  C   UNL     1       4.495 -10.181  -0.091  0.00  0.00    -0.010 C 
ATOM     13  H   UNL     1       6.013 -10.505  -2.195  0.00  0.00    -0.086 HD
ATOM     14  H   UNL     1       7.474 -10.069  -1.575  0.00  0.00    -0.086 HD
ENDROOT
BRANCH   5  15
ATOM     15  C   UNL     1       1.913  -9.930  -0.076  0.00  0.00    +0.218 C 
ATOM     16  O   UNL     1       1.775 -10.277   1.078  0.00  0.00    -0.275 OA
ATOM     17  N   UNL     1       1.490 -10.729  -1.075  0.00  0.00    -0.312 N 
ATOM     18  H   UNL     1       1.601 -10.452  -1.998  0.00  0.00    +0.149 HD
BRANCH  17  19
ATOM     19  C   UNL     1       0.862 -12.017  -0.768  0.00  0.00    +0.148 C 
BRANCH  19  20
ATOM     20  C   UNL     1       0.477 -12.720  -2.070  0.00  0.00    +0.187 C 
ATOM     21  C   UNL     1      -0.289 -14.005  -1.749  0.00  0.00    +0.053 C 
BRANCH  20  22
ATOM     22  O   UNL     1       1.659 -13.042  -2.805  0.00  0.00    -0.488 OA
BRANCH  22  23
ATOM     23  C   UNL     1       1.532 -13.174  -4.152  0.00  0.00    +0.121 A 
ATOM     24  C   UNL     1       0.279 -13.102  -4.742  0.00  0.00    +0.048 A 
ATOM     25  C   UNL     1       0.150 -13.236  -6.111  0.00  0.00    +0.042 A 
ATOM     26  C   UNL     1       1.273 -13.443  -6.894  0.00  0.00    +0.124 A 
ATOM     27  C   UNL     1       2.525 -13.515  -6.308  0.00  0.00    +0.042 A 
ATOM     28  C   UNL     1       2.656 -13.375  -4.940  0.00  0.00    +0.048 A 
ATOM     29  F   UNL     1       1.146 -13.574  -8.233  0.00  0.00    -0.205 F 
ENDBRANCH  22  23
ENDBRANCH  20  22
ENDBRANCH  19  20
ENDBRANCH  17  19
ENDBRANCH   5  15
BRANCH   1  30
ATOM     30  C   UNL     1       2.408  -4.611   1.204  0.00  0.00    +0.131 C 
BRANCH  30  35
ATOM     31  C   UNL     1       3.980   0.882   2.068  0.00  0.00    +0.044 C 
ATOM     32  C   UNL     1       3.570  -0.551   1.843  0.00  0.00    -0.050 A 
ATOM     33  C   UNL     1       3.379  -1.021   0.557  0.00  0.00    +0.003 A 
ATOM     34  C   UNL     1       3.003  -2.335   0.350  0.00  0.00    +0.004 A 
ATOM     35  C   UNL     1       2.819  -3.179   1.429  0.00  0.00    -0.039 A 
ATOM     36  C   UNL     1       3.011  -2.709   2.715  0.00  0.00    +0.004 A 
ATOM     37  C   UNL     1       3.391  -1.396   2.922  0.00  0.00    +0.003 A 
ENDBRANCH  30  35
ENDBRANCH   1  30
TORSDOF 7
