REMARK  Name = ZINC39753026
REMARK  8 active torsions:
REMARK  status: ('A' for Active; 'I' for Inactive)
REMARK    1  A    between atoms: C_1  and  C_2
REMARK    2  A    between atoms: C_5  and  C_14
REMARK    3  A    between atoms: C_6  and  C_7
REMARK    4  A    between atoms: C_6  and  C_8
REMARK    5  A    between atoms: N_16  and  N_17
REMARK    6  A    between atoms: C_18  and  C_20
REMARK    7  A    between atoms: C_20  and  C_21
REMARK    8  A    between atoms: C_24  and  N_27
REMARK                            x       y       z     vdW  Elec       q    Type
REMARK                         _______ _______ _______ _____ _____    ______ ____
ROOT
ATOM      1  C   UNL     1       1.007  -3.261   1.615  0.00  0.00    +0.237 C 
ATOM      2  O   UNL     1       1.582  -2.983   2.646  0.00  0.00    -0.274 OA
ATOM      3  N   UNL     1       0.845  -4.552   1.262  0.00  0.00    -0.234 N 
ATOM      4  H   UNL     1       0.385  -4.775   0.438  0.00  0.00    +0.173 HD
ENDROOT
BRANCH   1   9
ATOM      5  C   UNL     1      -0.019   1.526   0.010  0.00  0.00    +0.020 C 
ATOM      6  C   UNL     1       0.002  -0.004   0.002  0.00  0.00    +0.033 C 
ATOM      7  C   UNL     1       0.746  -0.667  -1.197  0.00  0.00    +0.016 C 
ATOM      8  C   UNL     1       1.065  -2.101  -0.713  0.00  0.00    +0.019 C 
ATOM      9  C   UNL     1       0.474  -2.165   0.729  0.00  0.00    +0.073 C 
ATOM     10  C   UNL     1       0.727  -0.692   1.212  0.00  0.00    -0.007 C 
ATOM     11  C   UNL     1       0.034  -0.396   2.543  0.00  0.00    +0.013 C 
ATOM     12  C   UNL     1       2.218  -0.351   1.258  0.00  0.00    +0.013 C 
ATOM     13  C   UNL     1      -1.070  -2.124   0.515  0.00  0.00    +0.139 C 
ATOM     14  C   UNL     1      -1.369  -0.692   0.058  0.00  0.00    +0.154 C 
ATOM     15  O   UNL     1      -2.442  -0.211  -0.217  0.00  0.00    -0.296 OA
ATOM     16 BR   UNL     1      -1.605  -3.426  -0.857  0.00  0.00    -0.079 Br
ENDBRANCH   1   9
BRANCH   3  17
ATOM     17  N   UNL     1       1.340  -5.571   2.086  0.00  0.00    -0.234 N 
ATOM     18  C   UNL     1       1.178  -6.862   1.732  0.00  0.00    +0.233 C 
ATOM     19  O   UNL     1       0.603  -7.141   0.702  0.00  0.00    -0.274 OA
ATOM     20  H   UNL     1       1.800  -5.348   2.910  0.00  0.00    +0.173 HD
BRANCH  18  21
ATOM     21  C   UNL     1       1.710  -7.958   2.618  0.00  0.00    +0.132 C 
BRANCH  21  22
ATOM     22  C   UNL     1       1.401  -9.298   2.002  0.00  0.00    -0.038 A 
ATOM     23  C   UNL     1       0.214  -9.940   2.303  0.00  0.00    +0.006 A 
ATOM     24  C   UNL     1      -0.070 -11.168   1.738  0.00  0.00    +0.033 A 
ATOM     25  C   UNL     1       0.832 -11.755   0.869  0.00  0.00    +0.126 A 
ATOM     26  C   UNL     1       2.018 -11.113   0.567  0.00  0.00    +0.033 A 
ATOM     27  C   UNL     1       2.300  -9.882   1.129  0.00  0.00    +0.006 A 
BRANCH  25  28
ATOM     28  N   UNL     1       0.527 -13.071   0.264  0.00  0.00    +0.056 N 
ATOM     29  O   UNL     1      -0.510 -13.633   0.529  0.00  0.00    -0.126 OA
ATOM     30  O   UNL     1       1.316 -13.584  -0.495  0.00  0.00    -0.126 OA
ENDBRANCH  25  28
ENDBRANCH  21  22
ENDBRANCH  18  21
ENDBRANCH   3  17
TORSDOF 5
