REMARK  Name = ZINC45527467
REMARK  8 active torsions:
REMARK  status: ('A' for Active; 'I' for Inactive)
REMARK    1  A    between atoms: C_1  and  C_2
REMARK    2  A    between atoms: C_2  and  C_4
REMARK    3  A    between atoms: C_2  and  N_14
REMARK    4  A    between atoms: C_7  and  S_10
REMARK    5  A    between atoms: S_10  and  N_13
REMARK    6  A    between atoms: N_14  and  C_15
REMARK    7  A    between atoms: C_16  and  C_18
REMARK    8  A    between atoms: C_22  and  N_27
REMARK                            x       y       z     vdW  Elec       q    Type
REMARK                         _______ _______ _______ _____ _____    ______ ____
ROOT
ATOM      1  N   UNL     1       0.779  -0.548   1.151  0.00  0.00    -0.293 N 
ATOM      2  C   UNL     1       2.145  -0.170   1.523  0.00  0.00    +0.133 C 
ATOM      3  C   UNL     1       0.109  -1.458   1.884  0.00  0.00    +0.254 C 
ATOM      4  O   UNL     1      -1.057  -1.701   1.635  0.00  0.00    -0.269 OA
ENDROOT
BRANCH   3   5
ATOM      5  C   UNL     1       0.786  -2.158   2.985  0.00  0.00    +0.075 A 
ATOM      6  C   UNL     1       0.314  -3.167   3.765  0.00  0.00    +0.029 A 
ATOM      7  C   UNL     1       1.125  -3.709   4.778  0.00  0.00    -0.008 A 
ATOM      8  C   UNL     1       0.815  -4.754   5.686  0.00  0.00    +0.041 A 
ATOM      9  C   UNL     1       1.721  -5.161   6.612  0.00  0.00    +0.127 A 
ATOM     10  C   UNL     1       2.978  -4.576   6.708  0.00  0.00    +0.034 A 
ATOM     11  C   UNL     1       3.321  -3.557   5.844  0.00  0.00    +0.018 A 
ATOM     12  C   UNL     1       2.412  -3.133   4.898  0.00  0.00    +0.020 A 
ATOM     13  S   UNL     1       2.432  -1.899   3.623  0.00  0.00    -0.084 S 
BRANCH   9  14
ATOM     14  N   UNL     1       1.361  -6.255   7.543  0.00  0.00    +0.056 N 
ATOM     15  O   UNL     1       0.271  -6.774   7.473  0.00  0.00    -0.126 OA
ATOM     16  O   UNL     1       2.156  -6.629   8.373  0.00  0.00    -0.126 OA
ENDBRANCH   9  14
ENDBRANCH   3   5
BRANCH   1  18
ATOM     17  C   UNL     1       0.176   1.587   0.122  0.00  0.00    +0.033 C 
ATOM     18  C   UNL     1       0.143   0.064  -0.018  0.00  0.00    +0.103 C 
BRANCH  18  19
ATOM     19  C   UNL     1       0.886  -0.342  -1.265  0.00  0.00    -0.027 A 
ATOM     20  C   UNL     1       0.930   0.511  -2.352  0.00  0.00    +0.007 A 
ATOM     21  C   UNL     1       1.612   0.138  -3.495  0.00  0.00    +0.029 A 
ATOM     22  C   UNL     1       2.249  -1.087  -3.552  0.00  0.00    +0.105 A 
ATOM     23  C   UNL     1       2.205  -1.940  -2.464  0.00  0.00    +0.029 A 
ATOM     24  C   UNL     1       1.527  -1.566  -1.319  0.00  0.00    +0.007 A 
BRANCH  22  25
ATOM     25  S   UNL     1       3.116  -1.563  -5.010  0.00  0.00    +0.056 S 
ATOM     26  O   UNL     1       3.165  -2.983  -5.008  0.00  0.00    -0.153 OA
ATOM     27  O   UNL     1       2.548  -0.822  -6.080  0.00  0.00    -0.153 OA
BRANCH  25  28
ATOM     28  N   UNL     1       4.677  -1.036  -4.845  0.00  0.00    -0.204 NA
ATOM     29  H   UNL     1       4.947  -0.561  -4.043  0.00  0.00    +0.144 HD
ATOM     30  H   UNL     1       5.322  -1.201  -5.550  0.00  0.00    +0.144 HD
ENDBRANCH  25  28
ENDBRANCH  22  25
ENDBRANCH  18  19
ENDBRANCH   1  18
TORSDOF 6
