REMARK  Name = ZINC14720571
REMARK  11 active torsions:
REMARK  status: ('A' for Active; 'I' for Inactive)
REMARK    1  A    between atoms: C_1  and  C_2
REMARK    2  A    between atoms: C_2  and  C_3
REMARK    3  A    between atoms: C_3  and  C_4
REMARK    4  A    between atoms: C_4  and  N_5
REMARK    5  A    between atoms: N_5  and  C_6
REMARK    6  A    between atoms: C_7  and  N_19
REMARK    7  A    between atoms: N_8  and  C_15
REMARK    8  A    between atoms: C_15  and  C_16
REMARK    9  A    between atoms: C_16  and  C_17
REMARK   10  A    between atoms: C_16  and  C_18
REMARK   11  A    between atoms: C_20  and  C_22
REMARK                            x       y       z     vdW  Elec       q    Type
REMARK                         _______ _______ _______ _____ _____    ______ ____
ROOT
ATOM      1  N   UNL     1      -1.960   5.436  -0.833  0.00  0.00    -0.264 N 
ATOM      2  C   UNL     1      -1.512   4.401  -0.093  0.00  0.00    +0.226 C 
ATOM      3  O   UNL     1      -1.164   4.581   1.055  0.00  0.00    -0.275 OA
ENDROOT
BRANCH   2   4
ATOM      4  C   UNL     1      -1.442   3.020  -0.694  0.00  0.00    +0.048 C 
ATOM      5  C   UNL     1      -0.674   3.077  -2.016  0.00  0.00    +0.019 C 
ATOM      6  C   UNL     1      -0.604   1.675  -2.626  0.00  0.00    -0.009 C 
ATOM      7  C   UNL     1       0.115   0.734  -1.658  0.00  0.00    +0.007 C 
ATOM      8  C   UNL     1      -0.653   0.677  -0.336  0.00  0.00    -0.009 C 
ATOM      9  C   UNL     1      -0.723   2.078   0.274  0.00  0.00    +0.019 C 
ATOM     10  C   UNL     1      -2.070   0.160  -0.592  0.00  0.00    +0.007 C 
ATOM     11  C   UNL     1      -2.790   1.102  -1.559  0.00  0.00    -0.009 C 
ATOM     12  C   UNL     1      -2.022   1.159  -2.881  0.00  0.00    +0.007 C 
ATOM     13  C   UNL     1      -2.860   2.504  -0.950  0.00  0.00    +0.019 C 
ENDBRANCH   2   4
BRANCH   1  14
ATOM     14  C   UNL     1      -1.990   6.735  -0.283  0.00  0.00    +0.140 A 
ATOM     15  C   UNL     1      -0.817   7.400   0.010  0.00  0.00    +0.127 A 
ATOM     16  N   UNL     1      -0.877   8.668   0.541  0.00  0.00    -0.280 N 
ATOM     17  C   UNL     1      -2.067   9.248   0.781  0.00  0.00    +0.331 A 
ATOM     18  O   UNL     1      -2.099  10.368   1.255  0.00  0.00    -0.246 OA
ATOM     19  N   UNL     1      -3.220   8.614   0.507  0.00  0.00    -0.273 N 
ATOM     20  H   UNL     1      -4.091   9.068   0.695  0.00  0.00    +0.173 HD
ATOM     21  C   UNL     1      -3.216   7.373  -0.018  0.00  0.00    +0.277 A 
ATOM     22  O   UNL     1      -4.268   6.807  -0.263  0.00  0.00    -0.266 OA
BRANCH  15  23
ATOM     23  N   UNL     1       0.399   6.804  -0.230  0.00  0.00    -0.343 N 
ATOM     24  H   UNL     1       0.439   5.959  -0.703  0.00  0.00    +0.144 HD
ATOM     25  H   UNL     1       1.216   7.230   0.074  0.00  0.00    +0.144 HD
ENDBRANCH  15  23
BRANCH  16  26
ATOM     26  C   UNL     1       0.360   9.387   0.852  0.00  0.00    +0.131 C 
BRANCH  26  27
ATOM     27  C   UNL     1       0.785   9.075   2.288  0.00  0.00    +0.003 C 
ATOM     28  C   UNL     1       2.140   9.725   2.572  0.00  0.00    +0.009 C 
ATOM     29  C   UNL     1      -0.260   9.627   3.260  0.00  0.00    +0.009 C 
ENDBRANCH  26  27
ENDBRANCH  16  26
ENDBRANCH   1  14
BRANCH   1  30
ATOM     30  C   UNL     1      -2.417   5.212  -2.207  0.00  0.00    +0.114 C 
BRANCH  30  31
ATOM     31  C   UNL     1      -1.346   5.698  -3.186  0.00  0.00    +0.019 C 
BRANCH  31  33
ATOM     32  C   UNL     1      -0.688   5.821  -5.593  0.00  0.00    +0.004 C 
ATOM     33  C   UNL     1      -1.759   5.336  -4.614  0.00  0.00    -0.002 C 
ENDBRANCH  31  33
ENDBRANCH  30  31
ENDBRANCH   1  30
TORSDOF 8
