REMARK  Name = ZINC21961043
REMARK  13 active torsions:
REMARK  status: ('A' for Active; 'I' for Inactive)
REMARK    1  A    between atoms: C_1  and  C_2
REMARK    2  A    between atoms: C_2  and  N_3
REMARK    3  A    between atoms: N_3  and  C_4
REMARK    4  A    between atoms: N_3  and  C_6
REMARK    5  A    between atoms: C_4  and  C_5
REMARK    6  A    between atoms: C_6  and  C_7
REMARK    7  A    between atoms: C_12  and  C_13
REMARK    8  A    between atoms: C_13  and  N_14
REMARK    9  A    between atoms: C_15  and  C_17
REMARK   10  A    between atoms: C_17  and  C_19
REMARK   11  A    between atoms: C_17  and  N_30
REMARK   12  A    between atoms: C_19  and  C_20
REMARK   13  A    between atoms: C_31  and  C_33
REMARK                            x       y       z     vdW  Elec       q    Type
REMARK                         _______ _______ _______ _____ _____    ______ ____
ROOT
ATOM      1  C   UNL     1      -4.082   1.294   0.260  0.00  0.00    +0.163 C 
ENDROOT
BRANCH   1   3
ATOM      2  N   UNL     1      -5.702   0.393   1.897  0.00  0.00    -0.310 N 
ATOM      3  C   UNL     1      -4.434   0.428   1.441  0.00  0.00    +0.234 C 
ATOM      4  O   UNL     1      -3.576  -0.238   1.982  0.00  0.00    -0.274 OA
ATOM      5  H   UNL     1      -6.479   0.997   1.407  0.00  0.00    +0.149 HD
BRANCH   2   6
ATOM      6  C   UNL     1      -6.044  -0.449   3.046  0.00  0.00    +0.139 C 
BRANCH   6  12
ATOM      7  C   UNL     1      -8.444  -1.007   2.606  0.00  0.00    -0.059 A 
ATOM      8  C   UNL     1      -9.792  -0.878   2.887  0.00  0.00    +0.002 A 
ATOM      9  C   UNL     1     -10.208  -0.051   3.914  0.00  0.00    +0.000 A 
ATOM     10  C   UNL     1      -9.276   0.647   4.660  0.00  0.00    +0.000 A 
ATOM     11  C   UNL     1      -7.929   0.515   4.382  0.00  0.00    +0.005 A 
ATOM     12  C   UNL     1      -7.513  -0.308   3.352  0.00  0.00    -0.029 A 
BRANCH   7  13
ATOM     13  C   UNL     1      -7.990  -1.909   1.488  0.00  0.00    -0.043 C 
BRANCH  13  14
ATOM     14  N   UNL     1      -7.532  -3.188   2.045  0.00  0.00    +0.382 N 
ATOM     15  H   UNL     1      -6.797  -2.969   2.834  0.00  0.00    -0.081 HD
BRANCH  14  17
ATOM     16  C   UNL     1      -9.678  -4.273   1.585  0.00  0.00    -0.017 C 
ATOM     17  C   UNL     1      -8.645  -3.924   2.658  0.00  0.00    -0.082 C 
ENDBRANCH  14  17
BRANCH  14  18
ATOM     18  C   UNL     1      -6.864  -4.000   1.019  0.00  0.00    -0.082 C 
ATOM     19  C   UNL     1      -6.071  -5.121   1.693  0.00  0.00    -0.017 C 
ENDBRANCH  14  18
ENDBRANCH  13  14
ENDBRANCH   7  13
ENDBRANCH   6  12
ENDBRANCH   2   6
ENDBRANCH   1   3
BRANCH   1  20
ATOM     20  N   UNL     1      -2.638   1.542   0.249  0.00  0.00    -0.299 N 
ATOM     21  C   UNL     1      -1.777   0.508   0.163  0.00  0.00    +0.251 C 
ATOM     22  O   UNL     1      -2.200  -0.631   0.094  0.00  0.00    -0.270 OA
ATOM     23  H   UNL     1      -2.256   2.572   0.311  0.00  0.00    +0.150 HD
BRANCH  21  24
ATOM     24  C   UNL     1      -0.333   0.756   0.152  0.00  0.00    +0.074 A 
ATOM     25  C   UNL     1       0.709  -0.154   0.070  0.00  0.00    +0.021 A 
ATOM     26  C   UNL     1       1.985   0.354   0.075  0.00  0.00    +0.008 A 
ATOM     27  C   UNL     1       2.163   1.698   0.162  0.00  0.00    +0.046 A 
ATOM     28  S   UNL     1       0.543   2.308   0.242  0.00  0.00    -0.092 S 
ENDBRANCH  21  24
ENDBRANCH   1  20
BRANCH   1  29
ATOM     29  C   UNL     1      -4.487   0.583  -1.033  0.00  0.00    +0.069 C 
BRANCH  29  30
ATOM     30  C   UNL     1      -4.248   1.499  -2.206  0.00  0.00    -0.020 A 
ATOM     31  C   UNL     1      -5.151   2.305  -2.786  0.00  0.00    +0.087 A 
ATOM     32  N   UNL     1      -4.571   2.986  -3.822  0.00  0.00    -0.360 N 
ATOM     33  H   UNL     1      -5.166   3.696  -4.415  0.00  0.00    +0.165 HD
ATOM     34  C   UNL     1      -3.247   2.625  -3.936  0.00  0.00    +0.047 A 
ATOM     35  C   UNL     1      -2.985   1.682  -2.925  0.00  0.00    +0.003 A 
ATOM     36  C   UNL     1      -1.709   1.129  -2.802  0.00  0.00    +0.010 A 
ATOM     37  C   UNL     1      -0.717   1.516  -3.659  0.00  0.00    +0.001 A 
ATOM     38  C   UNL     1      -0.969   2.450  -4.654  0.00  0.00    +0.002 A 
ATOM     39  C   UNL     1      -2.222   3.004  -4.797  0.00  0.00    +0.026 A 
ENDBRANCH  29  30
ENDBRANCH   1  29
TORSDOF 11
