REMARK  Name = ZINC19449774
REMARK  8 active torsions:
REMARK  status: ('A' for Active; 'I' for Inactive)
REMARK    1  A    between atoms: C_1  and  C_2
REMARK    2  A    between atoms: C_2  and  C_3
REMARK    3  A    between atoms: C_2  and  N_4
REMARK    4  A    between atoms: C_5  and  C_7
REMARK    5  A    between atoms: C_10  and  C_15
REMARK    6  A    between atoms: N_12  and  C_14
REMARK    7  A    between atoms: N_18  and  S_21
REMARK    8  A    between atoms: S_21  and  C_24
REMARK                            x       y       z     vdW  Elec       q    Type
REMARK                         _______ _______ _______ _____ _____    ______ ____
ROOT
ATOM      1  C   UNL     1      -0.778   1.601   1.224  0.00  0.00    -0.022 C 
ATOM      2  C   UNL     1      -0.161   1.020   2.498  0.00  0.00    +0.019 C 
ATOM      3  C   UNL     1      -0.909   1.567   3.718  0.00  0.00    +0.109 C 
ATOM      4  N   UNL     1      -2.342   1.285   3.559  0.00  0.00    -0.177 NA
ATOM      5  C   UNL     1      -3.016   1.721   2.328  0.00  0.00    +0.109 C 
ATOM      6  C   UNL     1      -2.244   1.173   1.124  0.00  0.00    +0.019 C 
ENDROOT
BRANCH   1   9
ATOM      7  C   UNL     1       1.274  -0.915  -0.586  0.00  0.00    +0.057 C 
ATOM      8  C   UNL     1      -0.109  -0.454  -0.081  0.00  0.00    -0.004 C 
ATOM      9  C   UNL     1      -0.012   1.085   0.004  0.00  0.00    -0.065 C 
ATOM     10  N   UNL     1       1.441   1.361   0.147  0.00  0.00    +0.380 N 
ATOM     11  C   UNL     1       2.090   0.384  -0.764  0.00  0.00    -0.066 C 
ATOM     12  C   UNL     1       1.756   2.740  -0.250  0.00  0.00    -0.096 C 
ATOM     13  H   UNL     1       1.791   1.272   1.186  0.00  0.00    -0.082 HD
BRANCH   7  15
ATOM     14  N   UNL     1       2.230  -2.119  -2.524  0.00  0.00    -0.313 N 
ATOM     15  C   UNL     1       1.136  -1.632  -1.904  0.00  0.00    +0.214 C 
ATOM     16  O   UNL     1       0.042  -1.770  -2.408  0.00  0.00    -0.276 OA
ATOM     17  H   UNL     1       3.223  -1.994  -2.067  0.00  0.00    +0.149 HD
BRANCH  14  19
ATOM     18  C   UNL     1       2.088  -1.793  -4.943  0.00  0.00    +0.027 C 
ATOM     19  C   UNL     1       2.096  -2.816  -3.805  0.00  0.00    +0.067 C 
ATOM     20  C   UNL     1       3.275  -3.774  -3.990  0.00  0.00    +0.027 C 
ENDBRANCH  14  19
ENDBRANCH   7  15
ENDBRANCH   1   9
BRANCH   4  21
ATOM     21  S   UNL     1      -3.182   0.491   4.745  0.00  0.00    +0.061 S 
ATOM     22  O   UNL     1      -2.472   0.703   5.957  0.00  0.00    -0.153 OA
ATOM     23  O   UNL     1      -4.547   0.855   4.588  0.00  0.00    -0.153 OA
BRANCH  21  24
ATOM     24  C   UNL     1      -3.076  -1.232   4.394  0.00  0.00    +0.108 A 
ATOM     25  C   UNL     1      -2.037  -1.981   4.915  0.00  0.00    +0.029 A 
ATOM     26  C   UNL     1      -1.953  -3.333   4.640  0.00  0.00    +0.005 A 
ATOM     27  C   UNL     1      -2.908  -3.938   3.845  0.00  0.00    +0.038 A 
ATOM     28  C   UNL     1      -3.949  -3.189   3.323  0.00  0.00    +0.125 A 
ATOM     29  C   UNL     1      -4.035  -1.836   3.603  0.00  0.00    +0.066 A 
ATOM     30  F   UNL     1      -4.882  -3.780   2.546  0.00  0.00    -0.205 F 
ENDBRANCH  21  24
ENDBRANCH   4  21
TORSDOF 5
