REMARK  Name = ZINC39623902
REMARK  8 active torsions:
REMARK  status: ('A' for Active; 'I' for Inactive)
REMARK    1  A    between atoms: C_1  and  C_2
REMARK    2  A    between atoms: C_2  and  C_3
REMARK    3  A    between atoms: C_3  and  C_4
REMARK    4  A    between atoms: C_4  and  N_5
REMARK    5  A    between atoms: C_6  and  C_8
REMARK    6  A    between atoms: C_19  and  C_21
REMARK    7  A    between atoms: C_22  and  C_33
REMARK    8  A    between atoms: C_25  and  C_26
REMARK                            x       y       z     vdW  Elec       q    Type
REMARK                         _______ _______ _______ _____ _____    ______ ____
ROOT
ATOM      1  C   UNL     1       2.269  -4.308  -3.932  0.00  0.00    +0.100 C 
ATOM      2  C   UNL     1       1.434  -3.979  -5.190  0.00  0.00    +0.121 C 
ATOM      3  N   UNL     1       1.623  -5.148  -6.081  0.00  0.00    -0.296 N 
ATOM      4  C   UNL     1       1.603  -6.315  -5.166  0.00  0.00    +0.115 C 
ATOM      5  C   UNL     1       2.378  -5.842  -3.920  0.00  0.00    -0.004 C 
ATOM      6  C   UNL     1       3.839  -6.269  -4.013  0.00  0.00    -0.010 C 
ATOM      7  C   UNL     1       3.925  -7.796  -3.942  0.00  0.00    -0.082 C 
ATOM      8  N   UNL     1       3.337  -8.263  -2.680  0.00  0.00    +0.379 N 
ATOM      9  C   UNL     1       1.909  -7.929  -2.639  0.00  0.00    -0.082 C 
ATOM     10  C   UNL     1       1.737  -6.407  -2.656  0.00  0.00    -0.010 C 
ATOM     11  C   UNL     1       1.776  -5.151  -7.420  0.00  0.00    +0.252 C 
ATOM     12  O   UNL     1       1.922  -6.202  -8.013  0.00  0.00    -0.270 OA
ATOM     13  H   UNL     1       3.450  -9.263  -2.608  0.00  0.00    -0.086 HD
ATOM     14  H   UNL     1       3.808  -7.818  -1.907  0.00  0.00    -0.086 HD
ENDROOT
BRANCH  11  15
ATOM     15  C   UNL     1       1.769  -3.880  -8.164  0.00  0.00    +0.106 A 
ATOM     16  C   UNL     1       2.850  -3.101  -8.455  0.00  0.00    +0.147 A 
ATOM     17  O   UNL     1       2.427  -2.037  -9.142  0.00  0.00    -0.359 OA
ATOM     18  N   UNL     1       1.026  -2.111  -9.311  0.00  0.00    -0.077 NA
ATOM     19  C   UNL     1       0.595  -3.208  -8.741  0.00  0.00    +0.127 A 
ATOM     20  C   UNL     1       4.277  -3.392  -8.069  0.00  0.00    +0.090 C 
BRANCH  19  21
ATOM     21  C   UNL     1      -0.810  -3.682  -8.686  0.00  0.00    +0.023 A 
ATOM     22  C   UNL     1      -1.121  -4.872  -8.031  0.00  0.00    +0.011 A 
ATOM     23  C   UNL     1      -2.430  -5.308  -7.983  0.00  0.00    +0.001 A 
ATOM     24  C   UNL     1      -3.432  -4.566  -8.582  0.00  0.00    +0.001 A 
ATOM     25  C   UNL     1      -3.130  -3.384  -9.233  0.00  0.00    +0.020 A 
ATOM     26  C   UNL     1      -1.825  -2.934  -9.283  0.00  0.00    +0.050 A 
ATOM     27 CL   UNL     1      -1.448  -1.446 -10.093  0.00  0.00    -0.083 Cl
ENDBRANCH  19  21
ENDBRANCH  11  15
BRANCH   1  29
ATOM     28  N   UNL     1       2.278  -3.470  -1.605  0.00  0.00    -0.315 N 
ATOM     29  C   UNL     1       1.564  -3.822  -2.692  0.00  0.00    +0.218 C 
ATOM     30  O   UNL     1       0.353  -3.748  -2.673  0.00  0.00    -0.275 OA
ATOM     31  H   UNL     1       3.246  -3.529  -1.621  0.00  0.00    +0.149 HD
BRANCH  28  32
ATOM     32  C   UNL     1       1.592  -2.997  -0.400  0.00  0.00    +0.104 C 
BRANCH  32  33
ATOM     33  C   UNL     1       2.626  -2.666   0.678  0.00  0.00    +0.018 C 
BRANCH  33  35
ATOM     34  C   UNL     1       2.944  -1.841   3.015  0.00  0.00    +0.004 C 
ATOM     35  C   UNL     1       1.910  -2.172   1.937  0.00  0.00    -0.002 C 
ENDBRANCH  33  35
ENDBRANCH  32  33
ENDBRANCH  28  32
ENDBRANCH   1  29
TORSDOF 6
