REMARK  Name = ZINC54643020
REMARK  12 active torsions:
REMARK  status: ('A' for Active; 'I' for Inactive)
REMARK    1  A    between atoms: C_1  and  C_2
REMARK    2  A    between atoms: C_2  and  C_3
REMARK    3  A    between atoms: C_6  and  C_9
REMARK    4  A    between atoms: C_11  and  C_28
REMARK    5  A    between atoms: C_12  and  C_27
REMARK    6  A    between atoms: C_17  and  S_19
REMARK    7  A    between atoms: S_19  and  C_20
REMARK    8  A    between atoms: C_20  and  C_21
REMARK    9  A    between atoms: N_30  and  C_31
REMARK   10  A    between atoms: C_36  and  O_37
REMARK   11  A    between atoms: O_37  and  C_38
REMARK   12  A    between atoms: C_38  and  C_39
REMARK                            x       y       z     vdW  Elec       q    Type
REMARK                         _______ _______ _______ _____ _____    ______ ____
ROOT
ATOM      1  C   UNL     1       2.647  -1.887  -4.875  0.00  0.00    +0.177 C 
ATOM      2  C   UNL     1       3.299  -3.201  -4.535  0.00  0.00    +0.060 C 
ATOM      3  C   UNL     1       4.624  -3.344  -4.389  0.00  0.00    +0.018 C 
ATOM      4  N   UNL     1       5.496  -2.295  -4.551  0.00  0.00    -0.287 N 
ATOM      5  C   UNL     1       4.999  -1.135  -5.129  0.00  0.00    +0.219 A 
ATOM      6  N   UNL     1       3.668  -0.930  -5.292  0.00  0.00    -0.220 N 
ATOM      7  N   UNL     1       3.527   0.315  -5.903  0.00  0.00    -0.141 NA
ATOM      8  C   UNL     1       4.741   0.794  -6.071  0.00  0.00    +0.211 A 
ATOM      9  N   UNL     1       5.630  -0.092  -5.597  0.00  0.00    -0.187 NA
ATOM     10  C   UNL     1       5.176  -4.701  -4.036  0.00  0.00    +0.061 C 
ATOM     11  H   UNL     1       6.423  -2.362  -4.272  0.00  0.00    +0.155 HD
ENDROOT
BRANCH   1  15
ATOM     12  C   UNL     1       0.604  -0.383  -1.438  0.00  0.00    -0.048 A 
ATOM     13  C   UNL     1      -0.098  -0.648  -2.598  0.00  0.00    +0.004 A 
ATOM     14  C   UNL     1       0.563  -1.134  -3.711  0.00  0.00    +0.006 A 
ATOM     15  C   UNL     1       1.926  -1.356  -3.662  0.00  0.00    -0.018 A 
ATOM     16  C   UNL     1       2.629  -1.090  -2.502  0.00  0.00    +0.006 A 
ATOM     17  C   UNL     1       1.969  -0.599  -1.391  0.00  0.00    +0.004 A 
BRANCH  12  19
ATOM     18  C   UNL     1      -0.131   1.677  -0.269  0.00  0.00    +0.009 C 
ATOM     19  C   UNL     1      -0.117   0.147  -0.225  0.00  0.00    +0.032 C 
ENDBRANCH  12  19
ENDBRANCH   1  15
BRANCH   2  20
ATOM     20  C   UNL     1       2.475  -4.338  -4.361  0.00  0.00    +0.248 C 
ATOM     21  O   UNL     1       1.991  -4.894  -5.331  0.00  0.00    -0.270 OA
ATOM     22  N   UNL     1       2.225  -4.805  -3.122  0.00  0.00    -0.279 N 
ATOM     23  H   UNL     1       2.558  -4.327  -2.346  0.00  0.00    +0.155 HD
BRANCH  22  24
ATOM     24  C   UNL     1       1.484  -5.982  -2.954  0.00  0.00    +0.076 A 
ATOM     25  C   UNL     1       0.452  -6.285  -3.830  0.00  0.00    +0.027 A 
ATOM     26  C   UNL     1      -0.278  -7.447  -3.662  0.00  0.00    +0.002 A 
ATOM     27  C   UNL     1       0.019  -8.309  -2.622  0.00  0.00    +0.004 A 
ATOM     28  C   UNL     1       1.046  -8.014  -1.746  0.00  0.00    +0.047 A 
ATOM     29  C   UNL     1       1.786  -6.854  -1.910  0.00  0.00    +0.142 A 
BRANCH  29  30
ATOM     30  O   UNL     1       2.800  -6.565  -1.052  0.00  0.00    -0.490 OA
BRANCH  30  31
ATOM     31  C   UNL     1       3.052  -7.505  -0.005  0.00  0.00    +0.226 C 
ATOM     32  C   UNL     1       4.220  -7.013   0.852  0.00  0.00    +0.048 C 
ENDBRANCH  30  31
ENDBRANCH  29  30
ENDBRANCH  22  24
ENDBRANCH   2  20
BRANCH   8  33
ATOM     33  S   UNL     1       5.135   2.348  -6.801  0.00  0.00    -0.080 S 
BRANCH  33  34
ATOM     34  C   UNL     1       6.947   2.415  -6.739  0.00  0.00    +0.112 C 
BRANCH  34  35
ATOM     35  C   UNL     1       7.422   3.712  -7.340  0.00  0.00    -0.037 A 
ATOM     36  C   UNL     1       7.691   3.789  -8.694  0.00  0.00    +0.004 A 
ATOM     37  C   UNL     1       8.127   4.979  -9.246  0.00  0.00    +0.000 A 
ATOM     38  C   UNL     1       8.294   6.093  -8.444  0.00  0.00    +0.000 A 
ATOM     39  C   UNL     1       8.025   6.016  -7.090  0.00  0.00    +0.000 A 
ATOM     40  C   UNL     1       7.584   4.827  -6.539  0.00  0.00    +0.004 A 
ENDBRANCH  34  35
ENDBRANCH  33  34
ENDBRANCH   8  33
TORSDOF 9
