REMARK  Name = ZINC63259671
REMARK  6 active torsions:
REMARK  status: ('A' for Active; 'I' for Inactive)
REMARK    1  A    between atoms: C_1  and  N_2
REMARK    2  A    between atoms: C_3  and  C_5
REMARK    3  A    between atoms: C_8  and  N_11
REMARK    4  A    between atoms: C_12  and  C_14
REMARK    5  A    between atoms: C_15  and  C_16
REMARK    6  A    between atoms: C_19  and  C_21
REMARK                            x       y       z     vdW  Elec       q    Type
REMARK                         _______ _______ _______ _____ _____    ______ ____
ROOT
ATOM      1  N   UNL     1       3.457  -4.194  -1.064  0.00  0.00    -0.309 N 
ATOM      2  C   UNL     1       4.413  -4.854  -1.747  0.00  0.00    +0.237 C 
ATOM      3  O   UNL     1       4.135  -5.873  -2.354  0.00  0.00    -0.271 OA
ATOM      4  H   UNL     1       3.678  -3.384  -0.580  0.00  0.00    +0.149 HD
ENDROOT
BRANCH   1   8
ATOM      5  C   UNL     1       0.606  -2.171  -1.026  0.00  0.00    +0.075 C 
ATOM      6  C   UNL     1       1.345  -2.678   0.213  0.00  0.00    +0.014 C 
ATOM      7  C   UNL     1       1.366  -4.208   0.205  0.00  0.00    +0.023 C 
ATOM      8  C   UNL     1       2.082  -4.701  -1.054  0.00  0.00    +0.073 C 
ATOM      9  C   UNL     1       1.342  -4.195  -2.293  0.00  0.00    +0.023 C 
ATOM     10  C   UNL     1       1.322  -2.665  -2.285  0.00  0.00    +0.014 C 
BRANCH   5  13
ATOM     11  C   UNL     1      -0.018   1.461   0.010  0.00  0.00    +0.128 C 
ATOM     12  N   UNL     1       0.002  -0.004   0.002  0.00  0.00    -0.318 N 
ATOM     13  C   UNL     1       0.585  -0.664  -1.018  0.00  0.00    +0.216 C 
ATOM     14  O   UNL     1       1.093  -0.046  -1.929  0.00  0.00    -0.276 OA
ATOM     15  H   UNL     1      -0.404  -0.499   0.731  0.00  0.00    +0.148 HD
ENDBRANCH   5  13
ENDBRANCH   1   8
BRANCH   2  16
ATOM     16  C   UNL     1       5.740  -4.365  -1.757  0.00  0.00    +0.068 C 
ATOM     17  C   UNL     1       6.704  -5.030  -2.444  0.00  0.00    +0.020 C 
BRANCH  17  18
ATOM     18  C   UNL     1       8.030  -4.541  -2.454  0.00  0.00    +0.013 A 
ATOM     19  C   UNL     1       9.150  -5.064  -3.093  0.00  0.00    +0.016 A 
ATOM     20  C   UNL     1      10.343  -4.412  -2.960  0.00  0.00    +0.017 A 
ATOM     21  C   UNL     1      10.391  -3.257  -2.194  0.00  0.00    +0.023 A 
ATOM     22  S   UNL     1       8.697  -3.089  -1.657  0.00  0.00    -0.089 S 
BRANCH  21  23
ATOM     23  C   UNL     1      11.546  -2.386  -1.902  0.00  0.00    +0.024 A 
ATOM     24  C   UNL     1      12.745  -2.938  -1.446  0.00  0.00    +0.012 A 
ATOM     25  C   UNL     1      13.820  -2.119  -1.175  0.00  0.00    +0.001 A 
ATOM     26  C   UNL     1      13.716  -0.750  -1.355  0.00  0.00    +0.003 A 
ATOM     27  C   UNL     1      12.533  -0.194  -1.807  0.00  0.00    +0.039 A 
ATOM     28  C   UNL     1      11.448  -1.003  -2.087  0.00  0.00    +0.132 A 
ATOM     29  F   UNL     1      10.295  -0.459  -2.534  0.00  0.00    -0.205 F 
ENDBRANCH  21  23
ENDBRANCH  17  18
ENDBRANCH   2  16
TORSDOF 5
