REMARK  Name = ZINC12101225
REMARK  7 active torsions:
REMARK  status: ('A' for Active; 'I' for Inactive)
REMARK    1  A    between atoms: C_4  and  C_7
REMARK    2  A    between atoms: C_7  and  C_12
REMARK    3  A    between atoms: C_12  and  N_13
REMARK    4  A    between atoms: C_14  and  C_16
REMARK    5  A    between atoms: C_16  and  S_17
REMARK    6  A    between atoms: S_17  and  C_18
REMARK    7  A    between atoms: C_18  and  C_19
REMARK                            x       y       z     vdW  Elec       q    Type
REMARK                         _______ _______ _______ _____ _____    ______ ____
ROOT
ATOM      1  C   UNL     1      -3.216   0.494  -5.334  0.00  0.00    +0.165 C 
ENDROOT
BRANCH   1   3
ATOM      2  N   UNL     1      -1.942   0.881  -3.250  0.00  0.00    -0.314 N 
ATOM      3  C   UNL     1      -2.568   0.008  -4.064  0.00  0.00    +0.223 C 
ATOM      4  O   UNL     1      -2.609  -1.169  -3.774  0.00  0.00    -0.275 OA
ATOM      5  H   UNL     1      -1.909   1.823  -3.481  0.00  0.00    +0.149 HD
BRANCH   2   6
ATOM      6  C   UNL     1      -1.311   0.409  -2.015  0.00  0.00    +0.115 C 
BRANCH   6   7
ATOM      7  C   UNL     1      -0.787   1.606  -1.219  0.00  0.00    +0.011 C 
ATOM      8  C   UNL     1      -0.243   1.137   0.142  0.00  0.00    +0.013 C 
ATOM      9  C   UNL     1      -1.083   1.849   1.222  0.00  0.00    +0.001 C 
ATOM     10  C   UNL     1      -2.412   2.193   0.503  0.00  0.00    +0.001 C 
ATOM     11  C   UNL     1      -1.940   2.586  -0.919  0.00  0.00    +0.013 C 
BRANCH   7  15
ATOM     12  C   UNL     1       2.288   3.594  -3.419  0.00  0.00    +0.000 A 
ATOM     13  C   UNL     1       1.823   4.137  -2.236  0.00  0.00    +0.000 A 
ATOM     14  C   UNL     1       0.827   3.494  -1.524  0.00  0.00    +0.004 A 
ATOM     15  C   UNL     1       0.298   2.307  -1.995  0.00  0.00    -0.040 A 
ATOM     16  C   UNL     1       0.767   1.760  -3.175  0.00  0.00    +0.004 A 
ATOM     17  C   UNL     1       1.759   2.406  -3.889  0.00  0.00    +0.000 A 
ENDBRANCH   7  15
ENDBRANCH   6   7
ENDBRANCH   2   6
ENDBRANCH   1   3
BRANCH   1  18
ATOM     18  S   UNL     1      -3.969  -0.908  -6.204  0.00  0.00    -0.144 S 
BRANCH  18  19
ATOM     19  C   UNL     1      -4.696  -0.164  -7.690  0.00  0.00    +0.143 C 
BRANCH  19  20
ATOM     20  C   UNL     1      -5.363  -1.236  -8.513  0.00  0.00    +0.121 A 
ATOM     21  N   UNL     1      -5.976  -0.897  -9.677  0.00  0.00    -0.310 N 
ATOM     22  H   UNL     1      -5.976   0.030  -9.961  0.00  0.00    +0.170 HD
ATOM     23  C   UNL     1      -6.583  -1.823 -10.443  0.00  0.00    +0.260 A 
ATOM     24  O   UNL     1      -7.130  -1.505 -11.485  0.00  0.00    -0.267 OA
ATOM     25  C   UNL     1      -6.575  -3.189 -10.011  0.00  0.00    +0.075 A 
ATOM     26  C   UNL     1      -7.170  -4.355 -10.681  0.00  0.00    -0.023 A 
ATOM     27  C   UNL     1      -7.025  -5.545 -10.071  0.00  0.00    -0.004 A 
ATOM     28  S   UNL     1      -6.106  -5.193  -8.590  0.00  0.00    -0.073 S 
ATOM     29  C   UNL     1      -5.918  -3.443  -8.800  0.00  0.00    +0.116 A 
ATOM     30  N   UNL     1      -5.335  -2.474  -8.097  0.00  0.00    -0.226 NA
ATOM     31  C   UNL     1      -7.668  -6.662 -10.848  0.00  0.00    +0.043 C 
ATOM     32  C   UNL     1      -7.876  -6.081 -12.264  0.00  0.00    +0.010 C 
ATOM     33  C   UNL     1      -7.963  -4.570 -11.973  0.00  0.00    +0.037 C 
ENDBRANCH  19  20
ENDBRANCH  18  19
ENDBRANCH   1  18
TORSDOF 7
