REMARK  Name = ZINC55758047
REMARK  9 active torsions:
REMARK  status: ('A' for Active; 'I' for Inactive)
REMARK    1  A    between atoms: C_1  and  C_2
REMARK    2  A    between atoms: N_11  and  C_15
REMARK    3  A    between atoms: C_15  and  C_16
REMARK    4  A    between atoms: N_18  and  C_19
REMARK    5  A    between atoms: C_19  and  C_21
REMARK    6  A    between atoms: C_19  and  C_22
REMARK    7  A    between atoms: C_22  and  N_23
REMARK    8  A    between atoms: C_25  and  C_32
REMARK    9  A    between atoms: C_28  and  C_31
REMARK                            x       y       z     vdW  Elec       q    Type
REMARK                         _______ _______ _______ _____ _____    ______ ____
ROOT
ATOM      1  C   UNL     1       1.044   0.208   5.541  0.00  0.00    +0.231 C 
ATOM      2  O   UNL     1       1.360  -0.960   5.453  0.00  0.00    -0.274 OA
ATOM      3  N   UNL     1       1.093   0.831   6.736  0.00  0.00    -0.313 N 
ATOM      4  H   UNL     1       0.841   1.764   6.806  0.00  0.00    +0.149 HD
ENDROOT
BRANCH   3   5
ATOM      5  C   UNL     1       1.528   0.097   7.927  0.00  0.00    +0.053 C 
ATOM      6  C   UNL     1       3.053   0.157   8.035  0.00  0.00    +0.026 C 
BRANCH   5   7
ATOM      7  C   UNL     1       0.903   0.731   9.172  0.00  0.00    -0.057 C 
BRANCH   7   8
ATOM      8  N   UNL     1      -0.557   0.769   9.021  0.00  0.00    +0.381 N 
ATOM      9  C   UNL     1      -1.144   1.511  10.144  0.00  0.00    -0.076 C 
ATOM     10  C   UNL     1      -2.658   1.623   9.950  0.00  0.00    -0.031 C 
ATOM     11  C   UNL     1      -3.265   0.219   9.891  0.00  0.00    +0.003 C 
ATOM     12  C   UNL     1      -2.593  -0.570   8.764  0.00  0.00    -0.031 C 
ATOM     13  C   UNL     1      -1.082  -0.602   9.001  0.00  0.00    -0.076 C 
ATOM     14  C   UNL     1      -3.138  -2.000   8.745  0.00  0.00    +0.005 C 
ATOM     15  C   UNL     1      -3.267   2.396  11.122  0.00  0.00    +0.005 C 
ATOM     16  H   UNL     1      -0.793   1.231   8.156  0.00  0.00    -0.082 HD
ENDBRANCH   7   8
ENDBRANCH   5   7
ENDBRANCH   3   5
BRANCH   1  17
ATOM     17  C   UNL     1       0.597   0.962   4.316  0.00  0.00    +0.213 C 
BRANCH  17  27
ATOM     18  C   UNL     1      -0.735   0.452   0.118  0.00  0.00    +0.010 C 
ATOM     19  C   UNL     1      -0.757  -1.065   0.312  0.00  0.00    +0.018 C 
ATOM     20  C   UNL     1      -2.199  -1.532   0.524  0.00  0.00    +0.006 C 
ATOM     21  C   UNL     1      -2.217  -3.047   0.738  0.00  0.00    +0.000 C 
ATOM     22  C   UNL     1      -1.391  -3.397   1.978  0.00  0.00    +0.003 C 
ATOM     23  C   UNL     1       0.054  -2.938   1.772  0.00  0.00    +0.035 C 
ATOM     24  C   UNL     1       0.083  -1.433   1.531  0.00  0.00    +0.115 C 
ATOM     25  C   UNL     1      -0.408  -0.692   2.753  0.00  0.00    +0.247 C 
ATOM     26  O   UNL     1      -1.504  -0.767   3.265  0.00  0.00    -0.273 OA
ATOM     27  N   UNL     1       0.630   0.070   3.154  0.00  0.00    -0.215 N 
ATOM     28  C   UNL     1       1.695  -0.090   2.358  0.00  0.00    +0.310 C 
ATOM     29  O   UNL     1       2.751   0.491   2.518  0.00  0.00    -0.252 OA
ATOM     30  N   UNL     1       1.465  -0.966   1.362  0.00  0.00    -0.285 N 
ATOM     31  H   UNL     1       2.089  -1.236   0.670  0.00  0.00    +0.151 HD
ENDBRANCH  17  27
ENDBRANCH   1  17
TORSDOF 5
