REMARK  Name = ZINC32092640
REMARK  3 active torsions:
REMARK  status: ('A' for Active; 'I' for Inactive)
REMARK    1  A    between atoms: C_5  and  N_7
REMARK    2  A    between atoms: C_8  and  C_10
REMARK    3  A    between atoms: C_19  and  C_21
REMARK                            x       y       z     vdW  Elec       q    Type
REMARK                         _______ _______ _______ _____ _____    ______ ____
ROOT
ATOM      1  C   UNL     1       0.118  -4.276   0.191  0.00  0.00    +0.204 C 
ATOM      2  C   UNL     1       0.777  -4.863  -1.060  0.00  0.00    +0.132 C 
ATOM      3  C   UNL     1      -0.150  -4.814  -2.241  0.00  0.00    +0.221 C 
ATOM      4  O   UNL     1       0.307  -4.595  -3.343  0.00  0.00    -0.275 OA
ATOM      5  N   UNL     1      -1.481  -5.010  -2.107  0.00  0.00    -0.270 N 
ATOM      6  C   UNL     1      -1.987  -5.134  -0.811  0.00  0.00    +0.125 A 
ATOM      7  N   UNL     1      -1.249  -4.791   0.292  0.00  0.00    -0.237 N 
ATOM      8  N   UNL     1      -2.024  -5.025   1.424  0.00  0.00    -0.169 NA
ATOM      9  C   UNL     1      -3.193  -5.495   1.033  0.00  0.00    +0.095 A 
ATOM     10  C   UNL     1      -3.188  -5.571  -0.385  0.00  0.00    +0.073 A 
ATOM     11  H   UNL     1      -2.063  -5.062  -2.881  0.00  0.00    +0.156 HD
ENDROOT
BRANCH   9  12
ATOM     12  C   UNL     1      -4.319  -5.877   1.921  0.00  0.00    +0.002 A 
ATOM     13  C   UNL     1      -5.504  -6.367   1.377  0.00  0.00    +0.013 A 
ATOM     14  C   UNL     1      -6.548  -6.721   2.207  0.00  0.00    +0.039 A 
ATOM     15  C   UNL     1      -6.419  -6.590   3.580  0.00  0.00    +0.123 A 
ATOM     16  C   UNL     1      -5.242  -6.103   4.126  0.00  0.00    +0.039 A 
ATOM     17  C   UNL     1      -4.191  -5.752   3.303  0.00  0.00    +0.013 A 
ATOM     18  F   UNL     1      -7.443  -6.939   4.389  0.00  0.00    -0.205 F 
ENDBRANCH   9  12
BRANCH   1  20
ATOM     19  N   UNL     1       1.237  -2.080  -0.022  0.00  0.00    -0.283 N 
ATOM     20  C   UNL     1       0.086  -2.773   0.087  0.00  0.00    +0.242 C 
ATOM     21  O   UNL     1      -0.976  -2.187   0.102  0.00  0.00    -0.273 OA
ATOM     22  H   UNL     1       2.081  -2.551  -0.100  0.00  0.00    +0.155 HD
BRANCH  19  27
ATOM     23  C   UNL     1       0.135   1.378  -0.617  0.00  0.00    +0.002 A 
ATOM     24  C   UNL     1       1.168   2.087  -0.031  0.00  0.00    +0.002 A 
ATOM     25  C   UNL     1       2.224   1.416   0.558  0.00  0.00    +0.022 A 
ATOM     26  C   UNL     1       2.250   0.034   0.563  0.00  0.00    +0.062 A 
ATOM     27  C   UNL     1       1.213  -0.681  -0.025  0.00  0.00    +0.052 A 
ATOM     28  C   UNL     1       0.155  -0.003  -0.615  0.00  0.00    +0.025 A 
ATOM     29 CL   UNL     1       3.577  -0.808   1.302  0.00  0.00    -0.082 Cl
ENDBRANCH  19  27
ENDBRANCH   1  20
TORSDOF 3
