REMARK  Name = ZINC26571825
REMARK  7 active torsions:
REMARK  status: ('A' for Active; 'I' for Inactive)
REMARK    1  A    between atoms: C_1  and  C_2
REMARK    2  A    between atoms: C_4  and  C_7
REMARK    3  A    between atoms: C_8  and  C_17
REMARK    4  A    between atoms: C_12  and  C_13
REMARK    5  A    between atoms: C_20  and  O_25
REMARK    6  A    between atoms: C_21  and  O_24
REMARK    7  A    between atoms: C_22  and  O_23
REMARK                            x       y       z     vdW  Elec       q    Type
REMARK                         _______ _______ _______ _____ _____    ______ ____
ROOT
ATOM      1  C   UNL     1       1.029   2.294  -0.261  0.00  0.00    +0.058 A 
ATOM      2  C   UNL     1       0.622   3.639  -0.073  0.00  0.00    +0.106 A 
ATOM      3  N   UNL     1      -0.661   3.635   0.218  0.00  0.00    -0.173 NA
ATOM      4  N   UNL     1      -1.110   2.309   0.220  0.00  0.00    -0.272 N 
ATOM      5  H   UNL     1      -2.165   2.086   0.435  0.00  0.00    +0.189 HD
ATOM      6  C   UNL     1      -0.064   1.504  -0.069  0.00  0.00    +0.148 A 
ENDROOT
BRANCH   1  10
ATOM      7  C   UNL     1       5.829   3.122  -1.337  0.00  0.00    +0.073 C 
ATOM      8  C   UNL     1       4.594   2.293  -1.094  0.00  0.00    +0.076 A 
ATOM      9  N   UNL     1       3.382   2.693  -0.794  0.00  0.00    -0.244 NA
ATOM     10  C   UNL     1       2.397   1.830  -0.605  0.00  0.00    +0.083 A 
ATOM     11  C   UNL     1       2.676   0.498  -0.742  0.00  0.00    +0.075 A 
ATOM     12  S   UNL     1       4.416   0.567  -1.145  0.00  0.00    -0.080 S 
ENDBRANCH   1  10
BRANCH   2  13
ATOM     13  C   UNL     1       1.489   4.836  -0.185  0.00  0.00    +0.048 A 
ATOM     14  C   UNL     1       2.675   4.911   0.543  0.00  0.00    +0.017 A 
ATOM     15  C   UNL     1       3.481   6.026   0.440  0.00  0.00    +0.050 A 
ATOM     16  C   UNL     1       3.115   7.077  -0.390  0.00  0.00    +0.162 A 
ATOM     17  C   UNL     1       1.934   7.012  -1.120  0.00  0.00    +0.201 A 
ATOM     18  C   UNL     1       1.121   5.891  -1.025  0.00  0.00    +0.171 A 
BRANCH  18  19
ATOM     19  O   UNL     1      -0.032   5.822  -1.742  0.00  0.00    -0.503 OA
ATOM     20  H   UNL     1      -0.320   6.653  -2.402  0.00  0.00    +0.292 HD
ENDBRANCH  18  19
BRANCH  17  21
ATOM     21  O   UNL     1       1.578   8.044  -1.933  0.00  0.00    -0.501 OA
ATOM     22  H   UNL     1       0.644   7.992  -2.511  0.00  0.00    +0.292 HD
ENDBRANCH  17  21
BRANCH  16  23
ATOM     23  O   UNL     1       3.914   8.173  -0.488  0.00  0.00    -0.503 OA
ATOM     24  H   UNL     1       3.625   9.007  -1.145  0.00  0.00    +0.292 HD
ENDBRANCH  16  23
ENDBRANCH   2  13
BRANCH   6  25
ATOM     25  C   UNL     1      -0.102   0.001  -0.167  0.00  0.00    +0.434 C 
ATOM     26  F   UNL     1      -1.399  -0.451   0.095  0.00  0.00    -0.164 F 
ATOM     27  F   UNL     1       0.277  -0.392  -1.455  0.00  0.00    -0.164 F 
ATOM     28  F   UNL     1       0.782  -0.549   0.767  0.00  0.00    -0.164 F 
ENDBRANCH   6  25
TORSDOF 6
