REMARK  Name = ZINC39882989
REMARK  5 active torsions:
REMARK  status: ('A' for Active; 'I' for Inactive)
REMARK    1  A    between atoms: C_11  and  C_14
REMARK    2  A    between atoms: C_14  and  C_15
REMARK    3  A    between atoms: N_17  and  C_18
REMARK    4  A    between atoms: N_17  and  C_26
REMARK    5  A    between atoms: C_18  and  C_19
REMARK                            x       y       z     vdW  Elec       q    Type
REMARK                         _______ _______ _______ _____ _____    ______ ____
ROOT
ATOM      1  C   UNL     1       5.585   1.702   1.369  0.00  0.00    +0.221 C 
ATOM      2  O   UNL     1       5.468   1.303   0.229  0.00  0.00    -0.275 OA
ATOM      3  N   UNL     1       6.108   2.921   1.605  0.00  0.00    -0.292 N 
ENDROOT
BRANCH   3   4
ATOM      4  C   UNL     1       6.429   3.810   0.486  0.00  0.00    +0.099 C 
ATOM      5  C   UNL     1       5.179   4.020  -0.385  0.00  0.00    +0.046 C 
ATOM      6  C   UNL     1       5.576   4.684  -1.726  0.00  0.00    +0.168 C 
ATOM      7  S   UNL     1       7.307   4.110  -1.964  0.00  0.00    -0.029 S 
ATOM      8  O   UNL     1       8.173   5.236  -1.953  0.00  0.00    -0.174 OA
ATOM      9  O   UNL     1       7.348   3.207  -3.060  0.00  0.00    -0.174 OA
ATOM     10  C   UNL     1       7.532   3.164  -0.399  0.00  0.00    +0.188 C 
ENDBRANCH   3   4
BRANCH   1  11
ATOM     11  C   UNL     1       5.145   0.834   2.520  0.00  0.00    +0.135 C 
BRANCH  11  22
ATOM     12  C   UNL     1       9.089  -3.070   1.320  0.00  0.00    +0.001 A 
ATOM     13  C   UNL     1       8.843  -1.786   1.797  0.00  0.00    +0.001 A 
ATOM     14  C   UNL     1       7.570  -1.304   1.883  0.00  0.00    +0.009 A 
ATOM     15  C   UNL     1       6.496  -2.108   1.486  0.00  0.00    -0.007 A 
ATOM     16  C   UNL     1       6.744  -3.415   1.000  0.00  0.00    -0.017 A 
ATOM     17  C   UNL     1       8.067  -3.879   0.925  0.00  0.00    +0.008 A 
ATOM     18  C   UNL     1       5.662  -4.223   0.602  0.00  0.00    +0.012 A 
ATOM     19  C   UNL     1       4.385  -3.773   0.676  0.00  0.00    +0.047 A 
ATOM     20  C   UNL     1       4.085  -2.490   1.148  0.00  0.00    +0.136 A 
ATOM     21  C   UNL     1       5.117  -1.641   1.558  0.00  0.00    +0.031 A 
ATOM     22  C   UNL     1       4.470  -0.403   1.987  0.00  0.00    +0.007 A 
ATOM     23  C   UNL     1       3.151  -0.591   1.810  0.00  0.00    +0.200 A 
ATOM     24  O   UNL     1       2.927  -1.820   1.316  0.00  0.00    -0.463 OA
ENDBRANCH  11  22
ENDBRANCH   1  11
BRANCH   3  25
ATOM     25  C   UNL     1       6.356   3.357   2.982  0.00  0.00    +0.144 C 
BRANCH  25  26
ATOM     26  C   UNL     1       7.750   2.957   3.392  0.00  0.00    -0.012 A 
ATOM     27  C   UNL     1       7.946   1.826   4.162  0.00  0.00    +0.006 A 
ATOM     28  C   UNL     1       9.225   1.459   4.538  0.00  0.00    +0.000 A 
ATOM     29  C   UNL     1      10.308   2.222   4.144  0.00  0.00    +0.001 A 
ATOM     30  C   UNL     1      10.113   3.352   3.373  0.00  0.00    +0.020 A 
ATOM     31  C   UNL     1       8.834   3.717   2.992  0.00  0.00    +0.046 A 
ATOM     32 CL   UNL     1       8.589   5.133   2.018  0.00  0.00    -0.083 Cl
ENDBRANCH  25  26
ENDBRANCH   3  25
TORSDOF 5
