REMARK  Name = ZINC12443785
REMARK  4 active torsions:
REMARK  status: ('A' for Active; 'I' for Inactive)
REMARK    1  A    between atoms: C_6  and  C_11
REMARK    2  A    between atoms: C_11  and  N_58
REMARK    3  A    between atoms: C_17  and  C_19
REMARK    4  A    between atoms: C_19  and  C_20
REMARK                            x       y       z     vdW  Elec       q    Type
REMARK                         _______ _______ _______ _____ _____    ______ ____
ROOT
ATOM      1  C   UNL     1       5.738   3.062  -2.004  0.00  0.00    -0.058 C 
ATOM      2  C   UNL     1       5.783   3.290  -3.516  0.00  0.00    +0.085 C 
ATOM      3  N   UNL     1       6.506   4.523  -3.816  0.00  0.00    -0.318 N 
ATOM      4  C   UNL     1       6.725   5.476  -2.904  0.00  0.00    +0.200 C 
ATOM      5  O   UNL     1       7.308   6.483  -3.245  0.00  0.00    -0.278 OA
ATOM      6  C   UNL     1       6.279   5.352  -1.474  0.00  0.00    +0.028 C 
ATOM      7  H   UNL     1       6.841   4.656  -4.716  0.00  0.00    +0.149 HD
ATOM      8  N   UNL     1       5.248   4.303  -1.370  0.00  0.00    +0.391 N 
ATOM      9  H   UNL     1       4.400   4.616  -1.856  0.00  0.00    -0.080 HD
ENDROOT
BRANCH   8  10
ATOM     10  C   UNL     1       4.922   4.052   0.053  0.00  0.00    -0.042 C 
BRANCH  10  16
ATOM     11  C   UNL     1      -1.101   1.748   0.393  0.00  0.00    +0.001 A 
ATOM     12  C   UNL     1      -1.140   3.141   0.392  0.00  0.00    +0.001 A 
ATOM     13  C   UNL     1       0.005   3.874   0.324  0.00  0.00    +0.008 A 
ATOM     14  C   UNL     1       1.247   3.219   0.260  0.00  0.00    -0.018 A 
ATOM     15  C   UNL     1       2.450   3.942   0.190  0.00  0.00    +0.010 A 
ATOM     16  C   UNL     1       3.634   3.273   0.129  0.00  0.00    -0.063 A 
ATOM     17  C   UNL     1       3.673   1.880   0.135  0.00  0.00    +0.002 A 
ATOM     18  C   UNL     1       2.528   1.148   0.203  0.00  0.00    +0.009 A 
ATOM     19  C   UNL     1       1.286   1.802   0.267  0.00  0.00    -0.018 A 
ATOM     20  C   UNL     1       0.083   1.080   0.338  0.00  0.00    +0.008 A 
ENDBRANCH  10  16
ENDBRANCH   8  10
BRANCH   6  21
ATOM     21  C   UNL     1       5.684   6.683  -1.011  0.00  0.00    +0.090 C 
BRANCH  21  22
ATOM     22  C   UNL     1       4.463   7.001  -1.835  0.00  0.00    +0.215 C 
ATOM     23  O   UNL     1       4.049   6.196  -2.642  0.00  0.00    -0.276 OA
ATOM     24  N   UNL     1       3.831   8.181  -1.675  0.00  0.00    -0.297 N 
ATOM     25  C   UNL     1       2.636   8.522  -2.464  0.00  0.00    +0.113 C 
ATOM     26  C   UNL     1       1.458   8.653  -1.500  0.00  0.00    +0.056 C 
ATOM     27  C   UNL     1       1.829   9.501  -0.312  0.00  0.00    -0.023 A 
ATOM     28  C   UNL     1       3.134   9.736   0.060  0.00  0.00    -0.026 A 
ATOM     29  C   UNL     1       3.405  10.518   1.175  0.00  0.00    +0.005 A 
ATOM     30  C   UNL     1       2.376  11.070   1.910  0.00  0.00    +0.002 A 
ATOM     31  C   UNL     1       1.066  10.842   1.535  0.00  0.00    +0.020 A 
ATOM     32  C   UNL     1       0.794  10.061   0.429  0.00  0.00    +0.044 A 
ATOM     33 CL   UNL     1      -0.853   9.776  -0.040  0.00  0.00    -0.083 Cl
ATOM     34  C   UNL     1       4.302   9.173  -0.703  0.00  0.00    +0.143 C 
ENDBRANCH  21  22
ENDBRANCH   6  21
TORSDOF 4
