REMARK  Name = ZINC59364104
REMARK  7 active torsions:
REMARK  status: ('A' for Active; 'I' for Inactive)
REMARK    1  A    between atoms: C_1  and  C_2
REMARK    2  A    between atoms: C_2  and  C_3
REMARK    3  A    between atoms: C_2  and  N_4
REMARK    4  A    between atoms: C_5  and  C_7
REMARK    5  A    between atoms: C_15  and  C_17
REMARK    6  A    between atoms: C_17  and  N_18
REMARK    7  A    between atoms: C_19  and  C_21
REMARK                            x       y       z     vdW  Elec       q    Type
REMARK                         _______ _______ _______ _____ _____    ______ ____
ROOT
ATOM      1  C   UNL     1       2.731  -1.069  -2.445  0.00  0.00    +0.302 C 
ATOM      2  O   UNL     1       2.086  -1.512  -3.373  0.00  0.00    -0.265 OA
ATOM      3  N   UNL     1       4.077  -1.084  -2.491  0.00  0.00    -0.291 N 
ATOM      4  C   UNL     1       4.871  -0.740  -1.304  0.00  0.00    +0.127 C 
ATOM      5  C   UNL     1       5.832  -1.897  -1.004  0.00  0.00    +0.127 C 
ATOM      6  N   UNL     1       6.533  -2.259  -2.244  0.00  0.00    -0.297 N 
ATOM      7  C   UNL     1       5.739  -2.603  -3.432  0.00  0.00    +0.127 C 
ATOM      8  C   UNL     1       4.779  -1.451  -3.730  0.00  0.00    +0.127 C 
ATOM      9  C   UNL     1       7.880  -2.273  -2.291  0.00  0.00    +0.233 C 
ATOM     10  O   UNL     1       8.524  -1.987  -1.304  0.00  0.00    -0.274 OA
ENDROOT
BRANCH   1  12
ATOM     11  N   UNL     1       0.692  -0.615  -1.140  0.00  0.00    -0.305 N 
ATOM     12  C   UNL     1       2.031  -0.507  -1.249  0.00  0.00    +0.299 C 
ATOM     13  O   UNL     1       2.668   0.045  -0.377  0.00  0.00    -0.265 OA
ATOM     14  H   UNL     1       0.182  -1.056  -1.838  0.00  0.00    +0.149 HD
BRANCH  11  16
ATOM     15  C   UNL     1      -0.279   1.422  -0.196  0.00  0.00    +0.027 C 
ATOM     16  C   UNL     1       0.006  -0.064   0.031  0.00  0.00    +0.067 C 
ATOM     17  C   UNL     1      -1.313  -0.809   0.247  0.00  0.00    +0.027 C 
ENDBRANCH  11  16
ENDBRANCH   1  12
BRANCH   9  18
ATOM     18  C   UNL     1       8.585  -2.646  -3.569  0.00  0.00    +0.200 C 
BRANCH  18  19
ATOM     19  N   UNL     1      10.034  -2.588  -3.362  0.00  0.00    -0.302 N 
ATOM     20  C   UNL     1      10.872  -2.883  -4.376  0.00  0.00    +0.251 C 
ATOM     21  O   UNL     1      10.425  -3.199  -5.463  0.00  0.00    -0.270 OA
ATOM     22  H   UNL     1      10.391  -2.336  -2.496  0.00  0.00    +0.150 HD
BRANCH  20  23
ATOM     23  C   UNL     1      12.321  -2.825  -4.169  0.00  0.00    +0.075 A 
ATOM     24  C   UNL     1      13.344  -3.082  -5.070  0.00  0.00    +0.022 A 
ATOM     25  C   UNL     1      14.620  -2.943  -4.581  0.00  0.00    +0.024 A 
ATOM     26  C   UNL     1      14.793  -2.573  -3.286  0.00  0.00    +0.056 A 
ATOM     27  S   UNL     1      13.230  -2.396  -2.696  0.00  0.00    -0.077 S 
ATOM     28 BR   UNL     1      16.420  -2.309  -2.360  0.00  0.00    -0.043 Br
ENDBRANCH  20  23
ENDBRANCH  18  19
ENDBRANCH   9  18
TORSDOF 5
