REMARK  Name = ZINC41583907
REMARK  9 active torsions:
REMARK  status: ('A' for Active; 'I' for Inactive)
REMARK    1  A    between atoms: C_1  and  C_2
REMARK    2  A    between atoms: C_5  and  C_35
REMARK    3  A    between atoms: N_8  and  C_10
REMARK    4  A    between atoms: C_10  and  C_11
REMARK    5  A    between atoms: C_12  and  O_34
REMARK    6  A    between atoms: C_18  and  C_30
REMARK    7  A    between atoms: C_19  and  C_22
REMARK    8  A    between atoms: C_27  and  O_28
REMARK    9  A    between atoms: O_28  and  C_29
REMARK                            x       y       z     vdW  Elec       q    Type
REMARK                         _______ _______ _______ _____ _____    ______ ____
ROOT
ATOM      1  C   UNL     1       2.146   0.211   3.650  0.00  0.00    +0.020 A 
ATOM      2  C   UNL     1       2.581   1.444   4.105  0.00  0.00    +0.122 A 
ATOM      3  C   UNL     1       1.979   2.048   5.207  0.00  0.00    +0.046 A 
ATOM      4  C   UNL     1       0.944   1.430   5.851  0.00  0.00    +0.019 A 
ATOM      5  C   UNL     1       0.494   0.190   5.402  0.00  0.00    +0.065 A 
ATOM      6  C   UNL     1       1.095  -0.430   4.292  0.00  0.00    +0.144 A 
ATOM      7  O   UNL     1       0.663  -1.634   3.868  0.00  0.00    -0.450 OA
ATOM      8  C   UNL     1      -0.509  -2.138   4.260  0.00  0.00    +0.220 A 
ATOM      9  C   UNL     1      -1.201  -1.649   5.322  0.00  0.00    +0.080 A 
ATOM     10  C   UNL     1      -0.625  -0.508   6.063  0.00  0.00    +0.201 A 
ATOM     11  O   UNL     1      -1.056  -0.157   7.148  0.00  0.00    -0.286 OA
ENDROOT
BRANCH   9  12
ATOM     12  C   UNL     1      -2.493  -2.252   5.732  0.00  0.00    +0.031 A 
ATOM     13  C   UNL     1      -2.514  -3.472   6.403  0.00  0.00    +0.012 A 
ATOM     14  C   UNL     1      -3.719  -4.029   6.782  0.00  0.00    +0.001 A 
ATOM     15  C   UNL     1      -4.907  -3.379   6.498  0.00  0.00    +0.004 A 
ATOM     16  C   UNL     1      -4.897  -2.167   5.832  0.00  0.00    +0.046 A 
ATOM     17  C   UNL     1      -3.695  -1.595   5.451  0.00  0.00    +0.128 A 
BRANCH  17  18
ATOM     18  O   UNL     1      -3.683  -0.401   4.802  0.00  0.00    -0.494 OA
ATOM     19  C   UNL     1      -4.949   0.212   4.550  0.00  0.00    +0.277 C 
ENDBRANCH  17  18
ENDBRANCH   9  12
BRANCH   8  20
ATOM     20  C   UNL     1      -1.089  -3.297   3.491  0.00  0.00    +0.451 C 
ATOM     21  F   UNL     1      -2.311  -3.670   4.062  0.00  0.00    -0.163 F 
ATOM     22  F   UNL     1      -1.292  -2.920   2.160  0.00  0.00    -0.163 F 
ATOM     23  F   UNL     1      -0.203  -4.379   3.540  0.00  0.00    -0.163 F 
ENDBRANCH   8  20
BRANCH   2  24
ATOM     24  O   UNL     1       3.605   2.071   3.472  0.00  0.00    -0.506 OA
ATOM     25  H   UNL     1       3.325   2.654   2.753  0.00  0.00    +0.292 HD
ENDBRANCH   2  24
BRANCH   1  26
ATOM     26  C   UNL     1       2.808  -0.431   2.458  0.00  0.00    -0.036 C 
BRANCH  26  32
ATOM     27  C   UNL     1      -0.019   1.526   0.010  0.00  0.00    +0.005 C 
ATOM     28  C   UNL     1       0.002  -0.004   0.002  0.00  0.00    -0.031 C 
ATOM     29  C   UNL     1       0.721  -0.499  -1.257  0.00  0.00    +0.003 C 
ATOM     30  C   UNL     1       2.177  -0.027  -1.220  0.00  0.00    -0.031 C 
ATOM     31  C   UNL     1       2.839  -0.534   0.063  0.00  0.00    -0.075 C 
ATOM     32  N   UNL     1       2.123  -0.005   1.230  0.00  0.00    +0.383 N 
ATOM     33  C   UNL     1       0.744  -0.512   1.240  0.00  0.00    -0.075 C 
ATOM     34  C   UNL     1       2.924  -0.581  -2.434  0.00  0.00    +0.005 C 
ATOM     35  H   UNL     1       2.109   1.003   1.187  0.00  0.00    -0.081 HD
ENDBRANCH  26  32
ENDBRANCH   1  26
TORSDOF 6
