REMARK  Name = ZINC63293932
REMARK  8 active torsions:
REMARK  status: ('A' for Active; 'I' for Inactive)
REMARK    1  A    between atoms: C_1  and  C_2
REMARK    2  A    between atoms: C_4  and  C_17
REMARK    3  A    between atoms: C_7  and  O_12
REMARK    4  A    between atoms: O_12  and  C_13
REMARK    5  A    between atoms: C_17  and  C_18
REMARK    6  A    between atoms: C_18  and  N_19
REMARK    7  A    between atoms: C_20  and  C_22
REMARK    8  A    between atoms: C_28  and  C_30
REMARK                            x       y       z     vdW  Elec       q    Type
REMARK                         _______ _______ _______ _____ _____    ______ ____
ROOT
ATOM      1  N   UNL     1      -4.652  -0.922  -2.650  0.00  0.00    -0.315 N 
ATOM      2  C   UNL     1      -5.826  -1.453  -2.257  0.00  0.00    +0.216 C 
ATOM      3  O   UNL     1      -5.881  -2.128  -1.251  0.00  0.00    -0.276 OA
ATOM      4  H   UNL     1      -4.608  -0.383  -3.455  0.00  0.00    +0.149 HD
ENDROOT
BRANCH   2   5
ATOM      5  C   UNL     1      -7.072  -1.210  -3.069  0.00  0.00    +0.078 C 
ATOM      6  C   UNL     1      -7.350   0.293  -3.139  0.00  0.00    +0.032 C 
ATOM      7  C   UNL     1      -8.597   0.539  -3.993  0.00  0.00    +0.109 C 
ATOM      8  N   UNL     1      -9.707  -0.255  -3.450  0.00  0.00    -0.297 N 
ATOM      9  C   UNL     1      -9.515  -1.698  -3.256  0.00  0.00    +0.109 C 
ATOM     10  C   UNL     1      -8.257  -1.919  -2.410  0.00  0.00    +0.032 C 
ATOM     11  C   UNL     1     -10.880   0.330  -3.133  0.00  0.00    +0.249 C 
ATOM     12  O   UNL     1     -11.815  -0.348  -2.756  0.00  0.00    -0.270 OA
BRANCH  11  13
ATOM     13  C   UNL     1     -11.028   1.795  -3.246  0.00  0.00    +0.072 A 
ATOM     14  C   UNL     1     -10.731   2.441  -4.448  0.00  0.00    +0.016 A 
ATOM     15  C   UNL     1     -10.872   3.808  -4.547  0.00  0.00    +0.001 A 
ATOM     16  C   UNL     1     -11.307   4.544  -3.458  0.00  0.00    +0.003 A 
ATOM     17  C   UNL     1     -11.603   3.915  -2.263  0.00  0.00    +0.039 A 
ATOM     18  C   UNL     1     -11.473   2.542  -2.151  0.00  0.00    +0.135 A 
ATOM     19  F   UNL     1     -11.768   1.927  -0.985  0.00  0.00    -0.205 F 
ENDBRANCH  11  13
ENDBRANCH   2   5
BRANCH   1  20
ATOM     20  C   UNL     1      -3.441  -1.159  -1.861  0.00  0.00    +0.108 C 
BRANCH  20  21
ATOM     21  C   UNL     1      -2.256  -0.449  -2.519  0.00  0.00    +0.052 C 
BRANCH  21  24
ATOM     22  C   UNL     1       0.387   1.353  -1.999  0.00  0.00    +0.035 C 
ATOM     23  C   UNL     1       0.382  -0.177  -2.000  0.00  0.00    +0.103 C 
ATOM     24  C   UNL     1      -1.010  -0.693  -1.708  0.00  0.00    -0.037 C 
ATOM     25  C   UNL     1      -0.909  -1.417  -0.570  0.00  0.00    +0.003 A 
ATOM     26  C   UNL     1      -1.890  -2.166   0.223  0.00  0.00    +0.056 A 
ATOM     27  C   UNL     1      -1.489  -2.809   1.346  0.00  0.00    +0.131 A 
ATOM     28  C   UNL     1      -0.154  -2.788   1.787  0.00  0.00    +0.048 A 
ATOM     29  C   UNL     1       0.819  -2.127   1.125  0.00  0.00    +0.029 A 
ATOM     30  C   UNL     1       0.496  -1.395  -0.104  0.00  0.00    +0.043 A 
ATOM     31  N   UNL     1       1.236  -0.686  -0.922  0.00  0.00    -0.378 N 
ATOM     32  H   UNL     1       2.189  -0.525  -0.831  0.00  0.00    +0.160 HD
BRANCH  27  33
ATOM     33  O   UNL     1      -2.409  -3.499   2.071  0.00  0.00    -0.406 OA
BRANCH  33  34
ATOM     34  C   UNL     1      -1.942  -4.163   3.247  0.00  0.00    +0.575 C 
ATOM     35  F   UNL     1      -1.398  -3.223   4.128  0.00  0.00    -0.133 F 
ATOM     36  F   UNL     1      -3.011  -4.819   3.867  0.00  0.00    -0.133 F 
ATOM     37  F   UNL     1      -0.961  -5.097   2.897  0.00  0.00    -0.133 F 
ENDBRANCH  33  34
ENDBRANCH  27  33
ENDBRANCH  21  24
ENDBRANCH  20  21
ENDBRANCH   1  20
TORSDOF 7
