REMARK  Name = ZINC14071308
REMARK  9 active torsions:
REMARK  status: ('A' for Active; 'I' for Inactive)
REMARK    1  A    between atoms: C_1  and  C_2
REMARK    2  A    between atoms: C_3  and  C_35
REMARK    3  A    between atoms: N_4  and  C_28
REMARK    4  A    between atoms: C_5  and  N_9
REMARK    5  A    between atoms: C_6  and  C_7
REMARK    6  A    between atoms: C_10  and  C_12
REMARK    7  A    between atoms: C_12  and  N_65
REMARK    8  A    between atoms: C_16  and  C_19
REMARK    9  A    between atoms: C_28  and  C_29
REMARK                            x       y       z     vdW  Elec       q    Type
REMARK                         _______ _______ _______ _____ _____    ______ ____
ROOT
ATOM      1  N   UNL     1       0.656  -9.120  -3.353  0.00  0.00    -0.272 N 
ATOM      2  C   UNL     1       0.405  -8.336  -2.286  0.00  0.00    +0.202 C 
ATOM      3  O   UNL     1       0.217  -8.836  -1.197  0.00  0.00    -0.278 OA
ATOM      4  H   UNL     1       0.895  -8.719  -4.204  0.00  0.00    +0.156 HD
ENDROOT
BRANCH   1   9
ATOM      5  C   UNL     1      -0.657 -13.787  -1.928  0.00  0.00    +0.047 C 
ATOM      6  C   UNL     1       0.002 -12.619  -2.616  0.00  0.00    -0.011 A 
ATOM      7  C   UNL     1       0.951 -12.678  -3.564  0.00  0.00    +0.022 A 
ATOM      8  N   UNL     1       1.296 -11.407  -3.939  0.00  0.00    -0.329 N 
ATOM      9  C   UNL     1       0.571 -10.499  -3.236  0.00  0.00    +0.123 A 
ATOM     10  C   UNL     1      -0.266 -11.196  -2.375  0.00  0.00    +0.095 A 
ATOM     11  C   UNL     1       1.544 -13.944  -4.126  0.00  0.00    +0.064 C 
BRANCH  10  12
ATOM     12  C   UNL     1      -1.200 -10.639  -1.444  0.00  0.00    +0.103 C 
ATOM     13  N   UNL     1      -1.942 -10.198  -0.705  0.00  0.00    -0.191 NA
ENDBRANCH  10  12
BRANCH   8  14
ATOM     14  C   UNL     1       2.300 -11.075  -4.952  0.00  0.00    +0.154 C 
BRANCH  14  15
ATOM     15  C   UNL     1       3.688 -11.060  -4.308  0.00  0.00    +0.138 C 
ATOM     16  C   UNL     1       4.764 -10.835  -5.388  0.00  0.00    +0.035 C 
ATOM     17  C   UNL     1       5.494  -9.548  -4.935  0.00  0.00    +0.031 C 
ATOM     18  C   UNL     1       5.144  -9.491  -3.426  0.00  0.00    +0.160 C 
ATOM     19  O   UNL     1       3.783  -9.969  -3.377  0.00  0.00    -0.375 OA
ENDBRANCH  14  15
ENDBRANCH   8  14
ENDBRANCH   1   9
BRANCH   2  20
ATOM     20  C   UNL     1       0.358  -6.838  -2.445  0.00  0.00    +0.019 C 
BRANCH  20  26
ATOM     21  C   UNL     1       1.373  -6.623  -0.258  0.00  0.00    -0.078 C 
ATOM     22  C   UNL     1       1.161  -6.066   1.152  0.00  0.00    -0.018 C 
ATOM     23  C   UNL     1       1.085  -4.538   1.085  0.00  0.00    +0.006 C 
ATOM     24  C   UNL     1      -0.050  -4.132   0.141  0.00  0.00    +0.028 C 
ATOM     25  C   UNL     1       0.197  -4.745  -1.239  0.00  0.00    -0.068 C 
ATOM     26  N   UNL     1       0.235  -6.218  -1.110  0.00  0.00    +0.386 N 
ATOM     27  H   UNL     1      -0.638  -6.536  -0.674  0.00  0.00    -0.081 HD
BRANCH  24  28
ATOM     28  C   UNL     1      -0.093  -2.630   0.024  0.00  0.00    +0.081 A 
ATOM     29  N   UNL     1       0.839  -1.825  -0.403  0.00  0.00    -0.244 NA
ATOM     30  C   UNL     1       0.671  -0.487  -0.458  0.00  0.00    +0.078 A 
ATOM     31  C   UNL     1       1.577   0.506  -0.891  0.00  0.00    +0.029 A 
ATOM     32  C   UNL     1       1.226   1.821  -0.875  0.00  0.00    +0.002 A 
ATOM     33  C   UNL     1      -0.024   2.235  -0.437  0.00  0.00    +0.001 A 
ATOM     34  C   UNL     1      -0.939   1.294  -0.005  0.00  0.00    +0.017 A 
ATOM     35  C   UNL     1      -0.594  -0.036  -0.018  0.00  0.00    +0.039 A 
ATOM     36  S   UNL     1      -1.398  -1.556   0.423  0.00  0.00    -0.072 S 
ENDBRANCH  24  28
ENDBRANCH  20  26
ENDBRANCH   2  20
TORSDOF 7
