REMARK  Name = ZINC59120008
REMARK  7 active torsions:
REMARK  status: ('A' for Active; 'I' for Inactive)
REMARK    1  A    between atoms: C_6  and  C_7
REMARK    2  A    between atoms: C_7  and  C_9
REMARK    3  A    between atoms: C_7  and  O_25
REMARK    4  A    between atoms: C_9  and  N_10
REMARK    5  A    between atoms: C_11  and  C_13
REMARK    6  A    between atoms: N_15  and  C_16
REMARK    7  A    between atoms: C_19  and  C_23
REMARK                            x       y       z     vdW  Elec       q    Type
REMARK                         _______ _______ _______ _____ _____    ______ ____
ROOT
ATOM      1  N   UNL     1      -2.909  -1.904   1.458  0.00  0.00    -0.305 N 
ATOM      2  C   UNL     1      -3.423  -2.345   2.623  0.00  0.00    +0.299 C 
ATOM      3  O   UNL     1      -2.840  -2.127   3.665  0.00  0.00    -0.265 OA
ATOM      4  H   UNL     1      -3.375  -2.078   0.625  0.00  0.00    +0.149 HD
ENDROOT
BRANCH   2   5
ATOM      5  C   UNL     1      -4.711  -3.101   2.632  0.00  0.00    +0.303 C 
ATOM      6  O   UNL     1      -5.295  -3.319   1.591  0.00  0.00    -0.265 OA
ATOM      7  N   UNL     1      -5.226  -3.542   3.797  0.00  0.00    -0.278 N 
ATOM      8  H   UNL     1      -4.728  -3.427   4.622  0.00  0.00    +0.155 HD
BRANCH   7   9
ATOM      9  C   UNL     1      -6.473  -4.163   3.818  0.00  0.00    +0.035 A 
ATOM     10  C   UNL     1      -6.862  -4.974   2.756  0.00  0.00    +0.024 A 
ATOM     11  C   UNL     1      -8.093  -5.589   2.772  0.00  0.00    +0.022 A 
ATOM     12  C   UNL     1      -8.954  -5.399   3.857  0.00  0.00    +0.070 A 
ATOM     13  C   UNL     1      -8.560  -4.584   4.923  0.00  0.00    +0.060 A 
ATOM     14  C   UNL     1      -7.324  -3.975   4.902  0.00  0.00    +0.044 A 
ATOM     15 CL   UNL     1      -9.625  -4.344   6.274  0.00  0.00    -0.082 Cl
BRANCH  12  16
ATOM     16  C   UNL     1     -10.236  -6.038   3.877  0.00  0.00    +0.101 C 
ATOM     17  N   UNL     1     -11.253  -6.544   3.893  0.00  0.00    -0.191 NA
ENDBRANCH  12  16
ENDBRANCH   7   9
ENDBRANCH   2   5
BRANCH   1  18
ATOM     18  C   UNL     1      -1.646  -1.162   1.449  0.00  0.00    +0.140 C 
BRANCH  18  19
ATOM     19  C   UNL     1      -1.288  -0.781   0.011  0.00  0.00    +0.162 C 
BRANCH  19  25
ATOM     20  C   UNL     1       0.001   1.364   0.015  0.00  0.00    +0.007 A 
ATOM     21  C   UNL     1       1.192   2.064   0.007  0.00  0.00    +0.020 A 
ATOM     22  C   UNL     1       2.396   1.382  -0.015  0.00  0.00    +0.041 A 
ATOM     23  C   UNL     1       2.405  -0.002  -0.029  0.00  0.00    +0.020 A 
ATOM     24  C   UNL     1       1.213  -0.701  -0.021  0.00  0.00    +0.007 A 
ATOM     25  C   UNL     1       0.011  -0.018   0.001  0.00  0.00    -0.018 A 
ATOM     26 CL   UNL     1       3.893   2.261  -0.026  0.00  0.00    -0.084 Cl
ENDBRANCH  19  25
BRANCH  19  27
ATOM     27  O   UNL     1      -1.151  -1.966  -0.776  0.00  0.00    -0.386 OA
ATOM     28  H   UNL     1      -0.463  -2.569  -0.461  0.00  0.00    +0.210 HD
ENDBRANCH  19  27
ENDBRANCH  18  19
ENDBRANCH   1  18
TORSDOF 7
