REMARK  Name = ZINC32975551
REMARK  6 active torsions:
REMARK  status: ('A' for Active; 'I' for Inactive)
REMARK    1  A    between atoms: C_1  and  C_2
REMARK    2  A    between atoms: N_8  and  S_9
REMARK    3  A    between atoms: S_9  and  C_12
REMARK    4  A    between atoms: C_14  and  C_19
REMARK    5  A    between atoms: C_17  and  C_18
REMARK    6  A    between atoms: C_19  and  N_20
REMARK                            x       y       z     vdW  Elec       q    Type
REMARK                         _______ _______ _______ _____ _____    ______ ____
ROOT
ATOM      1  C   UNL     1       0.096  -6.599   1.100  0.00  0.00    +0.116 A 
ATOM      2  C   UNL     1       1.190  -7.367   1.450  0.00  0.00    +0.034 A 
ATOM      3  C   UNL     1       1.207  -8.719   1.161  0.00  0.00    -0.028 A 
ATOM      4  C   UNL     1       0.129  -9.303   0.522  0.00  0.00    +0.005 A 
ATOM      5  C   UNL     1      -0.966  -8.535   0.173  0.00  0.00    +0.005 A 
ATOM      6  C   UNL     1      -0.985  -7.184   0.466  0.00  0.00    -0.024 A 
ATOM      7  C   UNL     1      -2.180  -6.347   0.090  0.00  0.00    +0.046 C 
ENDROOT
BRANCH   1   8
ATOM      8  S   UNL     1       0.075  -4.876   1.468  0.00  0.00    +0.101 S 
ATOM      9  O   UNL     1       1.319  -4.577   2.085  0.00  0.00    -0.146 OA
ATOM     10  O   UNL     1      -1.171  -4.611   2.098  0.00  0.00    -0.146 OA
BRANCH   8  18
ATOM     11  C   UNL     1      -0.018   1.503   0.010  0.00  0.00    +0.045 C 
ATOM     12  C   UNL     1       0.002  -0.004   0.002  0.00  0.00    -0.034 A 
ATOM     13  C   UNL     1       0.006  -0.696  -1.222  0.00  0.00    +0.008 A 
ATOM     14  C   UNL     1       0.024  -2.054  -1.226  0.00  0.00    +0.048 A 
ATOM     15  C   UNL     1       0.039  -2.750   0.006  0.00  0.00    +0.153 A 
ATOM     16  N   UNL     1       0.035  -2.044   1.185  0.00  0.00    -0.345 N 
ATOM     17  C   UNL     1       0.022  -0.681   1.169  0.00  0.00    +0.087 A 
ATOM     18  N   UNL     1       0.057  -4.067   0.023  0.00  0.00    -0.111 NA
ATOM     19  H   UNL     1       0.045  -2.517   2.031  0.00  0.00    +0.167 HD
ENDBRANCH   8  18
ENDBRANCH   1   8
BRANCH   3  20
ATOM     20  C   UNL     1       2.401  -9.556   1.542  0.00  0.00    +0.151 C 
BRANCH  20  21
ATOM     21  N   UNL     1       2.208 -10.097   2.890  0.00  0.00    -0.237 N 
ATOM     22  C   UNL     1       2.610  -9.450   4.018  0.00  0.00    +0.226 C 
ATOM     23  O   UNL     1       3.344  -8.488   4.085  0.00  0.00    -0.275 OA
ATOM     24  C   UNL     1       1.959 -10.167   5.157  0.00  0.00    +0.087 C 
ATOM     25  C   UNL     1       2.673 -10.268   6.484  0.00  0.00    +0.013 C 
ATOM     26  C   UNL     1       1.771 -11.104   7.410  0.00  0.00    +0.001 C 
ATOM     27  C   UNL     1       1.448 -12.470   6.815  0.00  0.00    +0.001 C 
ATOM     28  C   UNL     1       0.869 -12.354   5.391  0.00  0.00    +0.013 C 
ATOM     29  C   UNL     1       1.895 -11.609   4.571  0.00  0.00    +0.087 C 
ATOM     30  C   UNL     1       1.606 -11.291   3.137  0.00  0.00    +0.226 C 
ATOM     31  O   UNL     1       0.967 -11.961   2.354  0.00  0.00    -0.275 OA
ENDBRANCH  20  21
ENDBRANCH   3  20
TORSDOF 4
