REMARK  Name = ZINC05256898
REMARK  5 active torsions:
REMARK  status: ('A' for Active; 'I' for Inactive)
REMARK    1  A    between atoms: C_1  and  N_2
REMARK    2  A    between atoms: C_6  and  C_8
REMARK    3  A    between atoms: C_8  and  C_10
REMARK    4  A    between atoms: C_8  and  N_53
REMARK    5  A    between atoms: C_18  and  C_21
REMARK                            x       y       z     vdW  Elec       q    Type
REMARK                         _______ _______ _______ _____ _____    ______ ____
ROOT
ATOM      1  C   UNL     1       3.395  -5.904  -0.061  0.00  0.00    +0.050 C 
ENDROOT
BRANCH   1   7
ATOM      2  C   UNL     1       6.699  -9.267  -3.979  0.00  0.00    +0.129 C 
ATOM      3  N   UNL     1       5.881  -8.976  -2.799  0.00  0.00    -0.302 N 
ATOM      4  C   UNL     1       5.435  -7.723  -2.580  0.00  0.00    +0.306 C 
ATOM      5  O   UNL     1       5.712  -6.834  -3.361  0.00  0.00    -0.252 OA
ATOM      6  N   UNL     1       4.683  -7.456  -1.494  0.00  0.00    -0.241 N 
ATOM      7  C   UNL     1       4.237  -6.203  -1.275  0.00  0.00    +0.211 C 
ATOM      8  O   UNL     1       4.513  -5.316  -2.054  0.00  0.00    -0.277 OA
ATOM      9  H   UNL     1       5.660  -9.685  -2.175  0.00  0.00    +0.150 HD
ATOM     10  H   UNL     1       4.462  -8.165  -0.871  0.00  0.00    +0.159 HD
ENDBRANCH   1   7
BRANCH   1  16
ATOM     11  C   UNL     1       2.277  -4.118  -1.252  0.00  0.00    -0.077 C 
ATOM     12  C   UNL     1       2.051  -2.605  -1.279  0.00  0.00    -0.009 C 
ATOM     13  C   UNL     1       1.285  -2.186  -0.021  0.00  0.00    +0.041 C 
ATOM     14  C   UNL     1       2.075  -2.617   1.217  0.00  0.00    -0.009 C 
ATOM     15  C   UNL     1       2.303  -4.130   1.171  0.00  0.00    -0.077 C 
ATOM     16  N   UNL     1       3.066  -4.464  -0.051  0.00  0.00    +0.390 N 
ATOM     17  H   UNL     1       3.938  -3.922  -0.057  0.00  0.00    -0.080 HD
BRANCH  13  18
ATOM     18  C   UNL     1       1.111  -0.689  -0.012  0.00  0.00    +0.082 A 
ATOM     19  N   UNL     1       0.002  -0.004   0.002  0.00  0.00    -0.244 NA
ATOM     20  C   UNL     1      -0.016   1.345   0.009  0.00  0.00    +0.078 A 
ATOM     21  C   UNL     1      -1.125   2.220   0.030  0.00  0.00    +0.029 A 
ATOM     22  C   UNL     1      -0.945   3.569   0.031  0.00  0.00    +0.002 A 
ATOM     23  C   UNL     1       0.323   4.135   0.022  0.00  0.00    +0.001 A 
ATOM     24  C   UNL     1       1.433   3.312   0.006  0.00  0.00    +0.017 A 
ATOM     25  C   UNL     1       1.262   1.949   0.001  0.00  0.00    +0.039 A 
ATOM     26  S   UNL     1       2.339   0.538  -0.017  0.00  0.00    -0.072 S 
ENDBRANCH  13  18
ENDBRANCH   1  16
BRANCH   1  27
ATOM     27  C   UNL     1       4.175  -6.237   1.185  0.00  0.00    -0.052 A 
ATOM     28  C   UNL     1       5.125  -5.353   1.662  0.00  0.00    +0.002 A 
ATOM     29  C   UNL     1       5.837  -5.656   2.808  0.00  0.00    +0.000 A 
ATOM     30  C   UNL     1       5.606  -6.847   3.471  0.00  0.00    +0.000 A 
ATOM     31  C   UNL     1       4.659  -7.733   2.991  0.00  0.00    +0.000 A 
ATOM     32  C   UNL     1       3.944  -7.428   1.848  0.00  0.00    +0.002 A 
ENDBRANCH   1  27
TORSDOF 4
