REMARK  Name = ZINC08889938
REMARK  5 active torsions:
REMARK  status: ('A' for Active; 'I' for Inactive)
REMARK    1  A    between atoms: C_1  and  C_2
REMARK    2  A    between atoms: C_2  and  C_4
REMARK    3  A    between atoms: C_2  and  N_12
REMARK    4  A    between atoms: C_13  and  C_15
REMARK    5  A    between atoms: C_15  and  N_16
REMARK                            x       y       z     vdW  Elec       q    Type
REMARK                         _______ _______ _______ _____ _____    ______ ____
ROOT
ATOM      1  N   UNL     1      -1.273  -1.303  -1.359  0.00  0.00    -0.215 N 
ATOM      2  C   UNL     1      -0.155  -0.544  -1.395  0.00  0.00    +0.251 C 
ATOM      3  O   UNL     1       0.566  -0.342  -2.348  0.00  0.00    -0.272 OA
ATOM      4  C   UNL     1       0.002  -0.004   0.002  0.00  0.00    +0.138 C 
ATOM      5  C   UNL     1      -0.019   1.530   0.011  0.00  0.00    +0.045 C 
ATOM      6  C   UNL     1       1.487   1.876  -0.002  0.00  0.00    +0.038 C 
ATOM      7  C   UNL     1       2.177   0.676   0.613  0.00  0.00    -0.042 A 
ATOM      8  C   UNL     1       1.317  -0.410   0.610  0.00  0.00    -0.012 A 
ATOM      9  C   UNL     1       1.744  -1.624   1.124  0.00  0.00    +0.006 A 
ATOM     10  C   UNL     1       3.018  -1.753   1.640  0.00  0.00    +0.000 A 
ATOM     11  C   UNL     1       3.874  -0.668   1.644  0.00  0.00    +0.000 A 
ATOM     12  C   UNL     1       3.453   0.543   1.131  0.00  0.00    +0.004 A 
ATOM     13  N   UNL     1      -1.133  -0.558   0.742  0.00  0.00    -0.281 N 
ATOM     14  C   UNL     1      -1.826  -1.307  -0.139  0.00  0.00    +0.310 C 
ATOM     15  O   UNL     1      -2.838  -1.919   0.142  0.00  0.00    -0.252 OA
ATOM     16  H   UNL     1      -1.344  -0.414   1.678  0.00  0.00    +0.152 HD
ENDROOT
BRANCH   1  17
ATOM     17  C   UNL     1      -1.813  -2.029  -2.511  0.00  0.00    +0.213 C 
BRANCH  17  19
ATOM     18  N   UNL     1      -1.570  -4.266  -3.538  0.00  0.00    -0.307 N 
ATOM     19  C   UNL     1      -1.217  -3.413  -2.557  0.00  0.00    +0.231 C 
ATOM     20  O   UNL     1      -0.420  -3.758  -1.710  0.00  0.00    -0.274 OA
ATOM     21  H   UNL     1      -2.207  -3.991  -4.215  0.00  0.00    +0.149 HD
BRANCH  18  23
ATOM     22  C   UNL     1      -1.799  -6.545  -2.679  0.00  0.00    +0.033 C 
ATOM     23  C   UNL     1      -0.990  -5.611  -3.582  0.00  0.00    +0.100 C 
BRANCH  23  24
ATOM     24  C   UNL     1      -1.025  -6.127  -4.998  0.00  0.00    -0.026 A 
ATOM     25  C   UNL     1      -2.131  -5.890  -5.793  0.00  0.00    +0.007 A 
ATOM     26  C   UNL     1      -2.162  -6.357  -7.093  0.00  0.00    +0.022 A 
ATOM     27  C   UNL     1      -1.090  -7.073  -7.596  0.00  0.00    +0.059 A 
ATOM     28  C   UNL     1       0.015  -7.315  -6.798  0.00  0.00    +0.060 A 
ATOM     29  C   UNL     1       0.047  -6.841  -5.499  0.00  0.00    +0.027 A 
ATOM     30 CL   UNL     1       1.361  -8.212  -7.429  0.00  0.00    -0.082 Cl
ATOM     31 CL   UNL     1      -1.131  -7.665  -9.227  0.00  0.00    -0.082 Cl
ENDBRANCH  23  24
ENDBRANCH  18  23
ENDBRANCH  17  19
ENDBRANCH   1  17
TORSDOF 4
