REMARK  Name = ZINC64502857
REMARK  5 active torsions:
REMARK  status: ('A' for Active; 'I' for Inactive)
REMARK    1  A    between atoms: C_1  and  C_2
REMARK    2  A    between atoms: C_5  and  N_9
REMARK    3  A    between atoms: C_7  and  C_8
REMARK    4  A    between atoms: C_14  and  N_17
REMARK    5  A    between atoms: C_24  and  C_26
REMARK                            x       y       z     vdW  Elec       q    Type
REMARK                         _______ _______ _______ _____ _____    ______ ____
ROOT
ATOM      1  N   UNL     1       2.884  -5.152  -0.494  0.00  0.00    -0.281 NA
ATOM      2  C   UNL     1       3.216  -4.021  -1.359  0.00  0.00    +0.088 C 
ATOM      3  C   UNL     1       4.554  -3.452  -0.941  0.00  0.00    +0.034 C 
ATOM      4  C   UNL     1       5.675  -4.114  -1.759  0.00  0.00    +0.109 C 
ATOM      5  N   UNL     1       5.427  -5.558  -1.939  0.00  0.00    -0.298 N 
ATOM      6  C   UNL     1       4.930  -6.402  -0.871  0.00  0.00    +0.123 C 
ATOM      7  C   UNL     1       3.383  -6.414  -0.892  0.00  0.00    +0.105 C 
ATOM      8  C   UNL     1       5.672  -6.113  -3.143  0.00  0.00    +0.242 C 
ATOM      9  O   UNL     1       5.382  -7.272  -3.346  0.00  0.00    -0.273 OA
ENDROOT
BRANCH   8  10
ATOM     10  C   UNL     1       6.306  -5.292  -4.236  0.00  0.00    +0.190 C 
ATOM     11  C   UNL     1       5.274  -4.389  -4.875  0.00  0.00    +0.016 C 
ATOM     12  C   UNL     1       5.216  -4.751  -6.177  0.00  0.00    -0.004 A 
ATOM     13  C   UNL     1       4.419  -4.263  -7.310  0.00  0.00    +0.010 A 
ATOM     14  C   UNL     1       4.584  -4.837  -8.523  0.00  0.00    +0.001 A 
ATOM     15  C   UNL     1       5.494  -5.883  -8.726  0.00  0.00    +0.002 A 
ATOM     16  C   UNL     1       6.261  -6.385  -7.735  0.00  0.00    +0.026 A 
ATOM     17  C   UNL     1       6.170  -5.857  -6.418  0.00  0.00    +0.043 A 
ATOM     18  N   UNL     1       6.796  -6.167  -5.306  0.00  0.00    -0.370 N 
ATOM     19  H   UNL     1       7.469  -6.859  -5.209  0.00  0.00    +0.161 HD
ENDBRANCH   8  10
BRANCH   1  25
ATOM     20  N   UNL     1       1.437  -3.470   1.341  0.00  0.00    -0.200 N 
ATOM     21  C   UNL     1       1.573  -4.339   2.363  0.00  0.00    +0.257 C 
ATOM     22  O   UNL     1       1.966  -3.960   3.449  0.00  0.00    -0.269 OA
ATOM     23  C   UNL     1       1.238  -5.759   2.139  0.00  0.00    +0.068 C 
ATOM     24  C   UNL     1       1.169  -6.191   0.877  0.00  0.00    +0.014 C 
ATOM     25  C   UNL     1       1.439  -5.213  -0.239  0.00  0.00    +0.166 C 
ATOM     26  N   UNL     1       0.951  -3.880   0.136  0.00  0.00    -0.212 NA
ATOM     27  H   UNL     1      -0.057  -3.843   0.121  0.00  0.00    +0.147 HD
BRANCH  20  32
ATOM     28  C   UNL     1       2.879   1.966   2.077  0.00  0.00    +0.044 C 
ATOM     29  C   UNL     1       2.496   0.522   1.882  0.00  0.00    -0.047 A 
ATOM     30  C   UNL     1       1.334   0.202   1.202  0.00  0.00    +0.005 A 
ATOM     31  C   UNL     1       0.981  -1.121   1.021  0.00  0.00    +0.025 A 
ATOM     32  C   UNL     1       1.792  -2.130   1.522  0.00  0.00    +0.053 A 
ATOM     33  C   UNL     1       2.958  -1.806   2.204  0.00  0.00    +0.028 A 
ATOM     34  C   UNL     1       3.308  -0.481   2.377  0.00  0.00    -0.046 A 
ATOM     35  C   UNL     1       4.576  -0.128   3.113  0.00  0.00    +0.044 C 
ENDBRANCH  20  32
ENDBRANCH   1  25
TORSDOF 3
