REMARK  Name = ZINC67481834
REMARK  7 active torsions:
REMARK  status: ('A' for Active; 'I' for Inactive)
REMARK    1  A    between atoms: C_1  and  C_2
REMARK    2  A    between atoms: C_2  and  C_3
REMARK    3  A    between atoms: C_2  and  C_4
REMARK    4  A    between atoms: N_14  and  C_15
REMARK    5  A    between atoms: C_15  and  C_16
REMARK    6  A    between atoms: N_21  and  C_22
REMARK    7  A    between atoms: C_22  and  C_23
REMARK                            x       y       z     vdW  Elec       q    Type
REMARK                         _______ _______ _______ _____ _____    ______ ____
ROOT
ATOM      1  C   UNL     1      -0.559  -2.395   1.172  0.00  0.00    +0.218 C 
ATOM      2  O   UNL     1      -1.124  -2.029   0.164  0.00  0.00    -0.275 OA
ATOM      3  N   UNL     1      -0.979  -1.960   2.376  0.00  0.00    -0.298 N 
ATOM      4  C   UNL     1      -0.232  -2.298   3.596  0.00  0.00    +0.127 C 
ATOM      5  C   UNL     1       0.126  -0.999   4.328  0.00  0.00    +0.128 C 
ATOM      6  N   UNL     1      -1.087  -0.177   4.445  0.00  0.00    -0.283 N 
ATOM      7  C   UNL     1      -1.833   0.162   3.225  0.00  0.00    +0.128 C 
ATOM      8  C   UNL     1      -2.188  -1.133   2.493  0.00  0.00    +0.127 C 
ATOM      9  C   UNL     1      -1.507   0.259   5.649  0.00  0.00    +0.302 C 
ATOM     10  O   UNL     1      -2.457   1.014   5.725  0.00  0.00    -0.253 OA
ATOM     11  N   UNL     1      -0.874  -0.143   6.769  0.00  0.00    -0.301 N 
ATOM     12  H   UNL     1      -0.072  -0.685   6.705  0.00  0.00    +0.150 HD
ENDROOT
BRANCH   1  14
ATOM     13  C   UNL     1       0.512  -4.151  -0.213  0.00  0.00    +0.017 C 
ATOM     14  C   UNL     1       0.614  -3.337   1.078  0.00  0.00    +0.069 C 
ATOM     15  C   UNL     1       1.915  -2.533   1.073  0.00  0.00    +0.017 C 
ENDBRANCH   1  14
BRANCH  11  16
ATOM     16  C   UNL     1      -1.397   0.239   8.083  0.00  0.00    +0.090 C 
BRANCH  16  17
ATOM     17  C   UNL     1      -0.499  -0.341   9.178  0.00  0.00    -0.051 C 
ATOM     18  C   UNL     1      -0.941   0.193  10.557  0.00  0.00    -0.016 C 
ATOM     19  C   UNL     1       0.406   0.413  11.294  0.00  0.00    -0.020 C 
ATOM     20  C   UNL     1       1.321   0.888  10.139  0.00  0.00    -0.078 C 
ATOM     21  N   UNL     1       0.894   0.090   8.965  0.00  0.00    +0.383 N 
ATOM     22  H   UNL     1       0.951   0.654   8.131  0.00  0.00    -0.081 HD
BRANCH  21  23
ATOM     23  C   UNL     1       1.760  -1.088   8.823  0.00  0.00    -0.075 C 
BRANCH  23  24
ATOM     24  C   UNL     1       3.181  -0.638   8.479  0.00  0.00    -0.028 C 
ATOM     25  C   UNL     1       3.184   0.034   7.104  0.00  0.00    +0.002 C 
ATOM     26  C   UNL     1       4.606   0.484   6.760  0.00  0.00    +0.000 C 
ATOM     27  C   UNL     1       5.534  -0.732   6.735  0.00  0.00    +0.000 C 
ATOM     28  C   UNL     1       5.530  -1.405   8.109  0.00  0.00    +0.000 C 
ATOM     29  C   UNL     1       4.109  -1.855   8.453  0.00  0.00    +0.002 C 
ENDBRANCH  23  24
ENDBRANCH  21  23
ENDBRANCH  16  17
ENDBRANCH  11  16
TORSDOF 5
