REMARK  Name = ZINC57136559
REMARK  7 active torsions:
REMARK  status: ('A' for Active; 'I' for Inactive)
REMARK    1  A    between atoms: C_1  and  O_2
REMARK    2  A    between atoms: O_2  and  C_3
REMARK    3  A    between atoms: C_6  and  O_25
REMARK    4  A    between atoms: N_10  and  C_15
REMARK    5  A    between atoms: C_12  and  O_14
REMARK    6  A    between atoms: C_20  and  N_21
REMARK    7  A    between atoms: O_25  and  C_26
REMARK                            x       y       z     vdW  Elec       q    Type
REMARK                         _______ _______ _______ _____ _____    ______ ____
ROOT
ATOM      1  C   UNL     1       0.626  -0.619   1.042  0.00  0.00    +0.125 A 
ATOM      2  C   UNL     1       1.199   0.143   2.046  0.00  0.00    +0.049 A 
ATOM      3  C   UNL     1       1.835  -0.482   3.102  0.00  0.00    +0.049 A 
ATOM      4  C   UNL     1       1.899  -1.864   3.146  0.00  0.00    +0.126 A 
ATOM      5  C   UNL     1       1.325  -2.633   2.135  0.00  0.00    +0.032 A 
ATOM      6  C   UNL     1       0.679  -2.009   1.092  0.00  0.00    +0.021 A 
ATOM      7  C   UNL     1       0.006  -2.779  -0.017  0.00  0.00    +0.144 C 
ATOM      8  N   UNL     1       0.388  -4.193   0.061  0.00  0.00    -0.321 N 
ATOM      9  C   UNL     1       0.378  -4.824   1.391  0.00  0.00    +0.141 C 
ATOM     10  C   UNL     1       1.447  -4.130   2.242  0.00  0.00    +0.166 C 
ENDROOT
BRANCH   8  11
ATOM     11  C   UNL     1       0.747  -4.913  -1.081  0.00  0.00    +0.064 A 
ATOM     12  C   UNL     1       2.074  -4.957  -1.488  0.00  0.00    +0.025 A 
ATOM     13  C   UNL     1       2.427  -5.669  -2.617  0.00  0.00    +0.005 A 
ATOM     14  C   UNL     1       1.460  -6.338  -3.345  0.00  0.00    +0.041 A 
ATOM     15  C   UNL     1       0.135  -6.297  -2.943  0.00  0.00    +0.155 A 
ATOM     16  C   UNL     1      -0.223  -5.590  -1.809  0.00  0.00    +0.182 A 
ATOM     17  F   UNL     1      -0.807  -6.952  -3.656  0.00  0.00    -0.203 F 
BRANCH  16  18
ATOM     18  N   UNL     1      -1.638  -5.550  -1.376  0.00  0.00    +0.061 N 
ATOM     19  O   UNL     1      -2.371  -4.681  -1.786  0.00  0.00    -0.126 OA
ATOM     20  O   UNL     1      -2.060  -6.387  -0.613  0.00  0.00    -0.126 OA
ENDBRANCH  16  18
ENDBRANCH   8  11
BRANCH   1  22
ATOM     21  C   UNL     1      -0.017   1.425   0.010  0.00  0.00    +0.277 C 
ATOM     22  O   UNL     1       0.002  -0.004   0.002  0.00  0.00    -0.495 OA
ENDBRANCH   1  22
BRANCH  10  23
ATOM     23  O   UNL     1       1.272  -4.520   3.605  0.00  0.00    -0.385 OA
ATOM     24  H   UNL     1       1.338  -5.473   3.753  0.00  0.00    +0.210 HD
ENDBRANCH  10  23
BRANCH   4  25
ATOM     25  O   UNL     1       2.527  -2.477   4.184  0.00  0.00    -0.495 OA
ATOM     26  C   UNL     1       3.095  -1.633   5.188  0.00  0.00    +0.277 C 
ENDBRANCH   4  25
TORSDOF 5
