REMARK  Name = ZINC39442482
REMARK  7 active torsions:
REMARK  status: ('A' for Active; 'I' for Inactive)
REMARK    1  A    between atoms: C_1  and  C_2
REMARK    2  A    between atoms: C_2  and  C_4
REMARK    3  A    between atoms: C_7  and  C_9
REMARK    4  A    between atoms: C_20  and  C_23
REMARK    5  A    between atoms: C_23  and  N_24
REMARK    6  A    between atoms: C_25  and  C_27
REMARK    7  A    between atoms: N_32  and  C_34
REMARK                            x       y       z     vdW  Elec       q    Type
REMARK                         _______ _______ _______ _____ _____    ______ ____
ROOT
ATOM      1  C   UNL     1      -0.019  -1.842  -5.225  0.00  0.00    -0.011 A 
ATOM      2  C   UNL     1      -0.016  -3.160  -5.717  0.00  0.00    +0.009 A 
ATOM      3  C   UNL     1      -0.026  -3.405  -7.051  0.00  0.00    +0.009 A 
ATOM      4  C   UNL     1      -0.038  -2.334  -7.965  0.00  0.00    -0.011 A 
ATOM      5  C   UNL     1      -0.037  -1.000  -7.480  0.00  0.00    -0.017 A 
ATOM      6  C   UNL     1      -0.035  -0.766  -6.098  0.00  0.00    +0.017 A 
ATOM      7  C   UNL     1      -0.044   0.065  -8.399  0.00  0.00    +0.012 A 
ATOM      8  C   UNL     1      -0.047  -0.186  -9.733  0.00  0.00    +0.046 A 
ATOM      9  C   UNL     1      -0.050  -1.501 -10.229  0.00  0.00    +0.125 A 
ATOM     10  C   UNL     1      -0.053  -2.559  -9.346  0.00  0.00    +0.006 A 
ATOM     11  C   UNL     1      -0.085  -3.833 -10.168  0.00  0.00    +0.085 C 
ATOM     12  C   UNL     1      -0.492  -3.301 -11.563  0.00  0.00    +0.195 C 
ATOM     13  O   UNL     1      -0.044  -1.936 -11.521  0.00  0.00    -0.487 OA
ENDROOT
BRANCH   1  17
ATOM     14  C   UNL     1       0.000  -0.703  -1.223  0.00  0.00    +0.055 A 
ATOM     15  C   UNL     1       0.011  -2.077  -1.447  0.00  0.00    +0.019 A 
ATOM     16  C   UNL     1       0.006  -2.530  -2.733  0.00  0.00    +0.017 A 
ATOM     17  C   UNL     1      -0.010  -1.604  -3.768  0.00  0.00    +0.020 A 
ATOM     18  S   UNL     1      -0.025  -0.052  -2.885  0.00  0.00    -0.085 S 
BRANCH  14  20
ATOM     19  C   UNL     1      -0.018   1.503   0.010  0.00  0.00    +0.092 C 
ATOM     20  C   UNL     1       0.002  -0.004   0.002  0.00  0.00    +0.167 C 
ATOM     21  O   UNL     1       0.020  -0.617   1.051  0.00  0.00    -0.292 OA
ENDBRANCH  14  20
ENDBRANCH   1  17
BRANCH  12  22
ATOM     22  C   UNL     1       0.223  -4.078 -12.670  0.00  0.00    +0.149 C 
BRANCH  22  23
ATOM     23  N   UNL     1      -0.183  -3.551 -13.976  0.00  0.00    -0.312 N 
ATOM     24  C   UNL     1       0.323  -4.086 -15.105  0.00  0.00    +0.214 C 
ATOM     25  O   UNL     1       1.115  -5.003 -15.040  0.00  0.00    -0.276 OA
ATOM     26  H   UNL     1      -0.816  -2.818 -14.028  0.00  0.00    +0.149 HD
BRANCH  24  27
ATOM     27  C   UNL     1      -0.094  -3.545 -16.448  0.00  0.00    +0.058 C 
ATOM     28  C   UNL     1       0.283  -2.064 -16.542  0.00  0.00    +0.009 C 
ATOM     29  C   UNL     1      -0.074  -1.544 -17.937  0.00  0.00    -0.018 C 
ATOM     30  C   UNL     1       0.643  -2.392 -18.990  0.00  0.00    -0.079 C 
ATOM     31  N   UNL     1       0.220  -3.792 -18.865  0.00  0.00    +0.378 N 
ATOM     32  C   UNL     1       0.622  -4.320 -17.556  0.00  0.00    -0.067 C 
ATOM     33  C   UNL     1       0.851  -4.589 -19.927  0.00  0.00    -0.096 C 
ATOM     34  H   UNL     1      -0.783  -3.849 -18.956  0.00  0.00    -0.082 HD
ENDBRANCH  24  27
ENDBRANCH  22  23
ENDBRANCH  12  22
TORSDOF 5
