REMARK  Name = ZINC39513682
REMARK  7 active torsions:
REMARK  status: ('A' for Active; 'I' for Inactive)
REMARK    1  A    between atoms: C_4  and  C_7
REMARK    2  A    between atoms: C_7  and  N_8
REMARK    3  A    between atoms: C_12  and  C_30
REMARK    4  A    between atoms: C_17  and  S_20
REMARK    5  A    between atoms: S_20  and  O_23
REMARK    6  A    between atoms: O_23  and  C_24
REMARK    7  A    between atoms: C_35  and  O_36
REMARK                            x       y       z     vdW  Elec       q    Type
REMARK                         _______ _______ _______ _____ _____    ______ ____
ROOT
ATOM      1  N   UNL     1       4.254  -0.780   1.343  0.00  0.00    +0.387 N 
ATOM      2  C   UNL     1       3.197  -1.650   1.872  0.00  0.00    -0.078 C 
ATOM      3  C   UNL     1       3.519  -2.026   3.320  0.00  0.00    -0.018 C 
ATOM      4  C   UNL     1       4.855  -2.773   3.363  0.00  0.00    +0.005 C 
ATOM      5  C   UNL     1       5.942  -1.888   2.745  0.00  0.00    +0.012 C 
ATOM      6  C   UNL     1       5.530  -1.498   1.327  0.00  0.00    -0.056 C 
ATOM      7  C   UNL     1       5.417  -2.754   0.450  0.00  0.00    -0.009 C 
ATOM      8  C   UNL     1       6.446  -2.590  -0.688  0.00  0.00    +0.028 C 
ATOM      9  C   UNL     1       6.662  -1.059  -0.787  0.00  0.00    +0.170 C 
ATOM     10  C   UNL     1       6.620  -0.611   0.696  0.00  0.00    +0.018 C 
ATOM     11  H   UNL     1       4.337   0.038   1.927  0.00  0.00    -0.081 HD
ENDROOT
BRANCH   5  12
ATOM     12  C   UNL     1       7.244  -2.647   2.700  0.00  0.00    -0.004 A 
ATOM     13  C   UNL     1       7.992  -2.668   1.539  0.00  0.00    +0.007 A 
ATOM     14  C   UNL     1       9.186  -3.364   1.498  0.00  0.00    +0.000 A 
ATOM     15  C   UNL     1       9.634  -4.041   2.618  0.00  0.00    +0.004 A 
ATOM     16  C   UNL     1       8.889  -4.022   3.781  0.00  0.00    +0.046 A 
ATOM     17  C   UNL     1       7.694  -3.320   3.827  0.00  0.00    +0.120 A 
BRANCH  17  18
ATOM     18  O   UNL     1       6.962  -3.295   4.972  0.00  0.00    -0.506 OA
ATOM     19  H   UNL     1       6.318  -4.013   5.043  0.00  0.00    +0.292 HD
ENDBRANCH  17  18
ENDBRANCH   5  12
BRANCH   9  20
ATOM     20  S   UNL     1       8.272  -0.683  -1.532  0.00  0.00    +0.123 S 
ATOM     21  O   UNL     1       8.397   0.715  -1.750  0.00  0.00    -0.136 OA
ATOM     22  O   UNL     1       9.299  -1.407  -0.868  0.00  0.00    -0.136 OA
BRANCH  20  23
ATOM     23  O   UNL     1       8.209  -1.290  -2.926  0.00  0.00    -0.346 OA
BRANCH  23  24
ATOM     24  C   UNL     1       7.449  -0.582  -3.803  0.00  0.00    +0.156 A 
ATOM     25  C   UNL     1       6.094  -0.854  -3.926  0.00  0.00    +0.048 A 
ATOM     26  C   UNL     1       5.324  -0.133  -4.817  0.00  0.00    +0.004 A 
ATOM     27  C   UNL     1       5.902   0.860  -5.587  0.00  0.00    +0.000 A 
ATOM     28  C   UNL     1       7.252   1.133  -5.466  0.00  0.00    +0.004 A 
ATOM     29  C   UNL     1       8.025   0.419  -4.572  0.00  0.00    +0.048 A 
ENDBRANCH  23  24
ENDBRANCH  20  23
ENDBRANCH   9  20
BRANCH   1  30
ATOM     30  C   UNL     1       3.909  -0.369  -0.025  0.00  0.00    -0.042 C 
BRANCH  30  34
ATOM     31  C   UNL     1       0.325   1.954   0.046  0.00  0.00    +0.000 A 
ATOM     32  C   UNL     1       1.554   2.575   0.171  0.00  0.00    +0.000 A 
ATOM     33  C   UNL     1       2.713   1.823   0.148  0.00  0.00    +0.002 A 
ATOM     34  C   UNL     1       2.644   0.450   0.001  0.00  0.00    -0.064 A 
ATOM     35  C   UNL     1       1.415  -0.171  -0.123  0.00  0.00    +0.002 A 
ATOM     36  C   UNL     1       0.256   0.581  -0.102  0.00  0.00    +0.000 A 
ENDBRANCH  30  34
ENDBRANCH   1  30
TORSDOF 7
