REMARK  Name = ZINC39665406
REMARK  12 active torsions:
REMARK  status: ('A' for Active; 'I' for Inactive)
REMARK    1  A    between atoms: C_1  and  C_2
REMARK    2  A    between atoms: C_2  and  C_4
REMARK    3  A    between atoms: C_2  and  O_33
REMARK    4  A    between atoms: C_4  and  N_5
REMARK    5  A    between atoms: C_6  and  C_8
REMARK    6  A    between atoms: C_19  and  C_21
REMARK    7  A    between atoms: C_21  and  C_23
REMARK    8  A    between atoms: C_21  and  O_26
REMARK    9  A    between atoms: C_23  and  C_24
REMARK   10  A    between atoms: C_23  and  C_25
REMARK   11  A    between atoms: O_26  and  C_27
REMARK   12  A    between atoms: O_33  and  C_34
REMARK                            x       y       z     vdW  Elec       q    Type
REMARK                         _______ _______ _______ _____ _____    ______ ____
ROOT
ATOM      1  C   UNL     1      -2.091  -2.701  -0.530  0.00  0.00    +0.100 C 
ATOM      2  C   UNL     1      -1.575  -3.034   0.887  0.00  0.00    +0.121 C 
ATOM      3  N   UNL     1      -2.786  -3.434   1.643  0.00  0.00    -0.297 N 
ATOM      4  C   UNL     1      -3.579  -4.229   0.674  0.00  0.00    +0.115 C 
ATOM      5  C   UNL     1      -3.405  -3.490  -0.668  0.00  0.00    -0.004 C 
ATOM      6  C   UNL     1      -4.572  -2.536  -0.899  0.00  0.00    -0.010 C 
ATOM      7  C   UNL     1      -5.858  -3.346  -1.089  0.00  0.00    -0.082 C 
ATOM      8  N   UNL     1      -5.703  -4.250  -2.236  0.00  0.00    +0.379 N 
ATOM      9  C   UNL     1      -4.639  -5.224  -1.967  0.00  0.00    -0.082 C 
ATOM     10  C   UNL     1      -3.302  -4.492  -1.813  0.00  0.00    -0.010 C 
ATOM     11  C   UNL     1      -3.097  -3.141   2.921  0.00  0.00    +0.257 C 
ATOM     12  O   UNL     1      -4.135  -3.546   3.401  0.00  0.00    -0.272 OA
ATOM     13  H   UNL     1      -6.572  -4.738  -2.397  0.00  0.00    -0.086 HD
ATOM     14  H   UNL     1      -5.466  -3.712  -3.056  0.00  0.00    -0.086 HD
ENDROOT
BRANCH   1  16
ATOM     15  N   UNL     1      -2.334  -0.640  -1.875  0.00  0.00    -0.312 N 
ATOM     16  C   UNL     1      -2.352  -1.223  -0.660  0.00  0.00    +0.218 C 
ATOM     17  O   UNL     1      -2.576  -0.557   0.328  0.00  0.00    -0.275 OA
ATOM     18  H   UNL     1      -2.154  -1.172  -2.666  0.00  0.00    +0.149 HD
BRANCH  15  19
ATOM     19  C   UNL     1      -2.587   0.798  -2.002  0.00  0.00    +0.148 C 
BRANCH  19  21
ATOM     20  C   UNL     1      -2.773   2.703  -3.608  0.00  0.00    +0.053 C 
ATOM     21  C   UNL     1      -2.509   1.202  -3.476  0.00  0.00    +0.187 C 
BRANCH  21  22
ATOM     22  O   UNL     1      -1.209   0.900  -3.985  0.00  0.00    -0.488 OA
BRANCH  22  23
ATOM     23  C   UNL     1      -1.103   0.690  -5.323  0.00  0.00    +0.121 A 
ATOM     24  C   UNL     1       0.107   0.288  -5.870  0.00  0.00    +0.045 A 
ATOM     25  C   UNL     1       0.211   0.074  -7.231  0.00  0.00    +0.004 A 
ATOM     26  C   UNL     1      -0.889   0.261  -8.048  0.00  0.00    +0.000 A 
ATOM     27  C   UNL     1      -2.096   0.661  -7.505  0.00  0.00    +0.004 A 
ATOM     28  C   UNL     1      -2.207   0.870  -6.144  0.00  0.00    +0.045 A 
ENDBRANCH  22  23
ENDBRANCH  21  22
ENDBRANCH  19  21
ENDBRANCH  15  19
ENDBRANCH   1  16
BRANCH  11  29
ATOM     29  C   UNL     1      -2.154  -2.312   3.754  0.00  0.00    +0.261 C 
BRANCH  29  30
ATOM     30  C   UNL     1      -0.846  -3.078   3.960  0.00  0.00    +0.033 C 
ATOM     31  C   UNL     1       0.111  -2.235   4.806  0.00  0.00    +0.011 C 
ATOM     32  C   UNL     1      -1.135  -4.397   4.678  0.00  0.00    +0.011 C 
ENDBRANCH  29  30
BRANCH  29  33
ATOM     33  O   UNL     1      -2.753  -2.042   5.024  0.00  0.00    -0.479 OA
BRANCH  33  34
ATOM     34  C   UNL     1      -2.559  -0.802   5.546  0.00  0.00    +0.122 A 
ATOM     35  C   UNL     1      -1.725   0.101   4.902  0.00  0.00    +0.045 A 
ATOM     36  C   UNL     1      -1.530   1.360   5.435  0.00  0.00    +0.004 A 
ATOM     37  C   UNL     1      -2.164   1.721   6.609  0.00  0.00    +0.000 A 
ATOM     38  C   UNL     1      -2.995   0.823   7.253  0.00  0.00    +0.004 A 
ATOM     39  C   UNL     1      -3.198  -0.436   6.721  0.00  0.00    +0.045 A 
ENDBRANCH  33  34
ENDBRANCH  29  33
ENDBRANCH  11  29
TORSDOF 9
