REMARK  Name = ZINC11787346
REMARK  13 active torsions:
REMARK  status: ('A' for Active; 'I' for Inactive)
REMARK    1  A    between atoms: C_1  and  C_2
REMARK    2  A    between atoms: C_2  and  O_3
REMARK    3  A    between atoms: O_3  and  C_4
REMARK    4  A    between atoms: C_9  and  C_10
REMARK    5  A    between atoms: C_10  and  N_64
REMARK    6  A    between atoms: C_12  and  N_28
REMARK    7  A    between atoms: C_15  and  C_17
REMARK    8  A    between atoms: N_19  and  C_20
REMARK    9  A    between atoms: C_24  and  S_26
REMARK   10  A    between atoms: S_26  and  C_27
REMARK   11  A    between atoms: C_30  and  C_33
REMARK   12  A    between atoms: C_33  and  O_35
REMARK   13  A    between atoms: O_35  and  C_36
REMARK                            x       y       z     vdW  Elec       q    Type
REMARK                         _______ _______ _______ _____ _____    ______ ____
ROOT
ATOM      1  C   UNL     1       2.825  -2.418   1.362  0.00  0.00    -0.050 C 
ATOM      2  C   UNL     1       3.047  -3.244   2.647  0.00  0.00    +0.091 C 
ATOM      3  C   UNL     1       2.007  -4.381   2.577  0.00  0.00    +0.019 C 
ATOM      4  C   UNL     1       1.244  -4.147   1.255  0.00  0.00    +0.022 C 
ATOM      5  N   UNL     1       1.437  -2.722   0.996  0.00  0.00    +0.391 N 
ATOM      6  H   UNL     1       0.792  -2.170   1.574  0.00  0.00    -0.080 HD
ENDROOT
BRANCH   2   7
ATOM      7  N   UNL     1       2.815  -2.415   3.832  0.00  0.00    -0.250 N 
ATOM      8  C   UNL     1       1.958  -1.379   3.932  0.00  0.00    +0.145 A 
ATOM      9  C   UNL     1       2.065  -0.898   5.207  0.00  0.00    +0.189 A 
ATOM     10  N   UNL     1       2.976  -1.637   5.864  0.00  0.00    -0.123 NA
ATOM     11  N   UNL     1       3.437  -2.549   5.081  0.00  0.00    -0.065 NA
BRANCH   9  12
ATOM     12  C   UNL     1       1.310   0.237   5.766  0.00  0.00    +0.361 C 
ATOM     13  O   UNL     1       0.508   0.833   5.075  0.00  0.00    -0.243 OA
BRANCH  12  14
ATOM     14  O   UNL     1       1.509   0.614   7.045  0.00  0.00    -0.463 OA
ATOM     15  C   UNL     1       0.730   1.740   7.529  0.00  0.00    +0.280 C 
ENDBRANCH  12  14
ENDBRANCH   9  12
ENDBRANCH   2   7
BRANCH   4  16
ATOM     16  C   UNL     1      -0.216  -4.478   1.426  0.00  0.00    +0.204 C 
ATOM     17  O   UNL     1      -1.051  -3.604   1.327  0.00  0.00    -0.277 OA
ATOM     18  N   UNL     1      -0.594  -5.745   1.688  0.00  0.00    -0.287 N 
ATOM     19  H   UNL     1       0.065  -6.456   1.691  0.00  0.00    +0.155 HD
BRANCH  18  20
ATOM     20  C   UNL     1      -1.936  -6.033   1.955  0.00  0.00    +0.034 A 
ATOM     21  C   UNL     1      -2.480  -7.247   1.553  0.00  0.00    +0.023 A 
ATOM     22  C   UNL     1      -3.805  -7.535   1.821  0.00  0.00    +0.003 A 
ATOM     23  C   UNL     1      -4.596  -6.614   2.479  0.00  0.00    +0.015 A 
ATOM     24  C   UNL     1      -4.060  -5.395   2.880  0.00  0.00    +0.009 A 
ATOM     25  C   UNL     1      -2.727  -5.105   2.617  0.00  0.00    +0.038 A 
BRANCH  24  26
ATOM     26  S   UNL     1      -5.069  -4.221   3.720  0.00  0.00    -0.129 S 
ATOM     27  C   UNL     1      -6.688  -5.032   3.829  0.00  0.00    +0.090 C 
ENDBRANCH  24  26
ENDBRANCH  18  20
ENDBRANCH   4  16
BRANCH   5  28
ATOM     28  C   UNL     1       1.195  -2.407  -0.447  0.00  0.00    -0.038 C 
BRANCH  28  34
ATOM     29  C   UNL     1       2.309  -0.177  -0.720  0.00  0.00    +0.122 A 
ATOM     30  C   UNL     1       2.251   1.197  -0.908  0.00  0.00    +0.046 A 
ATOM     31  C   UNL     1       1.027   1.826  -1.027  0.00  0.00    +0.004 A 
ATOM     32  C   UNL     1      -0.141   1.087  -0.958  0.00  0.00    +0.000 A 
ATOM     33  C   UNL     1      -0.086  -0.281  -0.770  0.00  0.00    +0.005 A 
ATOM     34  C   UNL     1       1.136  -0.915  -0.651  0.00  0.00    -0.022 A 
BRANCH  29  35
ATOM     35  O   UNL     1       3.512  -0.798  -0.604  0.00  0.00    -0.492 OA
BRANCH  35  37
ATOM     36  C   UNL     1       5.927  -0.844  -0.533  0.00  0.00    +0.048 C 
ATOM     37  C   UNL     1       4.677   0.025  -0.685  0.00  0.00    +0.225 C 
ENDBRANCH  35  37
ENDBRANCH  29  35
ENDBRANCH  28  34
ENDBRANCH   5  28
TORSDOF 10
