REMARK  Name = ZINC15619490
REMARK  8 active torsions:
REMARK  status: ('A' for Active; 'I' for Inactive)
REMARK    1  A    between atoms: C_1  and  C_2
REMARK    2  A    between atoms: C_7  and  N_8
REMARK    3  A    between atoms: C_9  and  C_11
REMARK    4  A    between atoms: C_11  and  N_12
REMARK    5  A    between atoms: C_13  and  C_15
REMARK    6  A    between atoms: C_15  and  C_16
REMARK    7  A    between atoms: C_16  and  C_17
REMARK    8  A    between atoms: C_17  and  C_18
REMARK                            x       y       z     vdW  Elec       q    Type
REMARK                         _______ _______ _______ _____ _____    ______ ____
ROOT
ATOM      1  N   UNL     1       2.407   1.044  -0.032  0.00  0.00    -0.307 N 
ATOM      2  C   UNL     1       3.671   1.511  -0.051  0.00  0.00    +0.213 C 
ATOM      3  O   UNL     1       3.876   2.706  -0.055  0.00  0.00    -0.276 OA
ATOM      4  H   UNL     1       2.243   0.088  -0.029  0.00  0.00    +0.149 HD
ENDROOT
BRANCH   1   5
ATOM      5  C   UNL     1       1.280   1.980  -0.015  0.00  0.00    +0.200 C 
BRANCH   5   7
ATOM      6  N   UNL     1      -1.191   1.867   0.018  0.00  0.00    -0.284 N 
ATOM      7  C   UNL     1      -0.014   1.209   0.005  0.00  0.00    +0.234 C 
ATOM      8  O   UNL     1       0.003  -0.004   0.005  0.00  0.00    -0.274 OA
ATOM      9  H   UNL     1      -1.205   2.833   0.099  0.00  0.00    +0.155 HD
BRANCH   6  16
ATOM     10  C   UNL     1      -3.546   3.040   1.100  0.00  0.00    +0.046 C 
ATOM     11  C   UNL     1      -3.564   1.691   0.428  0.00  0.00    -0.028 A 
ATOM     12  C   UNL     1      -4.749   0.989   0.320  0.00  0.00    +0.020 A 
ATOM     13  C   UNL     1      -4.765  -0.252  -0.291  0.00  0.00    +0.018 A 
ATOM     14  C   UNL     1      -3.597  -0.791  -0.800  0.00  0.00    +0.017 A 
ATOM     15  C   UNL     1      -2.411  -0.091  -0.699  0.00  0.00    +0.024 A 
ATOM     16  C   UNL     1      -2.391   1.155  -0.086  0.00  0.00    +0.036 A 
ATOM     17 BR   UNL     1      -6.387  -1.214  -0.431  0.00  0.00    -0.050 Br
ENDBRANCH   6  16
ENDBRANCH   5   7
ENDBRANCH   1   5
BRANCH   2  18
ATOM     18  C   UNL     1       4.830   0.547  -0.069  0.00  0.00    +0.096 C 
BRANCH  18  19
ATOM     19  C   UNL     1       6.144   1.331  -0.089  0.00  0.00    +0.014 C 
BRANCH  19  20
ATOM     20  C   UNL     1       7.320   0.352  -0.107  0.00  0.00    +0.038 C 
BRANCH  20  21
ATOM     21  C   UNL     1       8.614   1.124  -0.127  0.00  0.00    -0.022 A 
ATOM     22  C   UNL     1       9.335   1.447  -1.213  0.00  0.00    +0.087 A 
ATOM     23  N   UNL     1      10.448   2.151  -0.842  0.00  0.00    -0.360 N 
ATOM     24  H   UNL     1      11.119   2.494  -1.452  0.00  0.00    +0.165 HD
ATOM     25  C   UNL     1      10.476   2.296   0.527  0.00  0.00    +0.047 A 
ATOM     26  C   UNL     1       9.329   1.658   1.035  0.00  0.00    +0.003 A 
ATOM     27  C   UNL     1       9.090   1.645   2.410  0.00  0.00    +0.010 A 
ATOM     28  C   UNL     1       9.974   2.252   3.258  0.00  0.00    +0.001 A 
ATOM     29  C   UNL     1      11.107   2.882   2.762  0.00  0.00    +0.002 A 
ATOM     30  C   UNL     1      11.362   2.907   1.408  0.00  0.00    +0.026 A 
ENDBRANCH  20  21
ENDBRANCH  19  20
ENDBRANCH  18  19
ENDBRANCH   2  18
TORSDOF 7
