REMARK  Name = ZINC12512052
REMARK  8 active torsions:
REMARK  status: ('A' for Active; 'I' for Inactive)
REMARK    1  A    between atoms: C_1  and  C_2
REMARK    2  A    between atoms: C_2  and  C_4
REMARK    3  A    between atoms: C_2  and  S_20
REMARK    4  A    between atoms: N_9  and  C_10
REMARK    5  A    between atoms: S_20  and  C_21
REMARK    6  A    between atoms: N_25  and  C_26
REMARK    7  A    between atoms: C_31  and  O_32
REMARK    8  A    between atoms: O_32  and  C_33
REMARK                            x       y       z     vdW  Elec       q    Type
REMARK                         _______ _______ _______ _____ _____    ______ ____
ROOT
ATOM      1  C   UNL     1      -3.938   0.347  -4.495  0.00  0.00    +0.233 C 
ATOM      2  O   UNL     1      -3.003   0.788  -5.127  0.00  0.00    -0.274 OA
ATOM      3  N   UNL     1      -5.197   0.519  -4.946  0.00  0.00    -0.239 N 
ATOM      4  C   UNL     1      -5.415   1.182  -6.099  0.00  0.00    +0.306 C 
ATOM      5  O   UNL     1      -4.477   1.625  -6.732  0.00  0.00    -0.252 OA
ATOM      6  N   UNL     1      -6.673   1.355  -6.550  0.00  0.00    -0.294 N 
ATOM      7  H   UNL     1      -5.946   0.166  -4.440  0.00  0.00    +0.159 HD
ATOM      8  H   UNL     1      -7.422   1.002  -6.044  0.00  0.00    +0.151 HD
ENDROOT
BRANCH   6   9
ATOM      9  C   UNL     1      -6.911   2.075  -7.803  0.00  0.00    +0.037 C 
ATOM     10  C   UNL     1      -6.362   3.499  -7.684  0.00  0.00    +0.029 C 
ATOM     11  C   UNL     1      -6.610   4.251  -8.993  0.00  0.00    -0.008 C 
ATOM     12  C   UNL     1      -8.113   4.306  -9.274  0.00  0.00    +0.007 C 
ATOM     13  C   UNL     1      -8.661   2.882  -9.392  0.00  0.00    -0.008 C 
ATOM     14  C   UNL     1      -8.414   2.130  -8.083  0.00  0.00    +0.029 C 
ATOM     15  C   UNL     1      -7.954   2.157 -10.539  0.00  0.00    +0.007 C 
ATOM     16  C   UNL     1      -6.451   2.103 -10.258  0.00  0.00    -0.008 C 
ATOM     17  C   UNL     1      -5.903   3.526 -10.140  0.00  0.00    +0.007 C 
ATOM     18  C   UNL     1      -6.204   1.350  -8.950  0.00  0.00    +0.029 C 
ENDBRANCH   6   9
BRANCH   1  20
ATOM     19  C   UNL     1      -3.644  -1.898  -3.484  0.00  0.00    +0.029 C 
ATOM     20  C   UNL     1      -3.695  -0.395  -3.206  0.00  0.00    +0.137 C 
BRANCH  20  21
ATOM     21  S   UNL     1      -2.120   0.140  -2.492  0.00  0.00    -0.073 S 
BRANCH  21  22
ATOM     22  C   UNL     1      -2.160  -0.743  -0.968  0.00  0.00    +0.197 A 
ATOM     23  N   UNL     1      -3.114  -1.547  -0.555  0.00  0.00    -0.122 NA
ATOM     24  N   UNL     1      -2.820  -2.016   0.605  0.00  0.00    -0.137 NA
ATOM     25  C   UNL     1      -1.668  -1.550   0.998  0.00  0.00    +0.230 A 
ATOM     26  N   UNL     1      -1.203  -0.724   0.009  0.00  0.00    -0.273 N 
BRANCH  26  27
ATOM     27  C   UNL     1       0.002  -0.004   0.002  0.00  0.00    +0.091 A 
ATOM     28  C   UNL     1       1.214  -0.677  -0.013  0.00  0.00    +0.030 A 
ATOM     29  C   UNL     1       2.399   0.033  -0.021  0.00  0.00    +0.002 A 
ATOM     30  C   UNL     1       2.380   1.416  -0.013  0.00  0.00    +0.004 A 
ATOM     31  C   UNL     1       1.176   2.094   0.002  0.00  0.00    +0.048 A 
ATOM     32  C   UNL     1      -0.017   1.388   0.010  0.00  0.00    +0.144 A 
BRANCH  32  33
ATOM     33  O   UNL     1      -1.202   2.054   0.019  0.00  0.00    -0.493 OA
ATOM     34  C   UNL     1      -1.145   3.482   0.026  0.00  0.00    +0.277 C 
ENDBRANCH  32  33
ENDBRANCH  26  27
ENDBRANCH  21  22
ENDBRANCH  20  21
ENDBRANCH   1  20
TORSDOF 6
