REMARK  Name = ZINC62824874
REMARK  8 active torsions:
REMARK  status: ('A' for Active; 'I' for Inactive)
REMARK    1  A    between atoms: C_1  and  C_2
REMARK    2  A    between atoms: C_2  and  C_4
REMARK    3  A    between atoms: C_2  and  N_19
REMARK    4  A    between atoms: C_4  and  N_5
REMARK    5  A    between atoms: N_8  and  C_9
REMARK    6  A    between atoms: C_14  and  C_15
REMARK    7  A    between atoms: N_19  and  C_20
REMARK    8  A    between atoms: N_19  and  C_21
REMARK                            x       y       z     vdW  Elec       q    Type
REMARK                         _______ _______ _______ _____ _____    ______ ____
ROOT
ATOM      1  N   UNL     1      -1.640  -2.087  -0.689  0.00  0.00    -0.301 N 
ATOM      2  C   UNL     1      -2.822  -2.624  -1.052  0.00  0.00    +0.304 C 
ATOM      3  O   UNL     1      -3.811  -1.921  -1.127  0.00  0.00    -0.253 OA
ATOM      4  N   UNL     1      -2.907  -3.939  -1.333  0.00  0.00    -0.269 N 
ATOM      5  H   UNL     1      -0.851  -2.648  -0.629  0.00  0.00    +0.150 HD
ATOM      6  H   UNL     1      -2.105  -4.486  -1.342  0.00  0.00    +0.156 HD
ENDROOT
BRANCH   4   7
ATOM      7  C   UNL     1      -4.144  -4.513  -1.609  0.00  0.00    +0.049 A 
ATOM      8  C   UNL     1      -5.104  -3.798  -2.312  0.00  0.00    +0.025 A 
ATOM      9  C   UNL     1      -6.330  -4.369  -2.586  0.00  0.00    +0.016 A 
ATOM     10  C   UNL     1      -6.614  -5.658  -2.163  0.00  0.00    +0.014 A 
ATOM     11  C   UNL     1      -5.675  -6.385  -1.464  0.00  0.00    +0.031 A 
ATOM     12  C   UNL     1      -4.426  -5.822  -1.184  0.00  0.00    +0.085 A 
ATOM     13  I   UNL     1      -8.482  -6.506  -2.588  0.00  0.00    -0.044 I 
BRANCH  12  14
ATOM     14  C   UNL     1      -3.415  -6.594  -0.444  0.00  0.00    +0.388 C 
ATOM     15  O   UNL     1      -3.622  -7.768  -0.170  0.00  0.00    -0.241 OA
ATOM     16  O   UNL     1      -2.368  -6.061  -0.102  0.00  0.00    -0.241 OA
ENDBRANCH  12  14
ENDBRANCH   4   7
BRANCH   1  17
ATOM     17  C   UNL     1      -1.548  -0.657  -0.383  0.00  0.00    +0.090 C 
BRANCH  17  19
ATOM     18  C   UNL     1      -0.004   1.182   0.306  0.00  0.00    -0.012 C 
ATOM     19  C   UNL     1      -0.088  -0.286  -0.117  0.00  0.00    -0.055 C 
BRANCH  19  20
ATOM     20  N   UNL     1       0.446  -1.136   0.955  0.00  0.00    +0.379 N 
ATOM     21  C   UNL     1       1.859  -0.805   1.185  0.00  0.00    -0.096 C 
ATOM     22  C   UNL     1      -0.317  -0.905   2.189  0.00  0.00    -0.096 C 
ATOM     23  H   UNL     1       0.367  -2.105   0.687  0.00  0.00    -0.082 HD
ENDBRANCH  19  20
ENDBRANCH  17  19
ENDBRANCH   1  17
TORSDOF 5
