REMARK  Name = ZINC09917004
REMARK  12 active torsions:
REMARK  status: ('A' for Active; 'I' for Inactive)
REMARK    1  A    between atoms: C_1  and  N_2
REMARK    2  A    between atoms: C_6  and  S_26
REMARK    3  A    between atoms: C_10  and  C_11
REMARK    4  A    between atoms: C_11  and  C_12
REMARK    5  A    between atoms: C_12  and  C_13
REMARK    6  A    between atoms: N_15  and  C_16
REMARK    7  A    between atoms: C_16  and  C_17
REMARK    8  A    between atoms: C_22  and  C_23
REMARK    9  A    between atoms: C_23  and  N_70
REMARK   10  A    between atoms: C_24  and  N_70
REMARK   11  A    between atoms: C_25  and  N_70
REMARK   12  A    between atoms: S_26  and  N_29
REMARK                            x       y       z     vdW  Elec       q    Type
REMARK                         _______ _______ _______ _____ _____    ______ ____
ROOT
ATOM      1  C   UNL     1       4.619  -1.839  -6.504  0.00  0.00    +0.150 C 
ATOM      2  N   UNL     1       4.038  -2.239  -5.220  0.00  0.00    -0.331 N 
ATOM      3  C   UNL     1       3.921  -1.449  -4.094  0.00  0.00    +0.069 A 
ATOM      4  C   UNL     1       4.270  -0.140  -3.790  0.00  0.00    +0.030 A 
ATOM      5  C   UNL     1       4.009   0.362  -2.533  0.00  0.00    +0.030 A 
ATOM      6  C   UNL     1       3.401  -0.432  -1.571  0.00  0.00    +0.108 A 
ATOM      7  C   UNL     1       3.056  -1.724  -1.850  0.00  0.00    +0.058 A 
ATOM      8  C   UNL     1       3.306  -2.253  -3.119  0.00  0.00    +0.091 A 
ATOM      9  N   UNL     1       3.083  -3.465  -3.689  0.00  0.00    -0.232 NA
ATOM     10  C   UNL     1       3.511  -3.456  -4.918  0.00  0.00    +0.111 A 
ENDROOT
BRANCH   6  11
ATOM     11  S   UNL     1       3.077   0.231   0.029  0.00  0.00    +0.061 S 
ATOM     12  O   UNL     1       3.994   1.299   0.220  0.00  0.00    -0.153 OA
ATOM     13  O   UNL     1       3.000  -0.875   0.919  0.00  0.00    -0.153 OA
BRANCH  11  14
ATOM     14  N   UNL     1       1.566   0.907  -0.017  0.00  0.00    -0.177 NA
ATOM     15  C   UNL     1       0.378   0.109   0.317  0.00  0.00    +0.109 C 
ATOM     16  C   UNL     1      -0.626   0.214  -0.835  0.00  0.00    +0.017 C 
ATOM     17  C   UNL     1      -0.919   1.690  -1.118  0.00  0.00    +0.003 C 
ATOM     18  C   UNL     1       0.372   2.397  -1.537  0.00  0.00    +0.017 C 
ATOM     19  C   UNL     1       1.388   2.316  -0.393  0.00  0.00    +0.109 C 
ENDBRANCH  11  14
ENDBRANCH   6  11
BRANCH  10  20
ATOM     20  C   UNL     1       3.435  -4.624  -5.867  0.00  0.00    +0.083 C 
BRANCH  20  21
ATOM     21  C   UNL     1       4.705  -5.468  -5.741  0.00  0.00    +0.103 C 
BRANCH  21  22
ATOM     22  C   UNL     1       4.628  -6.636  -6.691  0.00  0.00    +0.214 C 
ATOM     23  O   UNL     1       3.653  -6.779  -7.398  0.00  0.00    -0.276 OA
ATOM     24  N   UNL     1       5.642  -7.521  -6.753  0.00  0.00    -0.311 N 
ATOM     25  H   UNL     1       6.421  -7.406  -6.187  0.00  0.00    +0.149 HD
BRANCH  24  26
ATOM     26  C   UNL     1       5.567  -8.656  -7.677  0.00  0.00    +0.139 C 
BRANCH  26  27
ATOM     27  C   UNL     1       6.818  -9.487  -7.553  0.00  0.00    -0.029 A 
ATOM     28  C   UNL     1       7.838  -9.344  -8.475  0.00  0.00    +0.005 A 
ATOM     29  C   UNL     1       8.987 -10.103  -8.359  0.00  0.00    +0.000 A 
ATOM     30  C   UNL     1       9.113 -11.013  -7.326  0.00  0.00    +0.000 A 
ATOM     31  C   UNL     1       8.091 -11.160  -6.406  0.00  0.00    +0.002 A 
ATOM     32  C   UNL     1       6.944 -10.397  -6.520  0.00  0.00    -0.059 A 
BRANCH  32  33
ATOM     33  C   UNL     1       5.830 -10.558  -5.518  0.00  0.00    -0.043 C 
BRANCH  33  36
ATOM     34  C   UNL     1       4.599  -9.345  -3.822  0.00  0.00    -0.096 C 
ATOM     35  C   UNL     1       7.004  -9.560  -3.651  0.00  0.00    -0.096 C 
ATOM     36  N   UNL     1       5.865  -9.415  -4.581  0.00  0.00    +0.379 N 
ATOM     37  H   UNL     1       5.981  -8.548  -5.118  0.00  0.00    -0.082 HD
ENDBRANCH  33  36
ENDBRANCH  32  33
ENDBRANCH  26  27
ENDBRANCH  24  26
ENDBRANCH  21  22
ENDBRANCH  20  21
ENDBRANCH  10  20
TORSDOF 9
