REMARK  Name = ZINC40688282
REMARK  7 active torsions:
REMARK  status: ('A' for Active; 'I' for Inactive)
REMARK    1  A    between atoms: C_1  and  C_2
REMARK    2  A    between atoms: C_2  and  C_3
REMARK    3  A    between atoms: C_8  and  N_9
REMARK    4  A    between atoms: C_11  and  N_24
REMARK    5  A    between atoms: C_12  and  N_16
REMARK    6  A    between atoms: C_19  and  C_23
REMARK    7  A    between atoms: C_20  and  C_22
REMARK                            x       y       z     vdW  Elec       q    Type
REMARK                         _______ _______ _______ _____ _____    ______ ____
ROOT
ATOM      1  N   UNL     1       2.833  -0.268  -0.115  0.00  0.00    -0.298 N 
ATOM      2  C   UNL     1       4.207  -0.481  -0.092  0.00  0.00    +0.149 A 
ATOM      3  C   UNL     1       4.941  -0.253   1.073  0.00  0.00    +0.106 A 
ATOM      4  C   UNL     1       6.317  -0.482   1.040  0.00  0.00    +0.150 A 
ATOM      5  N   UNL     1       6.873  -0.907  -0.092  0.00  0.00    -0.219 NA
ATOM      6  C   UNL     1       6.144  -1.110  -1.170  0.00  0.00    +0.225 A 
ATOM      7  N   UNL     1       4.841  -0.910  -1.180  0.00  0.00    -0.219 NA
ATOM      8  H   UNL     1       2.362  -0.050   0.706  0.00  0.00    +0.154 HD
ENDROOT
BRANCH   4   9
ATOM      9  N   UNL     1       7.096  -0.270   2.174  0.00  0.00    -0.277 N 
ATOM     10  C   UNL     1       8.463  -0.502   2.129  0.00  0.00    +0.164 A 
ATOM     11  N   UNL     1       9.190  -0.914   1.112  0.00  0.00    -0.230 NA
ATOM     12  C   UNL     1      10.494  -1.087   1.232  0.00  0.00    +0.050 A 
ATOM     13  C   UNL     1      11.042  -0.823   2.443  0.00  0.00    +0.011 A 
ATOM     14  S   UNL     1       9.596  -0.318   3.360  0.00  0.00    -0.057 S 
ATOM     15  C   UNL     1      12.477  -0.922   2.891  0.00  0.00    +0.053 C 
ATOM     16  C   UNL     1      11.335  -1.559   0.074  0.00  0.00    +0.066 C 
ATOM     17  H   UNL     1       6.683   0.040   2.995  0.00  0.00    +0.156 HD
ENDBRANCH   4   9
BRANCH   1  23
ATOM     18  C   UNL     1       0.784  -0.715  -1.311  0.00  0.00    -0.026 A 
ATOM     19  C   UNL     1       0.090  -0.807  -2.502  0.00  0.00    +0.005 A 
ATOM     20  C   UNL     1       0.735  -0.560  -3.700  0.00  0.00    +0.000 A 
ATOM     21  C   UNL     1       2.076  -0.221  -3.711  0.00  0.00    +0.002 A 
ATOM     22  C   UNL     1       2.775  -0.127  -2.524  0.00  0.00    +0.023 A 
ATOM     23  C   UNL     1       2.129  -0.368  -1.318  0.00  0.00    +0.036 A 
BRANCH  18  25
ATOM     24  C   UNL     1      -0.407   0.337   0.592  0.00  0.00    +0.009 C 
ATOM     25  C   UNL     1       0.081  -0.984  -0.006  0.00  0.00    +0.033 C 
ENDBRANCH  18  25
ENDBRANCH   1  23
BRANCH   3  26
ATOM     26  N   UNL     1       4.312   0.196   2.245  0.00  0.00    -0.353 N 
ATOM     27  H   UNL     1       3.355   0.352   2.253  0.00  0.00    +0.143 HD
ATOM     28  H   UNL     1       4.835   0.350   3.047  0.00  0.00    +0.143 HD
ENDBRANCH   3  26
TORSDOF 4
