REMARK  Name = ZINC16000306
REMARK  6 active torsions:
REMARK  status: ('A' for Active; 'I' for Inactive)
REMARK    1  A    between atoms: C_1  and  C_2
REMARK    2  A    between atoms: C_4  and  C_38
REMARK    3  A    between atoms: N_21  and  C_24
REMARK    4  A    between atoms: C_27  and  N_32
REMARK    5  A    between atoms: C_29  and  O_30
REMARK    6  A    between atoms: O_30  and  C_31
REMARK                            x       y       z     vdW  Elec       q    Type
REMARK                         _______ _______ _______ _____ _____    ______ ____
ROOT
ATOM      1  C   UNL     1      -5.970   5.486  -0.162  0.00  0.00    +0.044 C 
ATOM      2  C   UNL     1      -4.577   5.747  -0.672  0.00  0.00    -0.050 A 
ATOM      3  C   UNL     1      -4.226   7.008  -1.117  0.00  0.00    +0.008 A 
ATOM      4  C   UNL     1      -2.951   7.252  -1.585  0.00  0.00    -0.029 A 
ATOM      5  C   UNL     1      -2.007   6.228  -1.613  0.00  0.00    +0.039 A 
ATOM      6  C   UNL     1      -2.371   4.963  -1.162  0.00  0.00    -0.027 A 
ATOM      7  C   UNL     1      -3.645   4.724  -0.696  0.00  0.00    +0.008 A 
ATOM      8  C   UNL     1      -1.150   4.101  -1.321  0.00  0.00    +0.053 C 
ATOM      9  C   UNL     1      -0.699   3.513   0.021  0.00  0.00    +0.089 C 
ATOM     10  C   UNL     1      -1.260   2.065   0.019  0.00  0.00    +0.074 C 
ATOM     11  C   UNL     1      -2.002   1.916  -1.317  0.00  0.00    -0.054 C 
ATOM     12  N   UNL     1      -1.408   2.956  -2.210  0.00  0.00    +0.395 N 
ATOM     13  C   UNL     1      -0.124   2.372  -2.665  0.00  0.00    -0.076 C 
ATOM     14  C   UNL     1      -0.409   0.870  -2.861  0.00  0.00    -0.020 C 
ATOM     15  C   UNL     1      -1.625   0.570  -1.962  0.00  0.00    -0.016 C 
ATOM     16  C   UNL     1      -0.014   1.208   0.009  0.00  0.00    +0.229 C 
ATOM     17  O   UNL     1       0.002  -0.004   0.002  0.00  0.00    -0.275 OA
ATOM     18  N   UNL     1       1.067   1.996   0.003  0.00  0.00    -0.206 N 
ATOM     19  C   UNL     1       0.799   3.307   0.009  0.00  0.00    +0.230 C 
ATOM     20  O   UNL     1       1.628   4.192   0.007  0.00  0.00    -0.275 OA
ATOM     21  C   UNL     1      -0.102   5.015  -1.896  0.00  0.00    +0.212 C 
ATOM     22  O   UNL     1       1.040   4.719  -2.181  0.00  0.00    -0.277 OA
ATOM     23  N   UNL     1      -0.676   6.226  -2.034  0.00  0.00    -0.286 N 
ATOM     24  C   UNL     1      -2.579   8.630  -2.067  0.00  0.00    +0.045 C 
ATOM     25  H   UNL     1      -0.220   7.149  -2.422  0.00  0.00    +0.155 HD
ATOM     26  H   UNL     1      -2.022   3.266  -3.069  0.00  0.00    -0.079 HD
ENDROOT
BRANCH  18  27
ATOM     27  C   UNL     1       2.376   1.489  -0.010  0.00  0.00    +0.086 A 
ATOM     28  C   UNL     1       3.011   1.236  -1.217  0.00  0.00    +0.030 A 
ATOM     29  C   UNL     1       4.302   0.742  -1.227  0.00  0.00    +0.035 A 
ATOM     30  C   UNL     1       4.958   0.487  -0.037  0.00  0.00    +0.130 A 
ATOM     31  C   UNL     1       4.329   0.731   1.169  0.00  0.00    +0.080 A 
ATOM     32  C   UNL     1       3.037   1.233   1.188  0.00  0.00    +0.144 A 
BRANCH  30  33
ATOM     33  N   UNL     1       6.338  -0.049  -0.054  0.00  0.00    +0.057 N 
ATOM     34  O   UNL     1       6.917  -0.274   0.993  0.00  0.00    -0.126 OA
ATOM     35  O   UNL     1       6.894  -0.265  -1.117  0.00  0.00    -0.126 OA
ENDBRANCH  30  33
BRANCH  32  36
ATOM     36  O   UNL     1       2.416   1.473   2.374  0.00  0.00    -0.493 OA
ATOM     37  C   UNL     1       3.156   1.186   3.563  0.00  0.00    +0.277 C 
ENDBRANCH  32  36
ENDBRANCH  18  27
TORSDOF 3
