REMARK  Name = ZINC36821263
REMARK  10 active torsions:
REMARK  status: ('A' for Active; 'I' for Inactive)
REMARK    1  A    between atoms: C_1  and  C_2
REMARK    2  A    between atoms: C_3  and  C_29
REMARK    3  A    between atoms: N_9  and  C_26
REMARK    4  A    between atoms: C_10  and  S_12
REMARK    5  A    between atoms: S_12  and  C_13
REMARK    6  A    between atoms: C_13  and  C_14
REMARK    7  A    between atoms: N_19  and  C_20
REMARK    8  A    between atoms: C_20  and  C_21
REMARK    9  A    between atoms: C_26  and  C_27
REMARK   10  A    between atoms: C_26  and  C_28
REMARK                            x       y       z     vdW  Elec       q    Type
REMARK                         _______ _______ _______ _____ _____    ______ ____
ROOT
ATOM      1  S   UNL     1      -0.523  -3.544   4.941  0.00  0.00    -0.078 S 
ENDROOT
BRANCH   1  11
ATOM      2  C   UNL     1       0.348   1.162  -0.115  0.00  0.00    +0.045 C 
ATOM      3  C   UNL     1       0.055  -0.314  -0.028  0.00  0.00    -0.026 A 
ATOM      4  C   UNL     1      -0.099  -1.042  -1.144  0.00  0.00    -0.008 A 
ATOM      5  S   UNL     1      -0.421  -2.683  -0.526  0.00  0.00    -0.073 S 
ATOM      6  C   UNL     1      -0.339  -2.344   1.214  0.00  0.00    +0.117 A 
ATOM      7  C   UNL     1      -0.057  -0.966   1.266  0.00  0.00    +0.075 A 
ATOM      8  C   UNL     1       0.071  -0.406   2.576  0.00  0.00    +0.263 A 
ATOM      9  O   UNL     1       0.310   0.781   2.719  0.00  0.00    -0.267 OA
ATOM     10  N   UNL     1      -0.074  -1.206   3.648  0.00  0.00    -0.285 N 
ATOM     11  C   UNL     1      -0.341  -2.537   3.506  0.00  0.00    +0.173 A 
ATOM     12  N   UNL     1      -0.475  -3.077   2.312  0.00  0.00    -0.216 NA
ATOM     13  C   UNL     1      -0.021  -0.582  -2.577  0.00  0.00    +0.052 C 
BRANCH  10  14
ATOM     14  C   UNL     1       0.057  -0.638   4.992  0.00  0.00    +0.087 C 
ATOM     15  C   UNL     1       1.442  -0.005   5.145  0.00  0.00    +0.031 C 
ATOM     16  C   UNL     1      -1.018   0.429   5.202  0.00  0.00    +0.031 C 
ENDBRANCH  10  14
ENDBRANCH   1  11
BRANCH   1  17
ATOM     17  C   UNL     1      -0.862  -5.198   4.276  0.00  0.00    +0.173 C 
BRANCH  17  18
ATOM     18  C   UNL     1      -1.041  -6.170   5.413  0.00  0.00    +0.231 C 
ATOM     19  O   UNL     1      -0.949  -5.785   6.559  0.00  0.00    -0.274 OA
ATOM     20  N   UNL     1      -1.303  -7.467   5.157  0.00  0.00    -0.239 N 
ATOM     21  C   UNL     1      -1.463  -8.336   6.174  0.00  0.00    +0.306 C 
ATOM     22  O   UNL     1      -1.371  -7.950   7.323  0.00  0.00    -0.252 OA
ATOM     23  N   UNL     1      -1.725  -9.633   5.918  0.00  0.00    -0.292 N 
ATOM     24  H   UNL     1      -1.376  -7.774   4.240  0.00  0.00    +0.159 HD
ATOM     25  H   UNL     1      -1.798  -9.941   5.001  0.00  0.00    +0.151 HD
BRANCH  23  26
ATOM     26  C   UNL     1      -1.899 -10.578   7.024  0.00  0.00    +0.180 C 
BRANCH  26  27
ATOM     27  C   UNL     1      -2.180 -11.951   6.471  0.00  0.00    +0.122 A 
ATOM     28  C   UNL     1      -1.257 -12.884   6.174  0.00  0.00    +0.046 A 
ATOM     29  C   UNL     1      -1.957 -14.012   5.688  0.00  0.00    +0.041 A 
ATOM     30  C   UNL     1      -3.265 -13.701   5.717  0.00  0.00    +0.195 A 
ATOM     31  O   UNL     1      -3.395 -12.454   6.198  0.00  0.00    -0.466 OA
ENDBRANCH  26  27
ENDBRANCH  23  26
ENDBRANCH  17  18
ENDBRANCH   1  17
TORSDOF 6
