REMARK  Name = ZINC39609077
REMARK  9 active torsions:
REMARK  status: ('A' for Active; 'I' for Inactive)
REMARK    1  A    between atoms: C_1  and  C_2
REMARK    2  A    between atoms: C_2  and  C_3
REMARK    3  A    between atoms: C_3  and  C_5
REMARK    4  A    between atoms: C_3  and  C_11
REMARK    5  A    between atoms: C_15  and  C_24
REMARK    6  A    between atoms: N_26  and  C_27
REMARK    7  A    between atoms: C_32  and  O_34
REMARK    8  A    between atoms: O_34  and  C_35
REMARK    9  A    between atoms: C_35  and  C_36
REMARK                            x       y       z     vdW  Elec       q    Type
REMARK                         _______ _______ _______ _____ _____    ______ ____
ROOT
ATOM      1  C   UNL     1       2.839   0.009  -1.011  0.00  0.00    +0.223 C 
ATOM      2  O   UNL     1       3.880  -0.603  -1.127  0.00  0.00    -0.275 OA
ATOM      3  N   UNL     1       2.855   1.353  -0.917  0.00  0.00    -0.300 N 
ATOM      4  C   UNL     1       1.695   2.274  -0.867  0.00  0.00    +0.121 C 
ATOM      5  C   UNL     1       2.097   3.353   0.163  0.00  0.00    +0.100 C 
ATOM      6  C   UNL     1       3.634   3.331   0.175  0.00  0.00    -0.004 C 
ATOM      7  C   UNL     1       4.037   2.245  -0.833  0.00  0.00    +0.115 C 
ATOM      8  C   UNL     1       4.146   2.967   1.566  0.00  0.00    -0.010 C 
ATOM      9  C   UNL     1       5.677   3.007   1.567  0.00  0.00    -0.082 C 
ATOM     10  N   UNL     1       6.134   4.351   1.192  0.00  0.00    +0.379 N 
ATOM     11  C   UNL     1       5.716   4.656  -0.182  0.00  0.00    -0.082 C 
ATOM     12  C   UNL     1       4.187   4.685  -0.258  0.00  0.00    -0.010 C 
ATOM     13  H   UNL     1       5.733   5.029   1.822  0.00  0.00    -0.086 HD
ATOM     14  H   UNL     1       7.140   4.391   1.253  0.00  0.00    -0.086 HD
ENDROOT
BRANCH   5  15
ATOM     15  C   UNL     1       1.553   3.007   1.525  0.00  0.00    +0.218 C 
ATOM     16  O   UNL     1       1.394   1.845   1.837  0.00  0.00    -0.275 OA
ATOM     17  N   UNL     1       1.244   3.987   2.397  0.00  0.00    -0.310 N 
ATOM     18  H   UNL     1       1.302   4.916   2.123  0.00  0.00    +0.149 HD
BRANCH  17  19
ATOM     19  C   UNL     1       0.821   3.650   3.758  0.00  0.00    +0.102 C 
ATOM     20  C   UNL     1      -0.704   3.448   3.801  0.00  0.00    +0.025 C 
ATOM     21  C   UNL     1      -1.260   4.501   4.782  0.00  0.00    +0.004 C 
ATOM     22  C   UNL     1      -0.058   4.839   5.699  0.00  0.00    +0.033 C 
ATOM     23  C   UNL     1       1.139   4.817   4.715  0.00  0.00    +0.139 C 
BRANCH  23  24
ATOM     24  O   UNL     1       2.360   4.570   5.416  0.00  0.00    -0.370 OA
BRANCH  24  25
ATOM     25  C   UNL     1       3.078   5.755   5.767  0.00  0.00    +0.195 C 
BRANCH  25  26
ATOM     26  C   UNL     1       4.341   5.378   6.498  0.00  0.00    -0.022 A 
ATOM     27  C   UNL     1       4.330   5.248   7.875  0.00  0.00    +0.006 A 
ATOM     28  C   UNL     1       5.489   4.902   8.545  0.00  0.00    +0.000 A 
ATOM     29  C   UNL     1       6.658   4.687   7.840  0.00  0.00    +0.000 A 
ATOM     30  C   UNL     1       6.668   4.816   6.463  0.00  0.00    +0.000 A 
ATOM     31  C   UNL     1       5.509   5.157   5.792  0.00  0.00    +0.006 A 
ENDBRANCH  25  26
ENDBRANCH  24  25
ENDBRANCH  23  24
ENDBRANCH  17  19
ENDBRANCH   5  15
BRANCH   1  32
ATOM     32  C   UNL     1       1.529  -0.734  -0.973  0.00  0.00    +0.105 C 
BRANCH  32  33
ATOM     33  C   UNL     1       1.020  -0.930  -2.378  0.00  0.00    -0.036 A 
ATOM     34  C   UNL     1       1.775  -1.640  -3.293  0.00  0.00    +0.004 A 
ATOM     35  C   UNL     1       1.309  -1.820  -4.582  0.00  0.00    +0.000 A 
ATOM     36  C   UNL     1       0.088  -1.289  -4.955  0.00  0.00    +0.000 A 
ATOM     37  C   UNL     1      -0.666  -0.580  -4.040  0.00  0.00    +0.000 A 
ATOM     38  C   UNL     1      -0.202  -0.404  -2.750  0.00  0.00    +0.004 A 
ENDBRANCH  32  33
BRANCH  32  40
ATOM     39  C   UNL     1       2.113  -1.899   1.159  0.00  0.00    +0.005 C 
ATOM     40  C   UNL     1       1.735  -2.097  -0.310  0.00  0.00    +0.014 C 
ENDBRANCH  32  40
ENDBRANCH   1  32
TORSDOF 8
