REMARK  Name = ZINC06799036
REMARK  5 active torsions:
REMARK  status: ('A' for Active; 'I' for Inactive)
REMARK    1  A    between atoms: C_1  and  C_2
REMARK    2  A    between atoms: N_14  and  C_16
REMARK    3  A    between atoms: C_16  and  C_18
REMARK    4  A    between atoms: C_16  and  C_19
REMARK    5  A    between atoms: C_24  and  C_27
REMARK                            x       y       z     vdW  Elec       q    Type
REMARK                         _______ _______ _______ _____ _____    ______ ____
ROOT
ATOM      1  C   UNL     1      -0.360   2.150  -0.712  0.00  0.00    +0.068 C 
ATOM      2  C   UNL     1       0.317   0.822  -0.492  0.00  0.00    +0.073 A 
ATOM      3  C   UNL     1      -0.446  -0.349  -0.419  0.00  0.00    +0.048 A 
ATOM      4  C   UNL     1       0.143  -1.599  -0.216  0.00  0.00    +0.065 A 
ATOM      5  C   UNL     1      -0.779  -2.750  -0.159  0.00  0.00    +0.002 A 
ATOM      6  C   UNL     1      -0.443  -4.109   0.033  0.00  0.00    +0.010 A 
ATOM      7  C   UNL     1      -1.419  -5.072   0.063  0.00  0.00    +0.001 A 
ATOM      8  C   UNL     1      -2.758  -4.744  -0.093  0.00  0.00    +0.001 A 
ATOM      9  C   UNL     1      -3.117  -3.425  -0.283  0.00  0.00    +0.015 A 
ATOM     10  C   UNL     1      -2.142  -2.449  -0.315  0.00  0.00    +0.021 A 
ATOM     11  S   UNL     1      -2.184  -0.687  -0.523  0.00  0.00    -0.086 S 
ATOM     12  C   UNL     1       1.568  -1.612  -0.091  0.00  0.00    +0.277 A 
ATOM     13  O   UNL     1       2.156  -2.666   0.087  0.00  0.00    -0.265 OA
ATOM     14  N   UNL     1       2.257  -0.462  -0.169  0.00  0.00    -0.217 N 
ATOM     15  N   UNL     1       1.617   0.764  -0.372  0.00  0.00    -0.172 NA
ENDROOT
BRANCH  14  16
ATOM     16  C   UNL     1       3.716  -0.493  -0.038  0.00  0.00    +0.193 C 
ATOM     17  C   UNL     1       4.139   0.360   1.159  0.00  0.00    +0.043 C 
BRANCH  16  18
ATOM     18  C   UNL     1       4.344   0.055  -1.294  0.00  0.00    +0.240 C 
ATOM     19  O   UNL     1       3.683   0.721  -2.062  0.00  0.00    -0.273 OA
ATOM     20  N   UNL     1       5.641  -0.195  -1.562  0.00  0.00    -0.300 N 
ATOM     21  C   UNL     1       6.297   0.420  -2.725  0.00  0.00    +0.108 C 
ATOM     22  C   UNL     1       6.940  -0.677  -3.571  0.00  0.00    +0.032 C 
ATOM     23  C   UNL     1       7.873  -1.515  -2.693  0.00  0.00    +0.078 C 
ATOM     24  C   UNL     1       7.065  -2.176  -1.574  0.00  0.00    +0.032 C 
ATOM     25  C   UNL     1       6.425  -1.092  -0.702  0.00  0.00    +0.108 C 
BRANCH  23  26
ATOM     26  C   UNL     1       8.532  -2.578  -3.533  0.00  0.00    +0.214 C 
ATOM     27  O   UNL     1       8.372  -3.750  -3.263  0.00  0.00    -0.276 OA
ATOM     28  N   UNL     1       9.300  -2.228  -4.584  0.00  0.00    -0.329 N 
ATOM     29  H   UNL     1       9.428  -1.290  -4.799  0.00  0.00    +0.145 HD
ATOM     30  H   UNL     1       9.724  -2.912  -5.124  0.00  0.00    +0.145 HD
ENDBRANCH  23  26
ENDBRANCH  16  18
ENDBRANCH  14  16
TORSDOF 3
