REMARK  Name = ZINC16937164
REMARK  8 active torsions:
REMARK  status: ('A' for Active; 'I' for Inactive)
REMARK    1  A    between atoms: C_1  and  C_2
REMARK    2  A    between atoms: C_2  and  C_4
REMARK    3  A    between atoms: C_2  and  O_7
REMARK    4  A    between atoms: O_7  and  C_8
REMARK    5  A    between atoms: C_11  and  C_14
REMARK    6  A    between atoms: N_18  and  C_29
REMARK    7  A    between atoms: N_20  and  C_21
REMARK    8  A    between atoms: C_25  and  O_27
REMARK                            x       y       z     vdW  Elec       q    Type
REMARK                         _______ _______ _______ _____ _____    ______ ____
ROOT
ATOM      1  C   UNL     1      -2.245  -1.028  -5.919  0.00  0.00    +0.028 C 
ATOM      2  C   UNL     1      -1.660  -1.576  -7.014  0.00  0.00    +0.078 C 
ATOM      3  C   UNL     1      -2.251  -1.906  -8.325  0.00  0.00    +0.259 C 
ATOM      4  O   UNL     1      -3.426  -1.697  -8.564  0.00  0.00    -0.269 OA
ATOM      5  N   UNL     1      -1.447  -2.440  -9.229  0.00  0.00    -0.249 N 
ATOM      6  C   UNL     1      -0.119  -2.669  -8.939  0.00  0.00    +0.168 C 
ATOM      7  N   UNL     1       0.808  -3.187  -9.713  0.00  0.00    -0.225 NA
ATOM      8  S   UNL     1       0.035  -2.085  -7.259  0.00  0.00    -0.049 S 
ATOM      9  C   UNL     1      -1.972  -2.792 -10.550  0.00  0.00    +0.140 C 
ENDROOT
BRANCH   1  13
ATOM     10  C   UNL     1      -0.091  -0.755  -2.277  0.00  0.00    +0.122 A 
ATOM     11  C   UNL     1      -1.233   0.015  -2.465  0.00  0.00    +0.046 A 
ATOM     12  C   UNL     1      -1.936  -0.069  -3.646  0.00  0.00    +0.011 A 
ATOM     13  C   UNL     1      -1.499  -0.933  -4.658  0.00  0.00    -0.024 A 
ATOM     14  C   UNL     1      -0.348  -1.706  -4.463  0.00  0.00    +0.011 A 
ATOM     15  C   UNL     1       0.350  -1.610  -3.280  0.00  0.00    +0.046 A 
BRANCH  10  16
ATOM     16  O   UNL     1       0.598  -0.668  -1.110  0.00  0.00    -0.478 OA
BRANCH  16  18
ATOM     17  C   UNL     1       1.543  -2.837  -0.616  0.00  0.00    +0.064 C 
ATOM     18  C   UNL     1       1.828  -1.391  -1.028  0.00  0.00    +0.282 C 
BRANCH  18  19
ATOM     19  C   UNL     1       2.723  -0.744  -0.003  0.00  0.00    +0.395 C 
ATOM     20  O   UNL     1       3.861  -1.152   0.158  0.00  0.00    -0.242 OA
ATOM     21  O   UNL     1       2.310   0.188   0.666  0.00  0.00    -0.242 OA
ENDBRANCH  18  19
ENDBRANCH  16  18
ENDBRANCH  10  16
ENDBRANCH   1  13
BRANCH   7  22
ATOM     22  C   UNL     1       2.085  -3.338  -9.244  0.00  0.00    +0.070 A 
ATOM     23  C   UNL     1       2.698  -2.302  -8.534  0.00  0.00    +0.028 A 
ATOM     24  C   UNL     1       3.985  -2.458  -8.062  0.00  0.00    +0.006 A 
ATOM     25  C   UNL     1       4.671  -3.637  -8.289  0.00  0.00    +0.045 A 
ATOM     26  C   UNL     1       4.071  -4.672  -8.994  0.00  0.00    +0.119 A 
ATOM     27  C   UNL     1       2.777  -4.529  -9.467  0.00  0.00    +0.073 A 
BRANCH  26  28
ATOM     28  O   UNL     1       4.750  -5.827  -9.215  0.00  0.00    -0.507 OA
ATOM     29  H   UNL     1       4.630  -6.493  -8.523  0.00  0.00    +0.292 HD
ENDBRANCH  26  28
ENDBRANCH   7  22
TORSDOF 6
