REMARK  Name = ZINC15068623
REMARK  8 active torsions:
REMARK  status: ('A' for Active; 'I' for Inactive)
REMARK    1  A    between atoms: C_1  and  C_2
REMARK    2  A    between atoms: C_3  and  C_26
REMARK    3  A    between atoms: C_4  and  O_24
REMARK    4  A    between atoms: C_7  and  C_8
REMARK    5  A    between atoms: C_8  and  N_53
REMARK    6  A    between atoms: C_14  and  C_16
REMARK    7  A    between atoms: C_16  and  C_17
REMARK    8  A    between atoms: O_24  and  C_25
REMARK                            x       y       z     vdW  Elec       q    Type
REMARK                         _______ _______ _______ _____ _____    ______ ____
ROOT
ATOM      1  C   UNL     1      -2.460   0.367  -3.038  0.00  0.00    -0.058 C 
ATOM      2  C   UNL     1      -3.308   0.278  -4.308  0.00  0.00    +0.085 C 
ATOM      3  N   UNL     1      -4.520  -0.494  -4.047  0.00  0.00    -0.318 N 
ATOM      4  C   UNL     1      -4.984  -0.724  -2.814  0.00  0.00    +0.200 C 
ATOM      5  O   UNL     1      -6.016  -1.349  -2.689  0.00  0.00    -0.278 OA
ATOM      6  C   UNL     1      -4.281  -0.241  -1.577  0.00  0.00    +0.029 C 
ATOM      7  H   UNL     1      -5.010  -0.856  -4.802  0.00  0.00    +0.149 HD
ATOM      8  N   UNL     1      -3.331   0.828  -1.938  0.00  0.00    +0.391 N 
ATOM      9  H   UNL     1      -3.856   1.653  -2.249  0.00  0.00    -0.080 HD
ENDROOT
BRANCH   8  10
ATOM     10  C   UNL     1      -2.511   1.195  -0.760  0.00  0.00    -0.042 C 
BRANCH  10  17
ATOM     11  C   UNL     1      -3.227   3.974  -1.077  0.00  0.00    +0.044 C 
ATOM     12  C   UNL     1      -1.810   3.529  -1.331  0.00  0.00    -0.043 A 
ATOM     13  C   UNL     1      -0.857   4.450  -1.720  0.00  0.00    -0.006 A 
ATOM     14  C   UNL     1       0.448   4.039  -1.954  0.00  0.00    +0.123 A 
ATOM     15  C   UNL     1       0.791   2.704  -1.796  0.00  0.00    +0.046 A 
ATOM     16  C   UNL     1      -0.167   1.787  -1.407  0.00  0.00    +0.005 A 
ATOM     17  C   UNL     1      -1.467   2.198  -1.179  0.00  0.00    -0.061 A 
ATOM     18  C   UNL     1      -1.232   5.899  -1.890  0.00  0.00    +0.048 C 
BRANCH  14  19
ATOM     19  O   UNL     1       1.388   4.942  -2.336  0.00  0.00    -0.495 OA
ATOM     20  C   UNL     1       2.710   4.448  -2.559  0.00  0.00    +0.277 C 
ENDBRANCH  14  19
ENDBRANCH  10  17
ENDBRANCH   8  10
BRANCH   6  21
ATOM     21  C   UNL     1      -5.310   0.319  -0.594  0.00  0.00    +0.092 C 
BRANCH  21  22
ATOM     22  C   UNL     1      -5.996   1.511  -1.209  0.00  0.00    +0.237 C 
ATOM     23  O   UNL     1      -5.625   1.937  -2.282  0.00  0.00    -0.274 OA
ATOM     24  N   UNL     1      -7.021   2.105  -0.566  0.00  0.00    -0.181 N 
ATOM     25  C   UNL     1      -7.773   3.279  -1.051  0.00  0.00    +0.142 C 
ATOM     26  C   UNL     1      -9.118   3.172  -0.279  0.00  0.00    +0.052 C 
ATOM     27  C   UNL     1      -8.624   2.582   1.067  0.00  0.00    +0.192 C 
ATOM     28  O   UNL     1      -7.547   1.707   0.689  0.00  0.00    -0.277 OA
ENDBRANCH  21  22
ENDBRANCH   6  21
TORSDOF 5
