REMARK  Name = ZINC48427823
REMARK  7 active torsions:
REMARK  status: ('A' for Active; 'I' for Inactive)
REMARK    1  A    between atoms: C_1  and  C_2
REMARK    2  A    between atoms: C_2  and  C_4
REMARK    3  A    between atoms: C_2  and  N_15
REMARK    4  A    between atoms: N_6  and  S_7
REMARK    5  A    between atoms: S_7  and  C_10
REMARK    6  A    between atoms: C_16  and  C_18
REMARK    7  A    between atoms: C_19  and  C_20
REMARK                            x       y       z     vdW  Elec       q    Type
REMARK                         _______ _______ _______ _____ _____    ______ ____
ROOT
ATOM      1  C   UNL     1      -0.662   0.477   0.391  0.00  0.00    +0.038 C 
ATOM      2  C   UNL     1      -0.225  -0.971   0.163  0.00  0.00    +0.162 C 
ENDROOT
BRANCH   2   3
ATOM      3  N   UNL     1       0.532  -1.060  -1.088  0.00  0.00    -0.300 N 
ATOM      4  C   UNL     1      -0.117  -1.208  -2.260  0.00  0.00    +0.237 C 
ATOM      5  O   UNL     1      -1.333  -1.266  -2.279  0.00  0.00    -0.271 OA
ATOM      6  H   UNL     1       1.501  -1.014  -1.073  0.00  0.00    +0.150 HD
BRANCH   4   7
ATOM      7  C   UNL     1       0.640  -1.297  -3.510  0.00  0.00    +0.068 C 
ATOM      8  C   UNL     1      -0.009  -1.308  -4.692  0.00  0.00    +0.013 C 
BRANCH   8   9
ATOM      9  C   UNL     1      -1.443  -0.979  -4.747  0.00  0.00    -0.025 A 
ATOM     10  C   UNL     1      -1.934   0.141  -4.067  0.00  0.00    +0.008 A 
ATOM     11  C   UNL     1      -3.278   0.443  -4.124  0.00  0.00    +0.001 A 
ATOM     12  C   UNL     1      -4.141  -0.359  -4.851  0.00  0.00    +0.000 A 
ATOM     13  C   UNL     1      -3.663  -1.468  -5.527  0.00  0.00    +0.001 A 
ATOM     14  C   UNL     1      -2.321  -1.780  -5.484  0.00  0.00    +0.008 A 
ENDBRANCH   8   9
ENDBRANCH   4   7
ENDBRANCH   2   3
BRANCH   2  15
ATOM     15  C   UNL     1       0.644  -1.420   1.309  0.00  0.00    +0.284 C 
ATOM     16  O   UNL     1       1.987  -1.337   1.210  0.00  0.00    -0.267 OA
ATOM     17  N   UNL     1       0.104  -1.883   2.385  0.00  0.00    -0.088 NA
BRANCH  17  18
ATOM     18  S   UNL     1       1.059  -2.377   3.645  0.00  0.00    +0.108 S 
ATOM     19  O   UNL     1       1.778  -3.514   3.188  0.00  0.00    -0.146 OA
ATOM     20  O   UNL     1       1.707  -1.214   4.143  0.00  0.00    -0.146 OA
BRANCH  18  21
ATOM     21  C   UNL     1      -0.015  -2.941   4.923  0.00  0.00    +0.150 A 
ATOM     22  C   UNL     1      -0.501  -4.187   5.142  0.00  0.00    +0.037 A 
ATOM     23  C   UNL     1      -1.338  -4.400   6.221  0.00  0.00    +0.010 A 
ATOM     24  C   UNL     1      -1.648  -3.357   7.029  0.00  0.00    +0.047 A 
ATOM     25  S   UNL     1      -0.740  -2.020   6.270  0.00  0.00    -0.076 S 
ENDBRANCH  18  21
ENDBRANCH  17  18
ENDBRANCH   2  15
TORSDOF 6
