REMARK  Name = ZINC36569317
REMARK  7 active torsions:
REMARK  status: ('A' for Active; 'I' for Inactive)
REMARK    1  A    between atoms: C_1  and  C_2
REMARK    2  A    between atoms: C_2  and  O_3
REMARK    3  A    between atoms: O_3  and  C_4
REMARK    4  A    between atoms: C_6  and  C_7
REMARK    5  A    between atoms: C_12  and  C_17
REMARK    6  A    between atoms: C_12  and  C_21
REMARK    7  A    between atoms: C_14  and  O_16
REMARK                            x       y       z     vdW  Elec       q    Type
REMARK                         _______ _______ _______ _____ _____    ______ ____
ROOT
ATOM      1  C   UNL     1       1.409  -3.759  -2.648  0.00  0.00    +0.058 C 
ATOM      2  C   UNL     1       2.033  -4.255  -3.731  0.00  0.00    +0.072 C 
ATOM      3  S   UNL     1       1.770  -6.010  -3.546  0.00  0.00    -0.060 S 
ATOM      4  C   UNL     1       0.842  -5.956  -2.028  0.00  0.00    +0.171 C 
ATOM      5  N   UNL     1       0.311  -6.882  -1.292  0.00  0.00    -0.216 NA
ATOM      6  C   UNL     1      -0.407  -6.482  -0.069  0.00  0.00    +0.348 C 
ATOM      7  N   UNL     1      -0.463  -5.042   0.221  0.00  0.00    -0.189 NA
ATOM      8  C   UNL     1       0.104  -4.207  -0.585  0.00  0.00    +0.291 C 
ATOM      9  N   UNL     1       0.784  -4.606  -1.737  0.00  0.00    -0.202 N 
ENDROOT
BRANCH   6  10
ATOM     10  C   UNL     1       0.259  -7.179   1.119  0.00  0.00    +0.444 C 
ATOM     11  F   UNL     1       1.600  -6.789   1.197  0.00  0.00    -0.166 F 
ATOM     12  F   UNL     1      -0.401  -6.820   2.299  0.00  0.00    -0.166 F 
ATOM     13  F   UNL     1       0.186  -8.566   0.947  0.00  0.00    -0.166 F 
ENDBRANCH   6  10
BRANCH   6  14
ATOM     14  C   UNL     1      -1.843  -7.000  -0.172  0.00  0.00    +0.444 C 
ATOM     15  F   UNL     1      -1.828  -8.394  -0.290  0.00  0.00    -0.166 F 
ATOM     16  F   UNL     1      -2.553  -6.637   0.977  0.00  0.00    -0.166 F 
ATOM     17  F   UNL     1      -2.460  -6.444  -1.298  0.00  0.00    -0.166 F 
ENDBRANCH   6  14
BRANCH   1  20
ATOM     18  C   UNL     1       2.102  -1.492  -3.220  0.00  0.00    +0.334 C 
ATOM     19  O   UNL     1       2.909  -2.015  -4.175  0.00  0.00    -0.246 OA
ATOM     20  C   UNL     1       1.393  -2.306  -2.420  0.00  0.00    +0.116 C 
BRANCH  18  21
ATOM     21  O   UNL     1       2.010  -0.148  -3.072  0.00  0.00    -0.462 OA
BRANCH  21  23
ATOM     22  C   UNL     1       2.558   2.136  -3.641  0.00  0.00    +0.048 C 
ATOM     23  C   UNL     1       2.791   0.657  -3.957  0.00  0.00    +0.229 C 
ENDBRANCH  21  23
ENDBRANCH  18  21
ENDBRANCH   1  20
BRANCH   8  24
ATOM     24  O   UNL     1       0.039  -2.889  -0.299  0.00  0.00    -0.481 OA
ATOM     25  H   UNL     1      -0.376  -2.691   0.551  0.00  0.00    +0.295 HD
ENDBRANCH   8  24
TORSDOF 6
