REMARK  Name = ZINC04741481
REMARK  8 active torsions:
REMARK  status: ('A' for Active; 'I' for Inactive)
REMARK    1  A    between atoms: C_1  and  N_2
REMARK    2  A    between atoms: N_2  and  C_3
REMARK    3  A    between atoms: N_2  and  C_4
REMARK    4  A    between atoms: C_7  and  C_10
REMARK    5  A    between atoms: C_14  and  C_15
REMARK    6  A    between atoms: N_16  and  C_17
REMARK    7  A    between atoms: C_17  and  C_18
REMARK    8  A    between atoms: C_18  and  C_19
REMARK                            x       y       z     vdW  Elec       q    Type
REMARK                         _______ _______ _______ _____ _____    ______ ____
ROOT
ATOM      1  C   UNL     1       0.002  -0.004   0.007  0.00  0.00    +0.034 C 
ATOM      2  C   UNL     1      -0.729  -0.516  -1.237  0.00  0.00    +0.088 C 
ATOM      3  C   UNL     1      -0.694  -2.031  -1.237  0.00  0.00    +0.169 C 
ATOM      4  O   UNL     1      -0.346  -2.662  -2.215  0.00  0.00    -0.292 OA
ATOM      5  C   UNL     1      -1.104  -2.701   0.014  0.00  0.00    +0.077 C 
ATOM      6  C   UNL     1      -0.652  -2.042   1.256  0.00  0.00    +0.169 C 
ATOM      7  O   UNL     1      -0.272  -2.681   2.216  0.00  0.00    -0.292 OA
ATOM      8  C   UNL     1      -0.686  -0.527   1.270  0.00  0.00    +0.088 C 
ENDROOT
BRANCH   1  12
ATOM      9  C   UNL     1      -0.056   4.269   0.027  0.00  0.00    +0.029 A 
ATOM     10  C   UNL     1       1.155   3.590  -0.002  0.00  0.00    +0.023 A 
ATOM     11  C   UNL     1       1.170   2.209  -0.009  0.00  0.00    +0.006 A 
ATOM     12  C   UNL     1      -0.019   1.503   0.014  0.00  0.00    -0.043 A 
ATOM     13  C   UNL     1      -1.226   2.176   0.037  0.00  0.00    +0.006 A 
ATOM     14  C   UNL     1      -1.248   3.557   0.049  0.00  0.00    +0.023 A 
BRANCH   9  16
ATOM     15  C   UNL     1       1.180   6.415   0.135  0.00  0.00    +0.129 C 
ATOM     16  N   UNL     1      -0.075   5.666   0.033  0.00  0.00    -0.336 N 
ATOM     17  C   UNL     1      -1.349   6.382  -0.063  0.00  0.00    +0.129 C 
ENDBRANCH   9  16
ENDBRANCH   1  12
BRANCH   5  18
ATOM     18  C   UNL     1      -1.860  -3.866   0.021  0.00  0.00    +0.119 C 
ATOM     19  N   UNL     1      -2.245  -4.426  -1.140  0.00  0.00    -0.290 NA
BRANCH  19  20
ATOM     20  C   UNL     1      -3.042  -5.655  -1.132  0.00  0.00    +0.147 C 
BRANCH  20  21
ATOM     21  C   UNL     1      -3.345  -6.076  -2.571  0.00  0.00    +0.078 C 
BRANCH  21  22
ATOM     22  C   UNL     1      -4.164  -7.340  -2.563  0.00  0.00    +0.037 A 
ATOM     23  C   UNL     1      -5.354  -7.516  -3.168  0.00  0.00    +0.133 A 
ATOM     24  N   UNL     1      -5.744  -8.803  -2.910  0.00  0.00    -0.244 NA
ATOM     25  H   UNL     1      -2.887  -8.567  -1.402  0.00  0.00    +0.166 HD
ATOM     26  C   UNL     1      -4.778  -9.369  -2.156  0.00  0.00    +0.196 A 
ATOM     27  N   UNL     1      -3.834  -8.490  -1.956  0.00  0.00    -0.348 N 
ENDBRANCH  21  22
ENDBRANCH  20  21
ENDBRANCH  19  20
ENDBRANCH   5  18
TORSDOF 6
