REMARK  Name = ZINC32104411
REMARK  5 active torsions:
REMARK  status: ('A' for Active; 'I' for Inactive)
REMARK    1  A    between atoms: C_1  and  C_2
REMARK    2  A    between atoms: N_8  and  C_28
REMARK    3  A    between atoms: C_13  and  O_27
REMARK    4  A    between atoms: N_19  and  C_20
REMARK    5  A    between atoms: C_28  and  C_29
REMARK                            x       y       z     vdW  Elec       q    Type
REMARK                         _______ _______ _______ _____ _____    ______ ____
ROOT
ATOM      1  C   UNL     1      -0.375   1.493   0.068  0.00  0.00    +0.045 C 
ATOM      2  C   UNL     1      -0.307  -0.013   0.051  0.00  0.00    -0.029 A 
ATOM      3  C   UNL     1      -0.525  -0.733  -1.113  0.00  0.00    +0.005 A 
ATOM      4  C   UNL     1      -0.467  -2.111  -1.141  0.00  0.00    +0.001 A 
ATOM      5  C   UNL     1      -0.184  -2.848   0.004  0.00  0.00    +0.007 A 
ATOM      6  C   UNL     1       0.035  -2.139   1.165  0.00  0.00    -0.006 A 
ATOM      7  C   UNL     1      -0.016  -0.740   1.206  0.00  0.00    +0.044 A 
ATOM      8  N   UNL     1       0.249  -0.286   2.487  0.00  0.00    -0.266 N 
ATOM      9  C   UNL     1       0.486  -1.301   3.344  0.00  0.00    +0.236 C 
ATOM     10  O   UNL     1       0.744  -1.202   4.526  0.00  0.00    -0.274 OA
ATOM     11  C   UNL     1       0.358  -2.584   2.555  0.00  0.00    +0.112 C 
ATOM     12  C   UNL     1       1.679  -3.352   2.600  0.00  0.00    +0.121 C 
ATOM     13  C   UNL     1       1.492  -4.791   2.215  0.00  0.00    +0.191 C 
ATOM     14  N   UNL     1       0.408  -5.465   2.456  0.00  0.00    -0.197 NA
ATOM     15  C   UNL     1      -0.652  -4.843   3.046  0.00  0.00    +0.164 A 
ATOM     16  C   UNL     1      -0.727  -3.456   3.121  0.00  0.00    +0.036 A 
ATOM     17  C   UNL     1      -1.906  -3.130   3.765  0.00  0.00    +0.142 A 
ATOM     18  N   UNL     1      -2.538  -4.242   4.066  0.00  0.00    -0.172 NA
ATOM     19  N   UNL     1      -1.776  -5.333   3.617  0.00  0.00    -0.213 N 
ENDROOT
BRANCH  19  20
ATOM     20  C   UNL     1      -2.118  -6.686   3.739  0.00  0.00    +0.086 A 
ATOM     21  C   UNL     1      -1.263  -7.667   3.253  0.00  0.00    +0.029 A 
ATOM     22  C   UNL     1      -1.604  -9.000   3.375  0.00  0.00    +0.002 A 
ATOM     23  C   UNL     1      -2.794  -9.359   3.980  0.00  0.00    +0.002 A 
ATOM     24  C   UNL     1      -3.648  -8.386   4.464  0.00  0.00    +0.022 A 
ATOM     25  C   UNL     1      -3.311  -7.050   4.351  0.00  0.00    +0.066 A 
ATOM     26 CL   UNL     1      -4.380  -5.829   4.967  0.00  0.00    -0.081 Cl
ENDBRANCH  19  20
BRANCH  13  27
ATOM     27  O   UNL     1       2.506  -5.419   1.583  0.00  0.00    -0.495 OA
ATOM     28  H   UNL     1       2.321  -6.342   1.364  0.00  0.00    +0.293 HD
ENDBRANCH  13  27
BRANCH   8  29
ATOM     29  C   UNL     1       0.270   1.129   2.866  0.00  0.00    +0.140 C 
BRANCH  29  30
ATOM     30  C   UNL     1      -1.120   1.566   3.252  0.00  0.00    -0.015 C 
ATOM     31  C   UNL     1      -1.332   2.117   4.422  0.00  0.00    +0.005 C 
ENDBRANCH  29  30
ENDBRANCH   8  29
TORSDOF 4
