REMARK  Name = ZINC34367180
REMARK  6 active torsions:
REMARK  status: ('A' for Active; 'I' for Inactive)
REMARK    1  A    between atoms: C_1  and  C_2
REMARK    2  A    between atoms: C_5  and  N_8
REMARK    3  A    between atoms: C_16  and  C_35
REMARK    4  A    between atoms: C_20  and  C_26
REMARK    5  A    between atoms: C_26  and  C_28
REMARK    6  A    between atoms: C_35  and  C_37
REMARK                            x       y       z     vdW  Elec       q    Type
REMARK                         _______ _______ _______ _____ _____    ______ ____
ROOT
ATOM      1  N   UNL     1       0.683  -4.325  -0.413  0.00  0.00    -0.210 N 
ATOM      2  C   UNL     1       0.670  -4.997   0.777  0.00  0.00    +0.232 C 
ATOM      3  O   UNL     1       0.535  -4.521   1.883  0.00  0.00    -0.274 OA
ATOM      4  C   UNL     1       0.858  -6.451   0.430  0.00  0.00    +0.114 C 
ATOM      5  C   UNL     1       0.019  -7.508   1.125  0.00  0.00    +0.110 C 
ATOM      6  C   UNL     1       0.704  -8.180   2.263  0.00  0.00    +0.008 C 
ATOM      7  C   UNL     1       0.617  -9.519   2.418  0.00  0.00    +0.021 C 
ATOM      8  C   UNL     1      -0.141 -10.350   1.465  0.00  0.00    +0.026 C 
ATOM      9  C   UNL     1      -0.567  -9.823   0.303  0.00  0.00    +0.072 C 
ATOM     10  N   UNL     1      -0.264  -8.505   0.063  0.00  0.00    -0.318 N 
ATOM     11  C   UNL     1      -0.172  -7.820  -1.254  0.00  0.00    +0.157 C 
ATOM     12  C   UNL     1       0.031  -6.394  -0.920  0.00  0.00    +0.118 C 
ATOM     13  C   UNL     1       0.484  -5.151  -1.492  0.00  0.00    +0.232 C 
ATOM     14  O   UNL     1       0.654  -4.893  -2.664  0.00  0.00    -0.274 OA
ENDROOT
BRANCH   1  19
ATOM     15  C   UNL     1       1.453   1.281  -0.845  0.00  0.00    +0.044 C 
ATOM     16  C   UNL     1       1.249  -0.207  -0.730  0.00  0.00    -0.050 A 
ATOM     17  C   UNL     1       1.056  -0.967  -1.869  0.00  0.00    +0.005 A 
ATOM     18  C   UNL     1       0.868  -2.332  -1.767  0.00  0.00    +0.024 A 
ATOM     19  C   UNL     1       0.874  -2.940  -0.519  0.00  0.00    +0.044 A 
ATOM     20  C   UNL     1       1.068  -2.175   0.622  0.00  0.00    +0.024 A 
ATOM     21  C   UNL     1       1.260  -0.811   0.513  0.00  0.00    +0.005 A 
ENDBRANCH   1  19
BRANCH  11  22
ATOM     22  C   UNL     1       1.015  -8.328  -2.031  0.00  0.00    +0.184 C 
ATOM     23  O   UNL     1       1.867  -8.987  -1.475  0.00  0.00    -0.290 OA
BRANCH  22  24
ATOM     24  C   UNL     1       1.140  -8.022  -3.465  0.00  0.00    +0.019 A 
ATOM     25  C   UNL     1       0.162  -7.256  -4.108  0.00  0.00    +0.013 A 
ATOM     26  C   UNL     1       0.286  -6.974  -5.452  0.00  0.00    +0.020 A 
ATOM     27  C   UNL     1       1.376  -7.447  -6.165  0.00  0.00    +0.041 A 
ATOM     28  C   UNL     1       2.349  -8.206  -5.534  0.00  0.00    +0.020 A 
ATOM     29  C   UNL     1       2.241  -8.491  -4.190  0.00  0.00    +0.013 A 
ATOM     30 CL   UNL     1       1.524  -7.087  -7.856  0.00  0.00    -0.084 Cl
ENDBRANCH  22  24
ENDBRANCH  11  22
BRANCH   7  31
ATOM     31  C   UNL     1       1.294 -10.162   3.563  0.00  0.00    +0.193 C 
ATOM     32  O   UNL     1       0.920  -9.932   4.697  0.00  0.00    -0.287 OA
BRANCH  31  33
ATOM     33  C   UNL     1       2.423 -11.085   3.330  0.00  0.00    +0.022 A 
ATOM     34  C   UNL     1       2.914 -11.281   2.037  0.00  0.00    +0.012 A 
ATOM     35  C   UNL     1       3.969 -12.144   1.827  0.00  0.00    +0.001 A 
ATOM     36  C   UNL     1       4.542 -12.815   2.894  0.00  0.00    +0.000 A 
ATOM     37  C   UNL     1       4.061 -12.625   4.177  0.00  0.00    +0.001 A 
ATOM     38  C   UNL     1       3.010 -11.761   4.403  0.00  0.00    +0.012 A 
ENDBRANCH  31  33
ENDBRANCH   7  31
TORSDOF 5
