REMARK  Name = ZINC22851850
REMARK  5 active torsions:
REMARK  status: ('A' for Active; 'I' for Inactive)
REMARK    1  A    between atoms: C_5  and  C_7
REMARK    2  A    between atoms: C_7  and  C_9
REMARK    3  A    between atoms: C_7  and  N_23
REMARK    4  A    between atoms: C_15  and  C_17
REMARK    5  A    between atoms: C_26  and  C_29
REMARK                            x       y       z     vdW  Elec       q    Type
REMARK                         _______ _______ _______ _____ _____    ______ ____
ROOT
ATOM      1  C   UNL     1      -2.524   1.637   0.023  0.00  0.00    +0.007 C 
ENDROOT
BRANCH   1   2
ATOM      2  C   UNL     1      -2.885   1.266   1.438  0.00  0.00    +0.050 A 
ATOM      3  C   UNL     1      -2.799   0.077   2.047  0.00  0.00    +0.282 A 
ATOM      4  N   UNL     1      -3.180  -0.068   3.359  0.00  0.00    -0.169 N 
ATOM      5  C   UNL     1      -3.645   1.048   4.000  0.00  0.00    +0.200 A 
ATOM      6  S   UNL     1      -3.533   2.299   2.743  0.00  0.00    -0.050 S 
ATOM      7  N   UNL     1      -3.963   0.749   5.228  0.00  0.00    -0.197 NA
ATOM      8  C   UNL     1      -3.726  -0.552   5.443  0.00  0.00    +0.218 A 
ATOM      9  N   UNL     1      -3.251  -1.090   4.340  0.00  0.00    -0.138 NA
ATOM     10  O   UNL     1      -2.330  -0.999   1.360  0.00  0.00    -0.265 OA
BRANCH   8  11
ATOM     11  C   UNL     1      -3.960  -1.268   6.715  0.00  0.00    +0.173 A 
ATOM     12  C   UNL     1      -4.451  -0.722   7.859  0.00  0.00    +0.053 A 
ATOM     13  C   UNL     1      -4.508  -1.758   8.812  0.00  0.00    +0.042 A 
ATOM     14  C   UNL     1      -4.055  -2.874   8.208  0.00  0.00    +0.196 A 
ATOM     15  O   UNL     1      -3.730  -2.576   6.940  0.00  0.00    -0.460 OA
ENDBRANCH   8  11
ENDBRANCH   1   2
BRANCH   1  20
ATOM     16  C   UNL     1      -0.059   4.497   0.027  0.00  0.00    +0.000 A 
ATOM     17  C   UNL     1       1.148   3.822   0.012  0.00  0.00    +0.001 A 
ATOM     18  C   UNL     1       1.167   2.440   0.004  0.00  0.00    +0.020 A 
ATOM     19  C   UNL     1      -0.021   1.732   0.012  0.00  0.00    +0.043 A 
ATOM     20  C   UNL     1      -1.229   2.407   0.021  0.00  0.00    -0.038 A 
ATOM     21  C   UNL     1      -1.247   3.789   0.034  0.00  0.00    +0.004 A 
ATOM     22 CL   UNL     1       0.002  -0.004   0.002  0.00  0.00    -0.083 Cl
ENDBRANCH   1  20
BRANCH   1  23
ATOM     23  N   UNL     1      -3.589   2.468  -0.553  0.00  0.00    +0.388 N 
ATOM     24  C   UNL     1      -3.178   3.029  -1.846  0.00  0.00    -0.077 C 
ATOM     25  C   UNL     1      -4.249   4.001  -2.346  0.00  0.00    -0.006 C 
ATOM     26  C   UNL     1      -5.580   3.257  -2.490  0.00  0.00    +0.071 C 
ATOM     27  C   UNL     1      -5.961   2.642  -1.141  0.00  0.00    -0.006 C 
ATOM     28  C   UNL     1      -4.840   1.709  -0.677  0.00  0.00    -0.077 C 
ATOM     29  H   UNL     1      -3.773   3.308   0.133  0.00  0.00    -0.080 HD
BRANCH  26  30
ATOM     30  C   UNL     1      -6.652   4.223  -2.924  0.00  0.00    +0.213 C 
ATOM     31  O   UNL     1      -7.626   4.403  -2.224  0.00  0.00    -0.276 OA
ATOM     32  N   UNL     1      -6.529   4.888  -4.090  0.00  0.00    -0.329 N 
ATOM     33  H   UNL     1      -7.311   5.592  -4.407  0.00  0.00    +0.145 HD
ATOM     34  H   UNL     1      -5.645   4.725  -4.725  0.00  0.00    +0.145 HD
ENDBRANCH  26  30
ENDBRANCH   1  23
TORSDOF 5
