REMARK  Name = ZINC13017278
REMARK  6 active torsions:
REMARK  status: ('A' for Active; 'I' for Inactive)
REMARK    1  A    between atoms: C_1  and  O_2
REMARK    2  A    between atoms: O_2  and  C_3
REMARK    3  A    between atoms: C_3  and  C_5
REMARK    4  A    between atoms: C_8  and  C_11
REMARK    5  A    between atoms: N_27  and  C_30
REMARK    6  A    between atoms: C_30  and  C_31
REMARK                            x       y       z     vdW  Elec       q    Type
REMARK                         _______ _______ _______ _____ _____    ______ ____
ROOT
ATOM      1  C   UNL     1       0.851  -6.357   1.260  0.00  0.00    +0.072 C 
ATOM      2  C   UNL     1       2.286  -6.805   1.283  0.00  0.00    +0.033 A 
ATOM      3  C   UNL     1       2.866  -7.795   1.996  0.00  0.00    +0.088 A 
ATOM      4  N   UNL     1       4.217  -7.937   1.800  0.00  0.00    -0.311 N 
ATOM      5  H   UNL     1       4.708  -8.619   2.284  0.00  0.00    +0.170 HD
ATOM      6  C   UNL     1       4.860  -7.129   0.936  0.00  0.00    +0.289 A 
ATOM      7  O   UNL     1       6.043  -7.123   0.644  0.00  0.00    -0.260 OA
ATOM      8  S   UNL     1       3.638  -6.130   0.354  0.00  0.00    -0.030 S 
ATOM      9  S   UNL     1       1.903  -8.830   3.090  0.00  0.00    -0.093 S 
ATOM     10  C   UNL     1       0.230  -8.399   2.544  0.00  0.00    +0.152 C 
ATOM     11  C   UNL     1       0.175  -6.842   2.518  0.00  0.00    +0.110 C 
ATOM     12  C   UNL     1      -1.294  -6.614   2.693  0.00  0.00    +0.228 C 
ATOM     13  O   UNL     1      -1.943  -5.685   2.263  0.00  0.00    -0.275 OA
ATOM     14  N   UNL     1      -1.752  -7.659   3.430  0.00  0.00    -0.230 N 
ATOM     15  C   UNL     1      -0.854  -8.699   3.543  0.00  0.00    +0.236 C 
ATOM     16  O   UNL     1      -0.913  -9.654   4.288  0.00  0.00    -0.274 OA
ENDROOT
BRANCH   1  20
ATOM     17  C   UNL     1       0.680  -2.088   1.091  0.00  0.00    +0.059 A 
ATOM     18  C   UNL     1       0.101  -2.854   0.077  0.00  0.00    +0.015 A 
ATOM     19  C   UNL     1       0.160  -4.231   0.138  0.00  0.00    +0.005 A 
ATOM     20  C   UNL     1       0.791  -4.853   1.200  0.00  0.00    -0.039 A 
ATOM     21  C   UNL     1       1.366  -4.100   2.209  0.00  0.00    +0.005 A 
ATOM     22  C   UNL     1       1.320  -2.722   2.157  0.00  0.00    +0.015 A 
BRANCH  17  23
ATOM     23  C   UNL     1       0.620  -0.613   1.032  0.00  0.00    +0.339 C 
ATOM     24  O   UNL     1       1.129   0.051   1.913  0.00  0.00    -0.245 OA
BRANCH  23  26
ATOM     25  C   UNL     1      -0.017   1.425   0.010  0.00  0.00    +0.280 C 
ATOM     26  O   UNL     1       0.002  -0.004   0.002  0.00  0.00    -0.464 OA
ENDBRANCH  23  26
ENDBRANCH  17  23
ENDBRANCH   1  20
BRANCH  14  27
ATOM     27  C   UNL     1      -3.084  -7.687   4.040  0.00  0.00    +0.241 C 
BRANCH  27  28
ATOM     28  C   UNL     1      -4.067  -8.296   3.073  0.00  0.00    +0.373 C 
ATOM     29  O   UNL     1      -3.690  -8.671   1.976  0.00  0.00    -0.245 OA
ATOM     30  O   UNL     1      -5.239  -8.412   3.388  0.00  0.00    -0.245 OA
ENDBRANCH  27  28
ENDBRANCH  14  27
TORSDOF 5
