REMARK  Name = ZINC17242457
REMARK  7 active torsions:
REMARK  status: ('A' for Active; 'I' for Inactive)
REMARK    1  A    between atoms: C_1  and  C_2
REMARK    2  A    between atoms: C_2  and  C_35
REMARK    3  A    between atoms: C_6  and  C_27
REMARK    4  A    between atoms: C_11  and  S_15
REMARK    5  A    between atoms: S_15  and  C_16
REMARK    6  A    between atoms: C_16  and  C_17
REMARK    7  A    between atoms: C_30  and  O_33
REMARK                            x       y       z     vdW  Elec       q    Type
REMARK                         _______ _______ _______ _____ _____    ______ ____
ROOT
ATOM      1  C   UNL     1      -0.019   1.526   0.010  0.00  0.00    +0.011 C 
ATOM      2  C   UNL     1       0.002  -0.004   0.002  0.00  0.00    -0.023 C 
ATOM      3  C   UNL     1      -1.433  -0.537   0.029  0.00  0.00    +0.086 C 
ATOM      4  C   UNL     1      -1.403  -2.041   0.086  0.00  0.00    +0.162 C 
ATOM      5  C   UNL     1      -0.390  -2.696   0.670  0.00  0.00    +0.028 C 
ATOM      6  C   UNL     1      -0.397  -4.215   0.708  0.00  0.00    +0.093 C 
ATOM      7  C   UNL     1       0.789  -4.856   1.388  0.00  0.00    +0.075 A 
ATOM      8  C   UNL     1       1.780  -4.021   1.917  0.00  0.00    +0.165 A 
ATOM      9  N   UNL     1       2.829  -4.592   2.519  0.00  0.00    -0.202 NA
ATOM     10  C   UNL     1       2.920  -5.910   2.606  0.00  0.00    +0.194 A 
ATOM     11  N   UNL     1       1.993  -6.719   2.111  0.00  0.00    -0.183 NA
ATOM     12  C   UNL     1       0.917  -6.226   1.497  0.00  0.00    +0.280 A 
ATOM     13  O   UNL     1      -0.031  -7.053   0.992  0.00  0.00    -0.265 OA
ATOM     14  N   UNL     1       1.682  -2.676   1.824  0.00  0.00    -0.232 NA
ATOM     15  C   UNL     1       0.700  -2.025   1.259  0.00  0.00    +0.052 C 
ATOM     16  C   UNL     1       0.742  -0.514   1.242  0.00  0.00    +0.062 C 
ATOM     17  O   UNL     1      -2.417  -2.743  -0.460  0.00  0.00    -0.292 OA
ATOM     18  C   UNL     1       0.712  -0.500  -1.259  0.00  0.00    +0.011 C 
ENDROOT
BRANCH   6  19
ATOM     19  C   UNL     1      -1.646  -4.663   1.424  0.00  0.00    -0.035 A 
ATOM     20  C   UNL     1      -1.871  -4.271   2.730  0.00  0.00    +0.008 A 
ATOM     21  C   UNL     1      -3.014  -4.681   3.389  0.00  0.00    +0.046 A 
ATOM     22  C   UNL     1      -3.937  -5.486   2.737  0.00  0.00    +0.117 A 
ATOM     23  C   UNL     1      -3.709  -5.877   1.426  0.00  0.00    +0.046 A 
ATOM     24  C   UNL     1      -2.567  -5.460   0.770  0.00  0.00    +0.008 A 
BRANCH  22  25
ATOM     25  O   UNL     1      -5.062  -5.891   3.382  0.00  0.00    -0.507 OA
ATOM     26  H   UNL     1      -5.812  -5.289   3.281  0.00  0.00    +0.292 HD
ENDBRANCH  22  25
ENDBRANCH   6  19
BRANCH  10  27
ATOM     27  S   UNL     1       4.322  -6.615   3.408  0.00  0.00    -0.081 S 
BRANCH  27  28
ATOM     28  C   UNL     1       4.037  -8.403   3.299  0.00  0.00    +0.115 C 
BRANCH  28  29
ATOM     29  C   UNL     1       5.179  -9.134   3.957  0.00  0.00    -0.002 A 
ATOM     30  C   UNL     1       6.288  -9.494   3.215  0.00  0.00    +0.007 A 
ATOM     31  C   UNL     1       7.336 -10.165   3.818  0.00  0.00    +0.000 A 
ATOM     32  C   UNL     1       7.275 -10.477   5.163  0.00  0.00    +0.003 A 
ATOM     33  C   UNL     1       6.167 -10.118   5.907  0.00  0.00    +0.038 A 
ATOM     34  C   UNL     1       5.119  -9.441   5.305  0.00  0.00    +0.127 A 
ATOM     35  F   UNL     1       4.038  -9.086   6.033  0.00  0.00    -0.205 F 
ENDBRANCH  28  29
ENDBRANCH  27  28
ENDBRANCH  10  27
TORSDOF 5
