REMARK  Name = ZINC39669115
REMARK  4 active torsions:
REMARK  status: ('A' for Active; 'I' for Inactive)
REMARK    1  A    between atoms: C_10  and  C_12
REMARK    2  A    between atoms: C_12  and  N_13
REMARK    3  A    between atoms: C_14  and  C_16
REMARK    4  A    between atoms: C_27  and  C_29
REMARK                            x       y       z     vdW  Elec       q    Type
REMARK                         _______ _______ _______ _____ _____    ______ ____
ROOT
ATOM      1  C   UNL     1       7.912  -0.568  -2.153  0.00  0.00    +0.100 C 
ATOM      2  C   UNL     1       7.832  -2.102  -2.323  0.00  0.00    +0.121 C 
ATOM      3  N   UNL     1       8.210  -2.341  -3.736  0.00  0.00    -0.296 N 
ATOM      4  C   UNL     1       9.311  -1.381  -3.991  0.00  0.00    +0.115 C 
ATOM      5  C   UNL     1       8.887  -0.099  -3.246  0.00  0.00    -0.004 C 
ATOM      6  C   UNL     1      10.103   0.573  -2.617  0.00  0.00    -0.010 C 
ATOM      7  C   UNL     1      11.029   1.083  -3.726  0.00  0.00    -0.082 C 
ATOM      8  N   UNL     1      10.302   2.035  -4.574  0.00  0.00    +0.379 N 
ATOM      9  C   UNL     1       9.188   1.356  -5.248  0.00  0.00    -0.082 C 
ATOM     10  C   UNL     1       8.185   0.859  -4.204  0.00  0.00    -0.010 C 
ATOM     11  C   UNL     1       7.676  -3.232  -4.595  0.00  0.00    +0.249 C 
ATOM     12  O   UNL     1       8.159  -3.376  -5.701  0.00  0.00    -0.270 OA
ATOM     13  H   UNL     1       9.941   2.785  -4.003  0.00  0.00    -0.086 HD
ATOM     14  H   UNL     1      10.931   2.415  -5.266  0.00  0.00    -0.086 HD
ENDROOT
BRANCH  11  15
ATOM     15  C   UNL     1       6.502  -4.032  -4.192  0.00  0.00    +0.073 A 
ATOM     16  C   UNL     1       6.363  -4.459  -2.870  0.00  0.00    +0.036 A 
ATOM     17  C   UNL     1       5.264  -5.206  -2.501  0.00  0.00    +0.042 A 
ATOM     18  C   UNL     1       4.298  -5.535  -3.438  0.00  0.00    +0.023 A 
ATOM     19  C   UNL     1       4.427  -5.117  -4.749  0.00  0.00    +0.040 A 
ATOM     20  C   UNL     1       5.521  -4.363  -5.133  0.00  0.00    +0.136 A 
ATOM     21  F   UNL     1       5.644  -3.950  -6.413  0.00  0.00    -0.205 F 
ATOM     22 CL   UNL     1       5.091  -5.737  -0.857  0.00  0.00    -0.084 Cl
ENDBRANCH  11  15
BRANCH   1  24
ATOM     23  N   UNL     1       6.249   1.218  -1.749  0.00  0.00    -0.312 N 
ATOM     24  C   UNL     1       6.555   0.054  -2.357  0.00  0.00    +0.218 C 
ATOM     25  O   UNL     1       5.739  -0.492  -3.068  0.00  0.00    -0.275 OA
ATOM     26  H   UNL     1       6.902   1.654  -1.180  0.00  0.00    +0.149 HD
BRANCH  23  27
ATOM     27  C   UNL     1       4.930   1.823  -1.948  0.00  0.00    +0.140 C 
BRANCH  27  37
ATOM     28  C   UNL     1       0.999   4.881  -1.814  0.00  0.00    +0.000 A 
ATOM     29  C   UNL     1       1.714   4.341  -2.867  0.00  0.00    +0.000 A 
ATOM     30  C   UNL     1       2.953   3.776  -2.640  0.00  0.00    +0.006 A 
ATOM     31  C   UNL     1       3.484   3.747  -1.359  0.00  0.00    -0.014 A 
ATOM     32  C   UNL     1       2.769   4.282  -0.309  0.00  0.00    -0.040 A 
ATOM     33  C   UNL     1       1.527   4.852  -0.538  0.00  0.00    +0.004 A 
ATOM     34  C   UNL     1       3.307   4.257   1.099  0.00  0.00    +0.063 C 
ATOM     35  C   UNL     1       4.812   3.985   1.074  0.00  0.00    +0.165 C 
ATOM     36  O   UNL     1       5.054   2.852   0.231  0.00  0.00    -0.370 OA
ATOM     37  C   UNL     1       4.842   3.127  -1.153  0.00  0.00    +0.165 C 
ENDBRANCH  27  37
ENDBRANCH  23  27
ENDBRANCH   1  24
TORSDOF 4
