REMARK  Name = ZINC39711416
REMARK  11 active torsions:
REMARK  status: ('A' for Active; 'I' for Inactive)
REMARK    1  A    between atoms: C_1  and  C_2
REMARK    2  A    between atoms: C_2  and  O_3
REMARK    3  A    between atoms: O_3  and  C_4
REMARK    4  A    between atoms: C_11  and  C_16
REMARK    5  A    between atoms: C_16  and  C_18
REMARK    6  A    between atoms: C_16  and  N_28
REMARK    7  A    between atoms: N_23  and  C_24
REMARK    8  A    between atoms: C_24  and  C_25
REMARK    9  A    between atoms: C_24  and  C_26
REMARK   10  A    between atoms: C_24  and  C_27
REMARK   11  A    between atoms: N_31  and  C_34
REMARK                            x       y       z     vdW  Elec       q    Type
REMARK                         _______ _______ _______ _____ _____    ______ ____
ROOT
ATOM      1  C   UNL     1       3.748  -6.269   3.530  0.00  0.00    +0.115 C 
ENDROOT
BRANCH   1   9
ATOM      2  C   UNL     1       0.324  -8.795  -0.467  0.00  0.00    +0.121 A 
ATOM      3  C   UNL     1      -0.724  -8.934   0.451  0.00  0.00    +0.047 A 
ATOM      4  C   UNL     1      -0.728  -8.309   1.656  0.00  0.00    +0.027 A 
ATOM      5  C   UNL     1       0.344  -7.480   2.036  0.00  0.00    +0.041 A 
ATOM      6  N   UNL     1       0.327  -6.872   3.223  0.00  0.00    -0.284 N 
ATOM      7  C   UNL     1       1.299  -6.081   3.643  0.00  0.00    +0.226 C 
ATOM      8  O   UNL     1       1.228  -5.554   4.737  0.00  0.00    -0.275 OA
ATOM      9  C   UNL     1       2.500  -5.833   2.759  0.00  0.00    +0.119 C 
ATOM     10  C   UNL     1       2.525  -6.522   1.408  0.00  0.00    -0.003 C 
ATOM     11  C   UNL     1       1.462  -7.314   1.091  0.00  0.00    -0.004 A 
ATOM     12  C   UNL     1       1.409  -8.020  -0.190  0.00  0.00    +0.055 A 
ATOM     13  H   UNL     1      -0.435  -7.018   3.805  0.00  0.00    +0.155 HD
BRANCH   2  14
ATOM     14  O   UNL     1       0.260  -9.452  -1.656  0.00  0.00    -0.492 OA
BRANCH  14  16
ATOM     15  C   UNL     1      -0.793 -10.907  -3.272  0.00  0.00    +0.048 C 
ATOM     16  C   UNL     1      -0.900 -10.251  -1.894  0.00  0.00    +0.225 C 
ENDBRANCH  14  16
ENDBRANCH   2  14
ENDBRANCH   1   9
BRANCH   1  17
ATOM     17  N   UNL     1       3.562  -7.637   4.031  0.00  0.00    -0.299 NA
ATOM     18  C   UNL     1       2.934  -8.490   3.012  0.00  0.00    +0.066 C 
ATOM     19  C   UNL     1       2.812  -9.917   3.550  0.00  0.00    -0.063 C 
ATOM     20  N   UNL     1       2.002  -9.911   4.776  0.00  0.00    +0.383 N 
ATOM     21  C   UNL     1       2.655  -9.075   5.792  0.00  0.00    -0.063 C 
ATOM     22  C   UNL     1       2.775  -7.641   5.272  0.00  0.00    +0.066 C 
ATOM     23  H   UNL     1       1.087  -9.539   4.572  0.00  0.00    -0.081 HD
BRANCH  20  24
ATOM     24  C   UNL     1       1.871 -11.284   5.282  0.00  0.00    -0.068 C 
ATOM     25  C   UNL     1       1.190 -12.154   4.225  0.00  0.00    -0.015 C 
ATOM     26  C   UNL     1       1.052 -13.584   4.752  0.00  0.00    -0.002 C 
ATOM     27  C   UNL     1       0.209 -13.578   6.029  0.00  0.00    -0.000 C 
ATOM     28  C   UNL     1       0.890 -12.707   7.086  0.00  0.00    -0.002 C 
ATOM     29  C   UNL     1       1.027 -11.277   6.559  0.00  0.00    -0.015 C 
ENDBRANCH  20  24
ENDBRANCH   1  17
BRANCH   1  30
ATOM     30  C   UNL     1       4.963  -6.227   2.600  0.00  0.00    +0.236 C 
ATOM     31  N   UNL     1       4.847  -7.258   1.559  0.00  0.00    -0.148 NA
ATOM     32  N   UNL     1       5.793  -8.040   1.665  0.00  0.00    -0.069 NA
ATOM     33  N   UNL     1       6.654  -7.711   2.712  0.00  0.00    -0.179 N 
ATOM     34  N   UNL     1       6.192  -6.581   3.340  0.00  0.00    -0.179 NA
ATOM     35  H   UNL     1       7.454  -8.202   2.958  0.00  0.00    +0.191 HD
BRANCH  34  36
ATOM     36  C   UNL     1       7.179  -5.496   3.270  0.00  0.00    +0.035 C 
ATOM     37  C   UNL     1       6.628  -4.258   3.981  0.00  0.00    +0.029 C 
ATOM     38  C   UNL     1       8.475  -5.940   3.951  0.00  0.00    +0.029 C 
ATOM     39  C   UNL     1       7.463  -5.158   1.805  0.00  0.00    +0.029 C 
ENDBRANCH  34  36
ENDBRANCH   1  30
TORSDOF 7
