REMARK  Name = ZINC40844720
REMARK  7 active torsions:
REMARK  status: ('A' for Active; 'I' for Inactive)
REMARK    1  A    between atoms: C_1  and  O_2
REMARK    2  A    between atoms: O_2  and  C_3
REMARK    3  A    between atoms: C_3  and  C_5
REMARK    4  A    between atoms: C_9  and  N_10
REMARK    5  A    between atoms: N_13  and  N_14
REMARK    6  A    between atoms: C_15  and  C_16
REMARK    7  A    between atoms: C_19  and  O_23
REMARK                            x       y       z     vdW  Elec       q    Type
REMARK                         _______ _______ _______ _____ _____    ______ ____
ROOT
ATOM      1  N   UNL     1       2.822  -2.380   0.179  0.00  0.00    -0.262 N 
ATOM      2  C   UNL     1       3.469  -3.111   1.109  0.00  0.00    +0.324 C 
ATOM      3  O   UNL     1       3.116  -4.252   1.339  0.00  0.00    -0.251 OA
ATOM      4  N   UNL     1       4.506  -2.578   1.784  0.00  0.00    -0.191 N 
ATOM      5  H   UNL     1       3.104  -1.470  -0.004  0.00  0.00    +0.157 HD
ATOM      6  H   UNL     1       4.972  -3.104   2.453  0.00  0.00    +0.179 HD
ENDROOT
BRANCH   1  11
ATOM      7  C   UNL     1       0.979  -2.331  -1.497  0.00  0.00    +0.091 A 
ATOM      8  C   UNL     1      -0.086  -3.130  -2.078  0.00  0.00    -0.021 A 
ATOM      9  C   UNL     1      -0.183  -4.376  -1.568  0.00  0.00    -0.004 A 
ATOM     10  S   UNL     1       1.104  -4.468  -0.358  0.00  0.00    -0.077 S 
ATOM     11  C   UNL     1       1.756  -2.929  -0.514  0.00  0.00    +0.088 A 
ATOM     12  C   UNL     1      -1.172  -5.432  -1.954  0.00  0.00    +0.043 C 
ATOM     13  C   UNL     1      -2.303  -4.765  -2.752  0.00  0.00    +0.005 C 
ATOM     14  C   UNL     1      -1.687  -3.863  -3.825  0.00  0.00    +0.005 C 
ATOM     15  C   UNL     1      -1.031  -2.646  -3.168  0.00  0.00    +0.037 C 
BRANCH   7  16
ATOM     16  C   UNL     1       1.226  -0.955  -1.933  0.00  0.00    +0.342 C 
ATOM     17  O   UNL     1       1.992  -0.737  -2.853  0.00  0.00    -0.245 OA
BRANCH  16  19
ATOM     18  C   UNL     1       0.893   1.386  -1.793  0.00  0.00    +0.280 C 
ATOM     19  O   UNL     1       0.605   0.070  -1.315  0.00  0.00    -0.464 OA
ENDBRANCH  16  19
ENDBRANCH   7  16
ENDBRANCH   1  11
BRANCH   4  20
ATOM     20  N   UNL     1       4.913  -1.264   1.519  0.00  0.00    -0.186 NA
ATOM     21  C   UNL     1       5.982  -0.789   2.081  0.00  0.00    +0.138 C 
BRANCH  21  22
ATOM     22  C   UNL     1       7.014  -1.708   2.595  0.00  0.00    -0.004 A 
ATOM     23  C   UNL     1       6.992  -3.059   2.236  0.00  0.00    +0.013 A 
ATOM     24  C   UNL     1       7.958  -3.914   2.719  0.00  0.00    +0.047 A 
ATOM     25  C   UNL     1       8.954  -3.437   3.561  0.00  0.00    +0.131 A 
ATOM     26  C   UNL     1       8.980  -2.095   3.921  0.00  0.00    +0.060 A 
ATOM     27  C   UNL     1       8.020  -1.231   3.438  0.00  0.00    +0.028 A 
ATOM     28 BR   UNL     1      10.338  -1.452   5.069  0.00  0.00    -0.047 Br
BRANCH  25  29
ATOM     29  O   UNL     1       9.904  -4.284   4.035  0.00  0.00    -0.506 OA
ATOM     30  H   UNL     1      10.687  -4.352   3.472  0.00  0.00    +0.292 HD
ENDBRANCH  25  29
ENDBRANCH  21  22
ENDBRANCH   4  20
TORSDOF 6
