REMARK  Name = ZINC07814234
REMARK  6 active torsions:
REMARK  status: ('A' for Active; 'I' for Inactive)
REMARK    1  A    between atoms: C_1  and  C_2
REMARK    2  A    between atoms: C_2  and  N_3
REMARK    3  A    between atoms: C_4  and  C_6
REMARK    4  A    between atoms: N_9  and  S_12
REMARK    5  A    between atoms: S_12  and  C_15
REMARK    6  A    between atoms: C_17  and  N_22
REMARK                            x       y       z     vdW  Elec       q    Type
REMARK                         _______ _______ _______ _____ _____    ______ ____
ROOT
ATOM      1  S   UNL     1      -5.100   2.623   2.196  0.00  0.00    +0.062 S 
ATOM      2  O   UNL     1      -5.138   3.874   2.869  0.00  0.00    -0.153 OA
ATOM      3  O   UNL     1      -6.201   2.126   1.448  0.00  0.00    -0.153 OA
ENDROOT
BRANCH   1   4
ATOM      4  C   UNL     1      -4.729   1.407   3.416  0.00  0.00    +0.126 A 
ATOM      5  C   UNL     1      -5.461   0.235   3.468  0.00  0.00    +0.062 A 
ATOM      6  C   UNL     1      -5.167  -0.722   4.421  0.00  0.00    +0.128 A 
ATOM      7  C   UNL     1      -4.148  -0.502   5.330  0.00  0.00    +0.034 A 
ATOM      8  C   UNL     1      -3.420   0.671   5.282  0.00  0.00    +0.024 A 
ATOM      9  C   UNL     1      -3.710   1.627   4.325  0.00  0.00    +0.067 A 
ATOM     10 CL   UNL     1      -2.795   3.101   4.264  0.00  0.00    -0.082 Cl
BRANCH   6  11
ATOM     11  N   UNL     1      -5.947  -1.978   4.473  0.00  0.00    +0.056 N 
ATOM     12  O   UNL     1      -5.691  -2.819   5.316  0.00  0.00    -0.126 OA
ATOM     13  O   UNL     1      -6.844  -2.171   3.673  0.00  0.00    -0.126 OA
ENDBRANCH   6  11
ENDBRANCH   1   4
BRANCH   1  17
ATOM     14  C   UNL     1      -1.227   2.119   0.156  0.00  0.00    +0.077 C 
ATOM     15  C   UNL     1      -1.404   3.010   1.387  0.00  0.00    +0.030 C 
ATOM     16  C   UNL     1      -2.768   3.705   1.318  0.00  0.00    +0.110 C 
ATOM     17  N   UNL     1      -3.811   2.684   1.157  0.00  0.00    -0.176 NA
ATOM     18  C   UNL     1      -3.690   1.717   0.058  0.00  0.00    +0.110 C 
ATOM     19  C   UNL     1      -2.317   1.044   0.141  0.00  0.00    +0.030 C 
BRANCH  14  21
ATOM     20  N   UNL     1       1.244   2.215   0.218  0.00  0.00    -0.315 N 
ATOM     21  C   UNL     1       0.128   1.460   0.204  0.00  0.00    +0.216 C 
ATOM     22  O   UNL     1       0.213   0.251   0.224  0.00  0.00    -0.276 OA
ATOM     23  H   UNL     1       1.175   3.183   0.202  0.00  0.00    +0.149 HD
BRANCH  20  25
ATOM     24  C   UNL     1       3.650   2.648   0.268  0.00  0.00    +0.024 C 
ATOM     25  C   UNL     1       2.561   1.574   0.259  0.00  0.00    +0.101 C 
ENDBRANCH  20  25
ENDBRANCH  14  21
ENDBRANCH   1  17
TORSDOF 5
