REMARK  Name = ZINC36404278
REMARK  8 active torsions:
REMARK  status: ('A' for Active; 'I' for Inactive)
REMARK    1  A    between atoms: C_1  and  C_2
REMARK    2  A    between atoms: C_2  and  O_3
REMARK    3  A    between atoms: O_3  and  C_4
REMARK    4  A    between atoms: C_4  and  C_6
REMARK    5  A    between atoms: C_7  and  C_19
REMARK    6  A    between atoms: C_12  and  C_13
REMARK    7  A    between atoms: C_19  and  N_20
REMARK    8  A    between atoms: C_24  and  C_25
REMARK                            x       y       z     vdW  Elec       q    Type
REMARK                         _______ _______ _______ _____ _____    ______ ____
ROOT
ATOM      1  C   UNL     1       2.962  -3.823  -2.863  0.00  0.00    +0.076 C 
ATOM      2  C   UNL     1       2.700  -5.125  -2.619  0.00  0.00    +0.008 C 
ATOM      3  N   UNL     1       3.282  -6.112  -3.363  0.00  0.00    -0.274 N 
ATOM      4  C   UNL     1       4.136  -5.880  -4.367  0.00  0.00    +0.304 C 
ATOM      5  O   UNL     1       4.604  -6.825  -4.972  0.00  0.00    -0.252 OA
ATOM      6  N   UNL     1       4.495  -4.632  -4.729  0.00  0.00    -0.288 N 
ATOM      7  C   UNL     1       3.918  -3.495  -3.993  0.00  0.00    +0.143 C 
ATOM      8  H   UNL     1       3.064  -7.033  -3.151  0.00  0.00    +0.156 HD
ATOM      9  H   UNL     1       5.117  -4.487  -5.460  0.00  0.00    +0.151 HD
ENDROOT
BRANCH   7  10
ATOM     10  C   UNL     1       3.189  -2.619  -4.979  0.00  0.00    -0.023 A 
ATOM     11  C   UNL     1       2.318  -3.183  -5.892  0.00  0.00    +0.006 A 
ATOM     12  C   UNL     1       1.650  -2.379  -6.797  0.00  0.00    +0.000 A 
ATOM     13  C   UNL     1       1.852  -1.011  -6.787  0.00  0.00    +0.000 A 
ATOM     14  C   UNL     1       2.722  -0.448  -5.873  0.00  0.00    +0.000 A 
ATOM     15  C   UNL     1       3.387  -1.251  -4.965  0.00  0.00    +0.006 A 
ENDBRANCH   7  10
BRANCH   1  16
ATOM     16  C   UNL     1       2.360  -2.799  -2.095  0.00  0.00    +0.339 C 
ATOM     17  O   UNL     1       3.034  -2.140  -1.325  0.00  0.00    -0.245 OA
BRANCH  16  18
ATOM     18  O   UNL     1       1.039  -2.554  -2.215  0.00  0.00    -0.462 OA
BRANCH  18  20
ATOM     19  C   UNL     1      -1.002  -1.375  -1.680  0.00  0.00    +0.048 C 
ATOM     20  C   UNL     1       0.498  -1.505  -1.409  0.00  0.00    +0.229 C 
ENDBRANCH  18  20
ENDBRANCH  16  18
ENDBRANCH   1  16
BRANCH   2  21
ATOM     21  C   UNL     1       1.751  -5.495  -1.509  0.00  0.00    -0.026 C 
BRANCH  21  22
ATOM     22  N   UNL     1       0.532  -6.082  -2.081  0.00  0.00    +0.388 N 
ATOM     23  C   UNL     1       0.852  -7.386  -2.699  0.00  0.00    -0.078 C 
ATOM     24  C   UNL     1      -0.388  -8.271  -2.418  0.00  0.00    -0.020 C 
ATOM     25  C   UNL     1      -0.788  -7.807  -0.993  0.00  0.00    -0.013 C 
ATOM     26  C   UNL     1      -0.462  -6.298  -1.015  0.00  0.00    -0.037 C 
ATOM     27  H   UNL     1       0.152  -5.462  -2.780  0.00  0.00    -0.080 HD
BRANCH  26  28
ATOM     28  C   UNL     1       0.111  -5.878   0.314  0.00  0.00    -0.057 A 
ATOM     29  C   UNL     1      -0.405  -4.776   0.971  0.00  0.00    +0.006 A 
ATOM     30  C   UNL     1       0.119  -4.387   2.189  0.00  0.00    +0.049 A 
ATOM     31  C   UNL     1       1.164  -5.102   2.756  0.00  0.00    +0.162 A 
ATOM     32  C   UNL     1       1.681  -6.211   2.097  0.00  0.00    +0.162 A 
ATOM     33  C   UNL     1       1.148  -6.598   0.877  0.00  0.00    +0.051 A 
ATOM     34  O   UNL     1       2.701  -6.931   2.639  0.00  0.00    -0.485 OA
ATOM     35  C   UNL     1       3.451  -6.299   3.682  0.00  0.00    +0.270 C 
ATOM     36  C   UNL     1       2.463  -5.661   4.668  0.00  0.00    +0.270 C 
ATOM     37  O   UNL     1       1.673  -4.704   3.954  0.00  0.00    -0.485 OA
ENDBRANCH  26  28
ENDBRANCH  21  22
ENDBRANCH   2  21
TORSDOF 7
