REMARK  Name = ZINC38688899
REMARK  12 active torsions:
REMARK  status: ('A' for Active; 'I' for Inactive)
REMARK    1  A    between atoms: C_1  and  C_2
REMARK    2  A    between atoms: C_2  and  O_3
REMARK    3  A    between atoms: O_3  and  C_4
REMARK    4  A    between atoms: C_9  and  C_31
REMARK    5  A    between atoms: C_11  and  N_14
REMARK    6  A    between atoms: C_15  and  C_17
REMARK    7  A    between atoms: C_17  and  N_18
REMARK    8  A    between atoms: C_21  and  C_24
REMARK    9  A    between atoms: C_24  and  C_25
REMARK   10  A    between atoms: C_31  and  O_33
REMARK   11  A    between atoms: O_33  and  C_34
REMARK   12  A    between atoms: C_34  and  C_35
REMARK                            x       y       z     vdW  Elec       q    Type
REMARK                         _______ _______ _______ _____ _____    ______ ____
ROOT
ATOM      1  N   UNL     1       2.857  -5.185  -4.385  0.00  0.00    -0.288 N 
ATOM      2  C   UNL     1       3.253  -4.117  -5.104  0.00  0.00    +0.200 C 
ATOM      3  O   UNL     1       3.032  -2.996  -4.698  0.00  0.00    -0.278 OA
ATOM      4  H   UNL     1       3.102  -6.080  -4.669  0.00  0.00    +0.155 HD
ENDROOT
BRANCH   1  11
ATOM      5  C   UNL     1       0.788  -8.136  -1.690  0.00  0.00    +0.121 A 
ATOM      6  C   UNL     1       0.119  -7.528  -0.618  0.00  0.00    +0.047 A 
ATOM      7  C   UNL     1       0.117  -6.185  -0.446  0.00  0.00    +0.029 A 
ATOM      8  C   UNL     1       0.808  -5.353  -1.365  0.00  0.00    +0.045 A 
ATOM      9  N   UNL     1       0.954  -4.043  -1.415  0.00  0.00    -0.367 N 
ATOM     10  C   UNL     1       1.771  -3.698  -2.583  0.00  0.00    +0.234 C 
ATOM     11  C   UNL     1       2.112  -5.009  -3.256  0.00  0.00    +0.053 C 
ATOM     12  C   UNL     1       1.512  -5.992  -2.490  0.00  0.00    +0.021 A 
ATOM     13  C   UNL     1       1.475  -7.403  -2.606  0.00  0.00    +0.057 A 
ATOM     14  H   UNL     1       0.581  -3.410  -0.782  0.00  0.00    +0.161 HD
BRANCH  10  15
ATOM     15  C   UNL     1       3.030  -2.994  -2.146  0.00  0.00    +0.336 C 
ATOM     16  O   UNL     1       3.626  -3.375  -1.167  0.00  0.00    -0.248 OA
BRANCH  15  17
ATOM     17  O   UNL     1       3.488  -1.943  -2.845  0.00  0.00    -0.463 OA
BRANCH  17  18
ATOM     18  C   UNL     1       4.686  -1.324  -2.374  0.00  0.00    +0.229 C 
ATOM     19  C   UNL     1       5.051  -0.154  -3.290  0.00  0.00    +0.048 C 
ENDBRANCH  17  18
ENDBRANCH  15  17
ENDBRANCH  10  15
BRANCH   5  20
ATOM     20  O   UNL     1       0.754  -9.490  -1.812  0.00  0.00    -0.492 OA
BRANCH  20  22
ATOM     21  C   UNL     1       0.094 -11.711  -1.124  0.00  0.00    +0.048 C 
ATOM     22  C   UNL     1       0.018 -10.213  -0.823  0.00  0.00    +0.225 C 
ENDBRANCH  20  22
ENDBRANCH   5  20
ENDBRANCH   1  11
BRANCH   2  23
ATOM     23  C   UNL     1       3.971  -4.315  -6.415  0.00  0.00    +0.019 C 
BRANCH  23  24
ATOM     24  N   UNL     1       4.293  -3.007  -6.999  0.00  0.00    +0.385 N 
ATOM     25  C   UNL     1       3.050  -2.301  -7.331  0.00  0.00    -0.078 C 
ATOM     26  C   UNL     1       3.378  -0.905  -7.865  0.00  0.00    -0.015 C 
ATOM     27  C   UNL     1       4.243  -1.036  -9.122  0.00  0.00    -0.010 C 
ATOM     28  C   UNL     1       5.503  -1.838  -8.781  0.00  0.00    -0.015 C 
ATOM     29  C   UNL     1       5.096  -3.199  -8.213  0.00  0.00    -0.078 C 
ATOM     30  H   UNL     1       4.819  -2.462  -6.333  0.00  0.00    -0.081 HD
BRANCH  27  31
ATOM     31  C   UNL     1       4.642   0.356  -9.616  0.00  0.00    +0.038 C 
BRANCH  31  32
ATOM     32  C   UNL     1       5.389   0.232 -10.919  0.00  0.00    -0.047 A 
ATOM     33  C   UNL     1       6.763   0.087 -10.917  0.00  0.00    +0.003 A 
ATOM     34  C   UNL     1       7.448  -0.027 -12.112  0.00  0.00    +0.000 A 
ATOM     35  C   UNL     1       6.759   0.004 -13.309  0.00  0.00    +0.000 A 
ATOM     36  C   UNL     1       5.384   0.148 -13.312  0.00  0.00    +0.000 A 
ATOM     37  C   UNL     1       4.698   0.258 -12.116  0.00  0.00    +0.003 A 
ENDBRANCH  31  32
ENDBRANCH  27  31
ENDBRANCH  23  24
ENDBRANCH   2  23
TORSDOF 10
