REMARK  Name = ZINC37359179
REMARK  2 active torsions:
REMARK  status: ('A' for Active; 'I' for Inactive)
REMARK    1  A    between atoms: C_6  and  C_7
REMARK    2  A    between atoms: C_7  and  C_9
REMARK                            x       y       z     vdW  Elec       q    Type
REMARK                         _______ _______ _______ _____ _____    ______ ____
ROOT
ATOM      1  C   UNL     1       1.208  -0.651  -0.300  0.00  0.00    +0.013 A 
ATOM      2  C   UNL     1       2.384   0.060  -0.331  0.00  0.00    +0.024 A 
ATOM      3  C   UNL     1       2.384   1.435  -0.085  0.00  0.00    +0.037 A 
ATOM      4  C   UNL     1       1.179   2.075   0.191  0.00  0.00    -0.017 A 
ATOM      5  C   UNL     1      -0.001   1.376   0.224  0.00  0.00    +0.017 A 
ATOM      6  C   UNL     1       0.001  -0.002  -0.022  0.00  0.00    +0.023 A 
ATOM      7  C   UNL     1       1.513   3.534   0.406  0.00  0.00    +0.133 C 
ATOM      8  C   UNL     1       3.014   3.597   0.216  0.00  0.00    +0.222 C 
ATOM      9  O   UNL     1       3.709   4.587   0.299  0.00  0.00    -0.275 OA
ATOM     10  N   UNL     1       3.430   2.350  -0.062  0.00  0.00    -0.285 N 
ATOM     11  H   UNL     1       4.357   2.116  -0.229  0.00  0.00    +0.155 HD
ENDROOT
BRANCH   6  12
ATOM     12  C   UNL     1      -1.262  -0.764   0.011  0.00  0.00    +0.193 C 
ATOM     13  O   UNL     1      -1.242  -1.978  -0.068  0.00  0.00    -0.287 OA
BRANCH  12  14
ATOM     14  C   UNL     1      -2.549  -0.055   0.139  0.00  0.00    +0.026 A 
ATOM     15  C   UNL     1      -2.719   1.201  -0.453  0.00  0.00    +0.015 A 
ATOM     16  C   UNL     1      -3.921   1.861  -0.333  0.00  0.00    +0.050 A 
ATOM     17  C   UNL     1      -4.968   1.285   0.375  0.00  0.00    +0.166 A 
ATOM     18  C   UNL     1      -4.805   0.032   0.969  0.00  0.00    +0.167 A 
ATOM     19  C   UNL     1      -3.604  -0.638   0.847  0.00  0.00    +0.061 A 
ATOM     20  O   UNL     1      -5.968  -0.306   1.598  0.00  0.00    -0.453 OA
ATOM     21  C   UNL     1      -6.704   0.925   1.732  0.00  0.00    +0.466 C 
ATOM     22  O   UNL     1      -6.232   1.727   0.634  0.00  0.00    -0.453 OA
ENDBRANCH  12  14
ENDBRANCH   6  12
TORSDOF 2
