REMARK  Name = ZINC26456135
REMARK  1 active torsions:
REMARK  status: ('A' for Active; 'I' for Inactive)
REMARK    1  A    between atoms: C_20  and  C_25
REMARK                            x       y       z     vdW  Elec       q    Type
REMARK                         _______ _______ _______ _____ _____    ______ ____
ROOT
ATOM      1  C   UNL     1       1.205   1.862   4.420  0.00  0.00    +0.001 A 
ATOM      2  C   UNL     1       0.158   2.372   5.170  0.00  0.00    +0.002 A 
ATOM      3  C   UNL     1      -1.069   2.682   4.610  0.00  0.00    +0.026 A 
ATOM      4  C   UNL     1      -1.211   2.456   3.242  0.00  0.00    +0.047 A 
ATOM      5  C   UNL     1      -0.144   1.916   2.483  0.00  0.00    +0.003 A 
ATOM      6  C   UNL     1       1.090   1.624   3.072  0.00  0.00    +0.010 A 
ATOM      7  C   UNL     1      -0.649   1.783   1.135  0.00  0.00    -0.016 A 
ATOM      8  C   UNL     1      -1.943   2.196   1.137  0.00  0.00    +0.042 A 
ATOM      9  N   UNL     1      -2.257   2.656   2.384  0.00  0.00    -0.356 N 
ATOM     10  H   UNL     1      -3.181   3.131   2.745  0.00  0.00    +0.166 HD
ATOM     11  C   UNL     1      -2.803   2.160  -0.099  0.00  0.00    +0.138 C 
ATOM     12  C   UNL     1      -4.194   1.669   0.170  0.00  0.00    -0.004 A 
ATOM     13  C   UNL     1      -4.895   2.079   1.288  0.00  0.00    +0.007 A 
ATOM     14  C   UNL     1      -6.158   1.581   1.556  0.00  0.00    +0.000 A 
ATOM     15  C   UNL     1      -6.754   0.689   0.684  0.00  0.00    +0.002 A 
ATOM     16  C   UNL     1      -6.090   0.315  -0.467  0.00  0.00    +0.023 A 
ATOM     17  C   UNL     1      -4.824   0.819  -0.734  0.00  0.00    +0.034 A 
ATOM     18  N   UNL     1      -4.206   0.496  -1.946  0.00  0.00    -0.324 N 
ATOM     19  C   UNL     1      -2.953   1.182  -2.313  0.00  0.00    +0.174 C 
ATOM     20  N   UNL     1      -2.143   1.304  -1.104  0.00  0.00    -0.268 NA
ATOM     21  C   UNL     1      -0.760   1.726  -1.319  0.00  0.00    +0.092 C 
ATOM     22  C   UNL     1       0.066   1.281  -0.095  0.00  0.00    +0.053 C 
ATOM     23  H   UNL     1      -4.639  -0.257  -2.621  0.00  0.00    +0.148 HD
ENDROOT
BRANCH  19  24
ATOM     24  C   UNL     1      -2.261   0.359  -3.369  0.00  0.00    -0.010 A 
ATOM     25  C   UNL     1      -1.994   0.890  -4.621  0.00  0.00    +0.026 A 
ATOM     26  C   UNL     1      -1.354   0.106  -5.562  0.00  0.00    +0.111 A 
ATOM     27  N   UNL     1      -1.008  -1.136  -5.284  0.00  0.00    -0.263 NA
ATOM     28  C   UNL     1      -1.252  -1.675  -4.105  0.00  0.00    +0.111 A 
ATOM     29  C   UNL     1      -1.883  -0.951  -3.112  0.00  0.00    +0.026 A 
ENDBRANCH  19  24
TORSDOF 1
