REMARK  Name = ZINC09076164
REMARK  7 active torsions:
REMARK  status: ('A' for Active; 'I' for Inactive)
REMARK    1  A    between atoms: C_1  and  C_2
REMARK    2  A    between atoms: C_2  and  C_34
REMARK    3  A    between atoms: C_6  and  C_23
REMARK    4  A    between atoms: C_8  and  C_21
REMARK    5  A    between atoms: C_9  and  N_20
REMARK    6  A    between atoms: N_10  and  C_11
REMARK    7  A    between atoms: C_14  and  N_17
REMARK                            x       y       z     vdW  Elec       q    Type
REMARK                         _______ _______ _______ _____ _____    ______ ____
ROOT
ATOM      1  C   UNL     1       2.188  -0.219   3.142  0.00  0.00    +0.011 C 
ATOM      2  C   UNL     1       2.714   0.599   1.960  0.00  0.00    -0.023 C 
ATOM      3  C   UNL     1       2.751  -0.276   0.705  0.00  0.00    +0.058 C 
ATOM      4  C   UNL     1       1.355  -0.742   0.372  0.00  0.00    +0.025 C 
ATOM      5  C   UNL     1       0.280   0.020   0.663  0.00  0.00    +0.025 C 
ATOM      6  C   UNL     1      -1.112  -0.436   0.306  0.00  0.00    +0.099 C 
ATOM      7  C   UNL     1      -1.148  -1.913   0.046  0.00  0.00    +0.077 C 
ATOM      8  C   UNL     1      -0.011  -2.607  -0.215  0.00  0.00    +0.107 C 
ATOM      9  N   UNL     1       1.204  -1.960  -0.238  0.00  0.00    -0.260 N 
ATOM     10  C   UNL     1       0.425   1.263   1.304  0.00  0.00    +0.162 C 
ATOM     11  O   UNL     1      -0.562   1.931   1.538  0.00  0.00    -0.292 OA
ATOM     12  C   UNL     1       1.779   1.785   1.698  0.00  0.00    +0.086 C 
ATOM     13  C   UNL     1       4.122   1.109   2.274  0.00  0.00    +0.011 C 
ENDROOT
BRANCH   6  14
ATOM     14  C   UNL     1      -1.570   0.295  -0.930  0.00  0.00    -0.016 A 
ATOM     15  C   UNL     1      -0.856   0.175  -2.108  0.00  0.00    +0.007 A 
ATOM     16  C   UNL     1      -1.278   0.840  -3.243  0.00  0.00    +0.020 A 
ATOM     17  C   UNL     1      -2.409   1.636  -3.198  0.00  0.00    +0.042 A 
ATOM     18  C   UNL     1      -3.121   1.761  -2.019  0.00  0.00    +0.040 A 
ATOM     19  C   UNL     1      -2.701   1.090  -0.884  0.00  0.00    +0.046 A 
ATOM     20 CL   UNL     1      -3.592   1.247   0.597  0.00  0.00    -0.083 Cl
ATOM     21 CL   UNL     1      -2.936   2.477  -4.623  0.00  0.00    -0.083 Cl
ENDBRANCH   6  14
BRANCH   9  22
ATOM     22  C   UNL     1       2.293  -2.550  -0.890  0.00  0.00    +0.040 A 
ATOM     23  C   UNL     1       3.117  -3.435  -0.207  0.00  0.00    +0.026 A 
ATOM     24  C   UNL     1       4.188  -4.019  -0.855  0.00  0.00    +0.034 A 
ATOM     25  C   UNL     1       4.446  -3.715  -2.179  0.00  0.00    +0.126 A 
ATOM     26  C   UNL     1       3.631  -2.830  -2.861  0.00  0.00    +0.034 A 
ATOM     27  C   UNL     1       2.555  -2.247  -2.220  0.00  0.00    +0.026 A 
BRANCH  25  28
ATOM     28  N   UNL     1       5.599  -4.338  -2.868  0.00  0.00    +0.056 N 
ATOM     29  O   UNL     1       5.828  -4.071  -4.034  0.00  0.00    -0.126 OA
ATOM     30  O   UNL     1       6.318  -5.117  -2.269  0.00  0.00    -0.126 OA
ENDBRANCH  25  28
ENDBRANCH   9  22
BRANCH   8  31
ATOM     31  N   UNL     1      -0.072  -3.959  -0.457  0.00  0.00    -0.345 N 
ATOM     32  H   UNL     1      -0.933  -4.399  -0.534  0.00  0.00    +0.144 HD
ATOM     33  H   UNL     1       0.746  -4.473  -0.550  0.00  0.00    +0.144 HD
ENDBRANCH   8  31
BRANCH   7  34
ATOM     34  C   UNL     1      -2.403  -2.602   0.073  0.00  0.00    +0.099 C 
ATOM     35  N   UNL     1      -3.399  -3.149   0.094  0.00  0.00    -0.191 NA
ENDBRANCH   7  34
TORSDOF 5
