REMARK  Name = ZINC09900334
REMARK  4 active torsions:
REMARK  status: ('A' for Active; 'I' for Inactive)
REMARK    1  A    between atoms: C_3  and  C_6
REMARK    2  A    between atoms: C_6  and  C_7
REMARK    3  A    between atoms: C_6  and  N_14
REMARK    4  A    between atoms: C_15  and  C_17
REMARK                            x       y       z     vdW  Elec       q    Type
REMARK                         _______ _______ _______ _____ _____    ______ ____
ROOT
ATOM      1  N   UNL     1       4.587   1.010   0.851  0.00  0.00    -0.300 N 
ATOM      2  C   UNL     1       4.641   1.268   2.173  0.00  0.00    +0.245 C 
ATOM      3  O   UNL     1       4.005   2.194   2.639  0.00  0.00    -0.270 OA
ATOM      4  H   UNL     1       5.094   0.272   0.480  0.00  0.00    +0.150 HD
ENDROOT
BRANCH   2   5
ATOM      5  C   UNL     1       5.473   0.427   3.055  0.00  0.00    +0.039 A 
ATOM      6  C   UNL     1       6.210  -0.634   2.521  0.00  0.00    +0.017 A 
ATOM      7  C   UNL     1       6.987  -1.420   3.343  0.00  0.00    +0.048 A 
ATOM      8  C   UNL     1       7.041  -1.161   4.705  0.00  0.00    +0.142 A 
ATOM      9  C   UNL     1       6.308  -0.102   5.246  0.00  0.00    +0.076 A 
ATOM     10  C   UNL     1       5.531   0.693   4.426  0.00  0.00    +0.040 A 
ATOM     11  N   UNL     1       6.375   0.143   6.625  0.00  0.00    -0.280 N 
ATOM     12  C   UNL     1       7.367  -0.425   7.343  0.00  0.00    +0.255 C 
ATOM     13  O   UNL     1       7.428  -0.252   8.542  0.00  0.00    -0.272 OA
ATOM     14  C   UNL     1       8.399  -1.277   6.649  0.00  0.00    +0.325 C 
ATOM     15  O   UNL     1       7.805  -1.929   5.524  0.00  0.00    -0.481 OA
ATOM     16  H   UNL     1       5.718   0.713   7.056  0.00  0.00    +0.155 HD
ENDBRANCH   2   5
BRANCH   1  17
ATOM     17  C   UNL     1       3.761   1.845  -0.024  0.00  0.00    +0.140 C 
BRANCH  17  18
ATOM     18  C   UNL     1       4.303   1.790  -1.429  0.00  0.00    -0.022 A 
ATOM     19  C   UNL     1       4.760   0.592  -1.947  0.00  0.00    +0.008 A 
ATOM     20  C   UNL     1       5.258   0.540  -3.235  0.00  0.00    +0.038 A 
ATOM     21  C   UNL     1       5.298   1.689  -4.008  0.00  0.00    +0.123 A 
ATOM     22  C   UNL     1       4.840   2.888  -3.488  0.00  0.00    +0.038 A 
ATOM     23  C   UNL     1       4.338   2.936  -2.202  0.00  0.00    +0.008 A 
ATOM     24  F   UNL     1       5.784   1.639  -5.267  0.00  0.00    -0.205 F 
ENDBRANCH  17  18
BRANCH  17  27
ATOM     25  C   UNL     1      -0.016   1.351   0.009  0.00  0.00    +0.008 A 
ATOM     26  C   UNL     1       1.183   2.038   0.002  0.00  0.00    +0.013 A 
ATOM     27  C   UNL     1       2.343   1.336  -0.013  0.00  0.00    +0.014 A 
ATOM     28  S   UNL     1       1.754  -0.349  -0.017  0.00  0.00    -0.099 S 
ATOM     29  C   UNL     1       0.002  -0.004   0.002  0.00  0.00    +0.045 A 
ENDBRANCH  17  27
ENDBRANCH   1  17
TORSDOF 4
