REMARK  Name = ZINC17130790
REMARK  7 active torsions:
REMARK  status: ('A' for Active; 'I' for Inactive)
REMARK    1  A    between atoms: C_1  and  C_2
REMARK    2  A    between atoms: C_2  and  O_3
REMARK    3  A    between atoms: O_3  and  C_4
REMARK    4  A    between atoms: N_12  and  C_13
REMARK    5  A    between atoms: C_18  and  C_19
REMARK    6  A    between atoms: C_20  and  C_22
REMARK    7  A    between atoms: C_25  and  C_27
REMARK                            x       y       z     vdW  Elec       q    Type
REMARK                         _______ _______ _______ _____ _____    ______ ____
ROOT
ATOM      1  C   UNL     1      -6.210  -1.076   0.159  0.00  0.00    +0.163 A 
ATOM      2  C   UNL     1      -6.287  -2.409   0.523  0.00  0.00    +0.049 A 
ATOM      3  C   UNL     1      -5.135  -3.142   0.768  0.00  0.00    +0.004 A 
ATOM      4  C   UNL     1      -3.896  -2.553   0.655  0.00  0.00    +0.012 A 
ATOM      5  C   UNL     1      -3.799  -1.204   0.292  0.00  0.00    +0.022 A 
ATOM      6  C   UNL     1      -4.967  -0.462   0.038  0.00  0.00    +0.179 A 
ATOM      7  O   UNL     1      -4.873   0.842  -0.323  0.00  0.00    -0.433 OA
ATOM      8  C   UNL     1      -3.783   1.525   0.110  0.00  0.00    +0.233 A 
ATOM      9  N   UNL     1      -3.886   2.763   0.541  0.00  0.00    -0.212 NA
ATOM     10  C   UNL     1      -2.478   0.835   0.082  0.00  0.00    +0.100 A 
ATOM     11  C   UNL     1      -2.494  -0.552   0.169  0.00  0.00    +0.030 A 
ENDROOT
BRANCH   9  12
ATOM     12  C   UNL     1      -5.081   3.423   0.448  0.00  0.00    +0.071 A 
ATOM     13  C   UNL     1      -6.000   3.361   1.498  0.00  0.00    +0.028 A 
ATOM     14  C   UNL     1      -7.202   4.029   1.398  0.00  0.00    +0.002 A 
ATOM     15  C   UNL     1      -7.500   4.758   0.260  0.00  0.00    +0.000 A 
ATOM     16  C   UNL     1      -6.594   4.824  -0.784  0.00  0.00    +0.005 A 
ATOM     17  C   UNL     1      -5.385   4.165  -0.696  0.00  0.00    -0.025 A 
ATOM     18  C   UNL     1      -4.398   4.242  -1.831  0.00  0.00    +0.046 C 
ENDBRANCH   9  12
BRANCH  10  19
ATOM     19  C   UNL     1      -1.216   1.583  -0.039  0.00  0.00    +0.255 C 
ATOM     20  O   UNL     1      -1.234   2.796  -0.118  0.00  0.00    -0.270 OA
ATOM     21  N   UNL     1      -0.041   0.923  -0.061  0.00  0.00    -0.252 N 
ATOM     22  C   UNL     1       1.114   1.607  -0.177  0.00  0.00    +0.216 C 
ATOM     23  O   UNL     1       1.096   2.817  -0.257  0.00  0.00    -0.276 OA
ATOM     24  C   UNL     1       2.427   0.869  -0.209  0.00  0.00    +0.109 C 
ATOM     25  H   UNL     1      -0.027  -0.045   0.002  0.00  0.00    +0.158 HD
ENDBRANCH  10  19
BRANCH   1  26
ATOM     26  O   UNL     1      -7.346  -0.367  -0.079  0.00  0.00    -0.489 OA
BRANCH  26  28
ATOM     27  C   UNL     1      -9.743  -0.110  -0.241  0.00  0.00    +0.048 C 
ATOM     28  C   UNL     1      -8.586  -1.063   0.065  0.00  0.00    +0.226 C 
ENDBRANCH  26  28
ENDBRANCH   1  26
TORSDOF 4
