REMARK  Name = ZINC12524854
REMARK  9 active torsions:
REMARK  status: ('A' for Active; 'I' for Inactive)
REMARK    1  A    between atoms: C_4  and  N_23
REMARK    2  A    between atoms: C_5  and  C_7
REMARK    3  A    between atoms: C_7  and  O_9
REMARK    4  A    between atoms: O_9  and  C_10
REMARK    5  A    between atoms: C_10  and  C_11
REMARK    6  A    between atoms: N_16  and  C_17
REMARK    7  A    between atoms: C_17  and  C_18
REMARK    8  A    between atoms: N_23  and  S_24
REMARK    9  A    between atoms: S_24  and  C_27
REMARK                            x       y       z     vdW  Elec       q    Type
REMARK                         _______ _______ _______ _____ _____    ______ ____
ROOT
ATOM      1  C   UNL     1       4.881   2.208  -4.148  0.00  0.00    +0.001 A 
ATOM      2  C   UNL     1       5.344   2.242  -2.842  0.00  0.00    +0.002 A 
ATOM      3  C   UNL     1       5.161   1.159  -2.007  0.00  0.00    +0.025 A 
ATOM      4  C   UNL     1       4.519   0.019  -2.475  0.00  0.00    +0.062 A 
ATOM      5  C   UNL     1       4.049  -0.019  -3.798  0.00  0.00    +0.081 A 
ATOM      6  C   UNL     1       4.237   1.089  -4.629  0.00  0.00    +0.017 A 
ENDROOT
BRANCH   5   7
ATOM      7  C   UNL     1       3.361  -1.218  -4.306  0.00  0.00    +0.341 C 
ATOM      8  O   UNL     1       3.199  -2.179  -3.579  0.00  0.00    -0.245 OA
BRANCH   7   9
ATOM      9  O   UNL     1       2.912  -1.250  -5.576  0.00  0.00    -0.452 OA
BRANCH   9  10
ATOM     10  C   UNL     1       2.243  -2.465  -6.008  0.00  0.00    +0.328 C 
BRANCH  10  11
ATOM     11  C   UNL     1       1.813  -2.317  -7.445  0.00  0.00    +0.258 C 
ATOM     12  O   UNL     1       2.047  -1.290  -8.045  0.00  0.00    -0.272 OA
ATOM     13  N   UNL     1       1.169  -3.327  -8.062  0.00  0.00    -0.237 N 
ATOM     14  C   UNL     1       0.785  -3.195  -9.348  0.00  0.00    +0.306 C 
ATOM     15  O   UNL     1       1.019  -2.165  -9.949  0.00  0.00    -0.252 OA
ATOM     16  N   UNL     1       0.140  -4.205  -9.965  0.00  0.00    -0.292 N 
ATOM     17  H   UNL     1       0.982  -4.149  -7.582  0.00  0.00    +0.159 HD
ATOM     18  H   UNL     1      -0.047  -5.026  -9.485  0.00  0.00    +0.151 HD
BRANCH  16  19
ATOM     19  C   UNL     1      -0.278  -4.061 -11.362  0.00  0.00    +0.180 C 
BRANCH  19  20
ATOM     20  C   UNL     1      -0.971  -5.322 -11.811  0.00  0.00    +0.122 A 
ATOM     21  C   UNL     1      -2.290  -5.570 -11.717  0.00  0.00    +0.046 A 
ATOM     22  C   UNL     1      -2.503  -6.861 -12.253  0.00  0.00    +0.041 A 
ATOM     23  C   UNL     1      -1.302  -7.324 -12.643  0.00  0.00    +0.195 A 
ATOM     24  O   UNL     1      -0.379  -6.385 -12.378  0.00  0.00    -0.466 OA
ENDBRANCH  19  20
ENDBRANCH  16  19
ENDBRANCH  10  11
ENDBRANCH   9  10
ENDBRANCH   7   9
ENDBRANCH   5   7
BRANCH   4  25
ATOM     25  N   UNL     1       4.338  -1.074  -1.639  0.00  0.00    -0.215 N 
ATOM     26  H   UNL     1       4.393  -1.973  -1.997  0.00  0.00    +0.174 HD
BRANCH  25  27
ATOM     27  S   UNL     1       4.029  -0.842  -0.028  0.00  0.00    +0.072 S 
ATOM     28  O   UNL     1       5.061   0.002   0.466  0.00  0.00    -0.150 OA
ATOM     29  O   UNL     1       3.764  -2.124   0.523  0.00  0.00    -0.150 OA
BRANCH  27  30
ATOM     30  C   UNL     1       2.530   0.077   0.087  0.00  0.00    +0.112 A 
ATOM     31  C   UNL     1       1.319  -0.586   0.160  0.00  0.00    +0.032 A 
ATOM     32  C   UNL     1       0.140   0.131   0.250  0.00  0.00    +0.051 A 
ATOM     33  C   UNL     1       0.170   1.517   0.267  0.00  0.00    +0.162 A 
ATOM     34  C   UNL     1       1.388   2.183   0.196  0.00  0.00    +0.164 A 
ATOM     35  C   UNL     1       2.567   1.458   0.105  0.00  0.00    +0.078 A 
ATOM     36  O   UNL     1       1.440   3.543   0.220  0.00  0.00    -0.485 OA
ATOM     37  C   UNL     1       0.222   4.239  -0.065  0.00  0.00    +0.270 C 
ATOM     38  C   UNL     1      -0.907   3.583   0.742  0.00  0.00    +0.270 C 
ATOM     39  O   UNL     1      -0.999   2.209   0.347  0.00  0.00    -0.485 OA
ENDBRANCH  27  30
ENDBRANCH  25  27
ENDBRANCH   4  25
TORSDOF 9
