REMARK  Name = ZINC66651140
REMARK  9 active torsions:
REMARK  status: ('A' for Active; 'I' for Inactive)
REMARK    1  A    between atoms: C_1  and  C_2
REMARK    2  A    between atoms: C_5  and  C_9
REMARK    3  A    between atoms: C_6  and  C_8
REMARK    4  A    between atoms: C_9  and  C_10
REMARK    5  A    between atoms: C_10  and  C_12
REMARK    6  A    between atoms: C_10  and  N_13
REMARK    7  A    between atoms: C_14  and  C_16
REMARK    8  A    between atoms: C_25  and  C_29
REMARK    9  A    between atoms: C_25  and  C_30
REMARK                            x       y       z     vdW  Elec       q    Type
REMARK                         _______ _______ _______ _____ _____    ______ ____
ROOT
ATOM      1  N   UNL     1      -1.833  -4.330   1.788  0.00  0.00    -0.308 N 
ATOM      2  C   UNL     1      -3.129  -4.051   2.028  0.00  0.00    +0.250 C 
ATOM      3  O   UNL     1      -3.975  -4.329   1.199  0.00  0.00    -0.270 OA
ATOM      4  H   UNL     1      -1.168  -4.175   2.477  0.00  0.00    +0.149 HD
ENDROOT
BRANCH   2   5
ATOM      5  C   UNL     1      -3.522  -3.410   3.294  0.00  0.00    +0.102 A 
ATOM      6  C   UNL     1      -4.860  -3.236   3.619  0.00  0.00    +0.031 A 
ATOM      7  C   UNL     1      -5.189  -2.618   4.845  0.00  0.00    +0.038 A 
ATOM      8  C   UNL     1      -4.195  -2.197   5.713  0.00  0.00    +0.030 A 
ATOM      9  N   UNL     1      -2.895  -2.362   5.395  0.00  0.00    -0.325 N 
ATOM     10  H   UNL     1      -2.216  -2.053   6.015  0.00  0.00    +0.169 HD
ATOM     11  C   UNL     1      -2.512  -2.945   4.247  0.00  0.00    +0.261 A 
ATOM     12  O   UNL     1      -1.328  -3.083   3.998  0.00  0.00    -0.267 OA
ATOM     13  C   UNL     1      -4.527  -1.555   7.035  0.00  0.00    +0.060 C 
ATOM     14  C   UNL     1      -5.922  -0.936   7.016  0.00  0.00    -0.023 C 
ATOM     15  C   UNL     1      -6.943  -2.003   6.602  0.00  0.00    +0.086 C 
ATOM     16  C   UNL     1      -6.608  -2.421   5.186  0.00  0.00    +0.165 C 
ATOM     17  O   UNL     1      -7.480  -2.587   4.359  0.00  0.00    -0.292 OA
ATOM     18  C   UNL     1      -6.266  -0.412   8.412  0.00  0.00    +0.011 C 
ATOM     19  C   UNL     1      -5.955   0.219   6.014  0.00  0.00    +0.011 C 
ENDBRANCH   2   5
BRANCH   1  20
ATOM     20  C   UNL     1      -1.428  -4.866   0.486  0.00  0.00    +0.074 C 
ATOM     21  C   UNL     1      -1.502  -6.394   0.519  0.00  0.00    +0.028 C 
BRANCH  20  22
ATOM     22  C   UNL     1       0.007  -4.432   0.180  0.00  0.00    +0.057 C 
BRANCH  22  27
ATOM     23  C   UNL     1       0.222   1.324  -0.285  0.00  0.00    +0.044 C 
ATOM     24  C   UNL     1       0.165  -0.177  -0.164  0.00  0.00    -0.050 A 
ATOM     25  C   UNL     1       0.485  -0.786   1.036  0.00  0.00    +0.003 A 
ATOM     26  C   UNL     1       0.433  -2.162   1.147  0.00  0.00    +0.004 A 
ATOM     27  C   UNL     1       0.062  -2.930   0.059  0.00  0.00    -0.043 A 
ATOM     28  C   UNL     1      -0.258  -2.321  -1.140  0.00  0.00    -0.047 A 
ATOM     29  C   UNL     1      -0.211  -0.944  -1.250  0.00  0.00    +0.007 A 
ATOM     30  C   UNL     1      -0.662  -3.159  -2.326  0.00  0.00    +0.044 C 
ENDBRANCH  22  27
ENDBRANCH  20  22
ENDBRANCH   1  20
TORSDOF 4
