REMARK  Name = ZINC41585026
REMARK  6 active torsions:
REMARK  status: ('A' for Active; 'I' for Inactive)
REMARK    1  A    between atoms: C_3  and  C_8
REMARK    2  A    between atoms: C_15  and  O_36
REMARK    3  A    between atoms: C_16  and  C_19
REMARK    4  A    between atoms: C_19  and  N_20
REMARK    5  A    between atoms: N_23  and  C_26
REMARK    6  A    between atoms: C_26  and  C_27
REMARK                            x       y       z     vdW  Elec       q    Type
REMARK                         _______ _______ _______ _____ _____    ______ ____
ROOT
ATOM      1  C   UNL     1       3.651   2.158  -0.022  0.00  0.00    +0.058 C 
ATOM      2  C   UNL     1       4.832   1.498   0.066  0.00  0.00    +0.176 C 
ATOM      3  C   UNL     1       6.166   2.111   0.179  0.00  0.00    +0.231 C 
ATOM      4  O   UNL     1       6.441   3.297   0.214  0.00  0.00    -0.283 OA
ATOM      5  C   UNL     1       7.094   0.967   0.242  0.00  0.00    +0.068 A 
ATOM      6  C   UNL     1       8.482   0.869   0.352  0.00  0.00    +0.019 A 
ATOM      7  C   UNL     1       9.077  -0.360   0.387  0.00  0.00    +0.046 A 
ATOM      8  C   UNL     1       8.302  -1.514   0.313  0.00  0.00    +0.125 A 
ATOM      9  C   UNL     1       6.923  -1.432   0.203  0.00  0.00    +0.051 A 
ATOM     10  C   UNL     1       6.302  -0.190   0.167  0.00  0.00    +0.147 A 
ATOM     11  O   UNL     1       4.999   0.154   0.071  0.00  0.00    -0.451 OA
ENDROOT
BRANCH   1  14
ATOM     12  C   UNL     1       1.210  -0.688  -0.031  0.00  0.00    +0.003 A 
ATOM     13  C   UNL     1       2.400   0.009  -0.041  0.00  0.00    +0.008 A 
ATOM     14  C   UNL     1       2.387   1.408  -0.011  0.00  0.00    -0.019 A 
ATOM     15  C   UNL     1       1.166   2.089   0.029  0.00  0.00    +0.046 A 
ATOM     16  C   UNL     1      -0.017   1.377   0.039  0.00  0.00    +0.124 A 
ATOM     17  C   UNL     1       0.005  -0.009   0.009  0.00  0.00    +0.038 A 
ATOM     18  F   UNL     1      -1.198   2.032   0.078  0.00  0.00    -0.205 F 
ENDBRANCH   1  14
BRANCH   8  19
ATOM     19  O   UNL     1       8.903  -2.731   0.348  0.00  0.00    -0.506 OA
ATOM     20  H   UNL     1       9.006  -3.093   1.239  0.00  0.00    +0.292 HD
ENDBRANCH   8  19
BRANCH   9  21
ATOM     21  C   UNL     1       6.098  -2.690   0.122  0.00  0.00    +0.126 C 
BRANCH  21  22
ATOM     22  N   UNL     1       5.718  -3.114   1.477  0.00  0.00    -0.301 NA
ATOM     23  C   UNL     1       4.806  -2.143   2.097  0.00  0.00    +0.066 C 
ATOM     24  C   UNL     1       4.483  -2.590   3.524  0.00  0.00    -0.063 C 
ATOM     25  N   UNL     1       3.861  -3.920   3.492  0.00  0.00    +0.384 N 
ATOM     26  C   UNL     1       4.793  -4.884   2.893  0.00  0.00    -0.063 C 
ATOM     27  C   UNL     1       5.119  -4.456   1.460  0.00  0.00    +0.066 C 
ATOM     28  H   UNL     1       3.016  -3.883   2.942  0.00  0.00    -0.081 HD
BRANCH  25  29
ATOM     29  C   UNL     1       3.535  -4.341   4.861  0.00  0.00    -0.043 C 
BRANCH  29  30
ATOM     30  C   UNL     1       2.787  -5.649   4.820  0.00  0.00    -0.060 A 
ATOM     31  C   UNL     1       1.407  -5.651   4.731  0.00  0.00    +0.005 A 
ATOM     32  C   UNL     1       0.716  -6.848   4.692  0.00  0.00    +0.050 A 
ATOM     33  C   UNL     1       1.406  -8.049   4.742  0.00  0.00    +0.166 A 
ATOM     34  C   UNL     1       2.796  -8.046   4.832  0.00  0.00    +0.166 A 
ATOM     35  C   UNL     1       3.482  -6.843   4.865  0.00  0.00    +0.051 A 
ATOM     36  O   UNL     1       3.233  -9.339   4.867  0.00  0.00    -0.453 OA
ATOM     37  C   UNL     1       2.078 -10.126   5.210  0.00  0.00    +0.466 C 
ATOM     38  O   UNL     1       0.973  -9.343   4.721  0.00  0.00    -0.453 OA
ENDBRANCH  29  30
ENDBRANCH  25  29
ENDBRANCH  21  22
ENDBRANCH   9  21
TORSDOF 6
