REMARK  Name = ZINC14009734
REMARK  9 active torsions:
REMARK  status: ('A' for Active; 'I' for Inactive)
REMARK    1  A    between atoms: C_1  and  C_2
REMARK    2  A    between atoms: C_2  and  C_3
REMARK    3  A    between atoms: C_2  and  C_4
REMARK    4  A    between atoms: C_2  and  C_5
REMARK    5  A    between atoms: C_8  and  C_11
REMARK    6  A    between atoms: N_13  and  C_14
REMARK    7  A    between atoms: C_14  and  N_16
REMARK    8  A    between atoms: N_16  and  C_17
REMARK    9  A    between atoms: C_20  and  N_24
REMARK                            x       y       z     vdW  Elec       q    Type
REMARK                         _______ _______ _______ _____ _____    ______ ____
ROOT
ATOM      1  C   UNL     1       1.349  -2.123   0.459  0.00  0.00    +0.250 C 
ATOM      2  O   UNL     1       0.328  -2.734   0.705  0.00  0.00    -0.270 OA
ATOM      3  N   UNL     1       2.488  -2.793   0.196  0.00  0.00    -0.264 N 
ATOM      4  H   UNL     1       3.304  -2.305  -0.000  0.00  0.00    +0.157 HD
ENDROOT
BRANCH   1   8
ATOM      5  C   UNL     1       1.328   2.124   0.429  0.00  0.00    -0.042 A 
ATOM      6  C   UNL     1       0.163   1.431   0.709  0.00  0.00    +0.005 A 
ATOM      7  C   UNL     1       0.163   0.052   0.720  0.00  0.00    +0.013 A 
ATOM      8  C   UNL     1       1.342  -0.645   0.448  0.00  0.00    +0.037 A 
ATOM      9  C   UNL     1       2.513   0.060   0.167  0.00  0.00    +0.013 A 
ATOM     10  C   UNL     1       2.499   1.439   0.159  0.00  0.00    +0.005 A 
BRANCH   5  12
ATOM     11  C   UNL     1       0.902   4.148   1.797  0.00  0.00    +0.015 C 
ATOM     12  C   UNL     1       1.321   3.631   0.419  0.00  0.00    -0.013 C 
ATOM     13  C   UNL     1       2.722   4.146   0.085  0.00  0.00    +0.015 C 
ATOM     14  C   UNL     1       0.330   4.129  -0.635  0.00  0.00    +0.015 C 
ENDBRANCH   5  12
ENDBRANCH   1   8
BRANCH   3  15
ATOM     15  C   UNL     1       2.495  -4.141   0.205  0.00  0.00    +0.141 C 
ATOM     16  S   UNL     1       1.056  -5.002   0.552  0.00  0.00    -0.018 S 
BRANCH  15  17
ATOM     17  N   UNL     1       3.635  -4.811  -0.058  0.00  0.00    -0.296 N 
ATOM     18  H   UNL     1       4.434  -4.326  -0.315  0.00  0.00    +0.154 HD
BRANCH  17  19
ATOM     19  C   UNL     1       3.664  -6.206   0.041  0.00  0.00    +0.047 A 
ATOM     20  C   UNL     1       2.660  -6.967  -0.545  0.00  0.00    +0.026 A 
ATOM     21  C   UNL     1       2.692  -8.344  -0.446  0.00  0.00    +0.034 A 
ATOM     22  C   UNL     1       3.722  -8.966   0.235  0.00  0.00    +0.127 A 
ATOM     23  C   UNL     1       4.724  -8.213   0.819  0.00  0.00    +0.049 A 
ATOM     24  C   UNL     1       4.701  -6.835   0.720  0.00  0.00    +0.041 A 
ATOM     25 BR   UNL     1       6.075  -5.805   1.512  0.00  0.00    -0.048 Br
BRANCH  22  26
ATOM     26  N   UNL     1       3.753 -10.443   0.339  0.00  0.00    +0.056 N 
ATOM     27  O   UNL     1       2.872 -11.108  -0.176  0.00  0.00    -0.126 OA
ATOM     28  O   UNL     1       4.660 -10.992   0.938  0.00  0.00    -0.126 OA
ENDBRANCH  22  26
ENDBRANCH  17  19
ENDBRANCH  15  17
ENDBRANCH   3  15
TORSDOF 6
