REMARK  Name = ZINC29591596
REMARK  6 active torsions:
REMARK  status: ('A' for Active; 'I' for Inactive)
REMARK    1  A    between atoms: C_2  and  S_25
REMARK    2  A    between atoms: C_6  and  C_7
REMARK    3  A    between atoms: C_7  and  O_9
REMARK    4  A    between atoms: O_9  and  C_10
REMARK    5  A    between atoms: C_10  and  C_11
REMARK    6  A    between atoms: S_25  and  N_28
REMARK                            x       y       z     vdW  Elec       q    Type
REMARK                         _______ _______ _______ _____ _____    ______ ____
ROOT
ATOM      1  O   UNL     1       3.402  -1.561   0.078  0.00  0.00    -0.452 OA
ENDROOT
BRANCH   1   2
ATOM      2  C   UNL     1       2.119  -1.145   0.112  0.00  0.00    +0.356 C 
ATOM      3  O   UNL     1       1.215  -1.957   0.050  0.00  0.00    -0.243 OA
BRANCH   2   9
ATOM      4  C   UNL     1       0.556   0.848   0.270  0.00  0.00    +0.062 A 
ATOM      5  C   UNL     1       0.733   2.231   0.378  0.00  0.00    +0.123 A 
ATOM      6  C   UNL     1       2.065   2.478   0.395  0.00  0.00    +0.112 A 
ATOM      7  N   UNL     1       2.731   1.308   0.303  0.00  0.00    -0.354 N 
ATOM      8  H   UNL     1       3.831   1.299   0.301  0.00  0.00    +0.166 HD
ATOM      9  C   UNL     1       1.814   0.283   0.224  0.00  0.00    +0.126 A 
BRANCH   5  10
ATOM     10  S   UNL     1      -0.548   3.437   0.467  0.00  0.00    +0.062 S 
ATOM     11  O   UNL     1       0.014   4.660   0.011  0.00  0.00    -0.153 OA
ATOM     12  O   UNL     1      -1.696   2.855  -0.134  0.00  0.00    -0.153 OA
BRANCH  10  13
ATOM     13  N   UNL     1      -0.909   3.650   2.069  0.00  0.00    -0.172 NA
ATOM     14  C   UNL     1      -1.944   2.837   2.727  0.00  0.00    +0.137 C 
ATOM     15  C   UNL     1      -1.347   2.252   4.016  0.00  0.00    +0.177 C 
ATOM     16  O   UNL     1      -0.782   3.310   4.794  0.00  0.00    -0.377 OA
ATOM     17  C   UNL     1       0.301   3.991   4.157  0.00  0.00    +0.177 C 
ATOM     18  C   UNL     1      -0.208   4.662   2.876  0.00  0.00    +0.137 C 
ENDBRANCH  10  13
ENDBRANCH   5  10
ENDBRANCH   2   9
ENDBRANCH   1   2
BRANCH   1  19
ATOM     19  C   UNL     1       3.629  -2.990  -0.034  0.00  0.00    +0.308 C 
BRANCH  19  20
ATOM     20  C   UNL     1       5.111  -3.263  -0.058  0.00  0.00    +0.170 A 
ATOM     21  N   UNL     1       5.744  -3.295  -1.217  0.00  0.00    -0.214 NA
ATOM     22  C   UNL     1       7.044  -3.524  -1.304  0.00  0.00    +0.128 A 
ATOM     23  C   UNL     1       7.788  -3.754  -0.113  0.00  0.00    +0.051 A 
ATOM     24  C   UNL     1       9.218  -4.029   0.036  0.00  0.00    -0.025 A 
ATOM     25  C   UNL     1       9.678  -4.212   1.290  0.00  0.00    -0.004 A 
ATOM     26  S   UNL     1       8.258  -4.031   2.335  0.00  0.00    -0.073 S 
ATOM     27  C   UNL     1       7.044  -3.709   1.083  0.00  0.00    +0.114 A 
ATOM     28  N   UNL     1       5.747  -3.469   1.080  0.00  0.00    -0.221 NA
ATOM     29  C   UNL     1      11.088  -4.504   1.705  0.00  0.00    +0.043 C 
ATOM     30  C   UNL     1      11.881  -4.935   0.463  0.00  0.00    +0.005 C 
ATOM     31  C   UNL     1      11.599  -3.941  -0.668  0.00  0.00    +0.005 C 
ATOM     32  C   UNL     1      10.162  -4.110  -1.161  0.00  0.00    +0.037 C 
ATOM     33  N   UNL     1       7.671  -3.544  -2.537  0.00  0.00    -0.343 N 
ATOM     34  H   UNL     1       8.753  -3.735  -2.600  0.00  0.00    +0.144 HD
ATOM     35  H   UNL     1       7.089  -3.370  -3.453  0.00  0.00    +0.144 HD
ENDBRANCH  19  20
ENDBRANCH   1  19
TORSDOF 6
