REMARK  Name = ZINC34798072
REMARK  6 active torsions:
REMARK  status: ('A' for Active; 'I' for Inactive)
REMARK    1  A    between atoms: C_1  and  C_2
REMARK    2  A    between atoms: C_5  and  C_8
REMARK    3  A    between atoms: N_12  and  O_13
REMARK    4  A    between atoms: C_14  and  O_26
REMARK    5  A    between atoms: C_16  and  C_19
REMARK    6  A    between atoms: C_22  and  C_25
REMARK                            x       y       z     vdW  Elec       q    Type
REMARK                         _______ _______ _______ _____ _____    ______ ____
ROOT
ATOM      1  C   UNL     1      -0.417  -4.199   0.048  0.00  0.00    -0.034 C 
ATOM      2  C   UNL     1      -1.638  -4.992   0.528  0.00  0.00    +0.045 C 
ATOM      3  C   UNL     1      -1.282  -6.465   0.508  0.00  0.00    +0.083 C 
ATOM      4  N   UNL     1      -2.061  -7.327  -0.028  0.00  0.00    -0.094 NA
ATOM      5  C   UNL     1       0.028  -6.880   1.144  0.00  0.00    +0.152 C 
ATOM      6  C   UNL     1       1.130  -5.952   0.620  0.00  0.00    -0.005 C 
ATOM      7  N   UNL     1       0.750  -4.555   0.863  0.00  0.00    +0.390 N 
ATOM      8  H   UNL     1       1.522  -3.952   0.622  0.00  0.00    -0.084 HD
ATOM      9  H   UNL     1       0.525  -4.434   1.839  0.00  0.00    -0.084 HD
ENDROOT
BRANCH   1  14
ATOM     10  C   UNL     1      -1.477   1.458   0.566  0.00  0.00    +0.044 C 
ATOM     11  C   UNL     1      -1.200  -0.017   0.431  0.00  0.00    -0.050 A 
ATOM     12  C   UNL     1      -1.325  -0.633  -0.800  0.00  0.00    +0.003 A 
ATOM     13  C   UNL     1      -1.072  -1.987  -0.924  0.00  0.00    +0.002 A 
ATOM     14  C   UNL     1      -0.693  -2.723   0.183  0.00  0.00    -0.061 A 
ATOM     15  C   UNL     1      -0.567  -2.106   1.413  0.00  0.00    +0.002 A 
ATOM     16  C   UNL     1      -0.816  -0.752   1.537  0.00  0.00    +0.003 A 
ENDBRANCH   1  14
BRANCH   6  17
ATOM     17  C   UNL     1       2.422  -6.252   1.335  0.00  0.00    -0.059 A 
ATOM     18  C   UNL     1       2.643  -5.750   2.604  0.00  0.00    +0.002 A 
ATOM     19  C   UNL     1       3.828  -6.025   3.259  0.00  0.00    +0.003 A 
ATOM     20  C   UNL     1       4.793  -6.804   2.647  0.00  0.00    -0.050 A 
ATOM     21  C   UNL     1       4.571  -7.307   1.378  0.00  0.00    +0.003 A 
ATOM     22  C   UNL     1       3.384  -7.035   0.724  0.00  0.00    +0.002 A 
ATOM     23  C   UNL     1       6.085  -7.103   3.361  0.00  0.00    +0.044 C 
ENDBRANCH   6  17
BRANCH   4  24
ATOM     24  O   UNL     1      -1.766  -8.708   0.075  0.00  0.00    -0.409 OA
ATOM     25  H   UNL     1      -2.411  -9.282  -0.360  0.00  0.00    +0.328 HD
ENDBRANCH   4  24
BRANCH   5  26
ATOM     26  O   UNL     1       0.328  -8.232   0.793  0.00  0.00    -0.387 OA
ATOM     27  H   UNL     1       1.061  -8.616   1.294  0.00  0.00    +0.210 HD
ENDBRANCH   5  26
TORSDOF 4
