REMARK  Name = ZINC32074771
REMARK  6 active torsions:
REMARK  status: ('A' for Active; 'I' for Inactive)
REMARK    1  A    between atoms: C_1  and  C_2
REMARK    2  A    between atoms: C_7  and  C_8
REMARK    3  A    between atoms: C_11  and  O_27
REMARK    4  A    between atoms: C_15  and  C_26
REMARK    5  A    between atoms: C_21  and  O_24
REMARK    6  A    between atoms: O_24  and  C_25
REMARK                            x       y       z     vdW  Elec       q    Type
REMARK                         _______ _______ _______ _____ _____    ______ ____
ROOT
ATOM      1  C   UNL     1       0.243   0.051   2.491  0.00  0.00    +0.063 C 
ATOM      2  C   UNL     1       1.613  -0.218   3.126  0.00  0.00    +0.108 C 
ATOM      3  C   UNL     1       1.660  -1.569   3.777  0.00  0.00    +0.190 C 
ATOM      4  N   UNL     1       0.636  -2.126   4.352  0.00  0.00    -0.197 NA
ATOM      5  C   UNL     1      -0.567  -1.484   4.330  0.00  0.00    +0.165 A 
ATOM      6  C   UNL     1      -0.811  -0.431   3.454  0.00  0.00    +0.027 A 
ATOM      7  C   UNL     1      -2.105   0.008   3.665  0.00  0.00    +0.066 A 
ATOM      8  N   UNL     1      -2.648  -0.731   4.606  0.00  0.00    -0.168 NA
ATOM      9  N   UNL     1      -1.704  -1.685   5.035  0.00  0.00    -0.194 N 
ATOM     10  C   UNL     1      -1.906  -2.664   6.013  0.00  0.00    +0.178 A 
ATOM     11  C   UNL     1      -2.869  -2.475   7.003  0.00  0.00    +0.055 A 
ATOM     12  C   UNL     1      -3.033  -3.473   7.949  0.00  0.00    +0.072 A 
ATOM     13  C   UNL     1      -2.225  -4.604   7.852  0.00  0.00    +0.234 A 
ATOM     14  N   UNL     1      -1.337  -4.697   6.877  0.00  0.00    -0.110 NA
ATOM     15  N   UNL     1      -1.188  -3.775   5.997  0.00  0.00    -0.126 NA
ATOM     16  C   UNL     1      -2.779   1.144   2.939  0.00  0.00    +0.068 C 
ENDROOT
BRANCH   1  23
ATOM     17  C   UNL     1      -0.049   1.502   0.009  0.00  0.00    +0.044 C 
ATOM     18  C   UNL     1      -0.013  -0.004   0.002  0.00  0.00    -0.047 A 
ATOM     19  C   UNL     1      -0.113  -0.692  -1.194  0.00  0.00    +0.003 A 
ATOM     20  C   UNL     1      -0.080  -2.074  -1.201  0.00  0.00    +0.000 A 
ATOM     21  C   UNL     1       0.055  -2.768  -0.013  0.00  0.00    +0.000 A 
ATOM     22  C   UNL     1       0.156  -2.081   1.182  0.00  0.00    +0.004 A 
ATOM     23  C   UNL     1       0.127  -0.698   1.189  0.00  0.00    -0.036 A 
ENDBRANCH   1  23
BRANCH  13  24
ATOM     24  O   UNL     1      -2.349  -5.608   8.757  0.00  0.00    -0.479 OA
ATOM     25  C   UNL     1      -1.488  -6.737   8.596  0.00  0.00    +0.279 C 
ENDBRANCH  13  24
BRANCH   3  26
ATOM     26  O   UNL     1       2.829  -2.242   3.766  0.00  0.00    -0.495 OA
ATOM     27  H   UNL     1       2.790  -3.105   4.202  0.00  0.00    +0.293 HD
ENDBRANCH   3  26
TORSDOF 3
