REMARK  Name = ZINC45643807
REMARK  5 active torsions:
REMARK  status: ('A' for Active; 'I' for Inactive)
REMARK    1  A    between atoms: C_1  and  N_2
REMARK    2  A    between atoms: C_6  and  C_7
REMARK    3  A    between atoms: N_9  and  N_10
REMARK    4  A    between atoms: N_10  and  S_11
REMARK    5  A    between atoms: S_11  and  C_14
REMARK                            x       y       z     vdW  Elec       q    Type
REMARK                         _______ _______ _______ _____ _____    ______ ____
ROOT
ATOM      1  S   UNL     1       0.613   2.592   4.587  0.00  0.00    +0.074 S 
ATOM      2  O   UNL     1       0.274   2.903   5.931  0.00  0.00    -0.152 OA
ATOM      3  O   UNL     1       1.925   2.206   4.201  0.00  0.00    -0.152 OA
ENDROOT
BRANCH   1   4
ATOM      4  C   UNL     1       0.201   4.009   3.623  0.00  0.00    +0.107 A 
ATOM      5  C   UNL     1       0.830   4.225   2.411  0.00  0.00    +0.030 A 
ATOM      6  C   UNL     1       0.510   5.334   1.653  0.00  0.00    +0.025 A 
ATOM      7  C   UNL     1      -0.445   6.233   2.110  0.00  0.00    +0.037 A 
ATOM      8  C   UNL     1      -1.074   6.013   3.328  0.00  0.00    -0.024 A 
ATOM      9  C   UNL     1      -0.754   4.899   4.079  0.00  0.00    +0.034 A 
ATOM     10  C   UNL     1      -2.111   6.987   3.823  0.00  0.00    +0.046 C 
ATOM     11  C   UNL     1      -1.735   8.402   3.381  0.00  0.00    +0.101 C 
ATOM     12  C   UNL     1      -1.396   8.408   1.914  0.00  0.00    +0.218 C 
ATOM     13  O   UNL     1      -1.687   9.370   1.235  0.00  0.00    -0.275 OA
ATOM     14  N   UNL     1      -0.773   7.358   1.347  0.00  0.00    -0.285 N 
ATOM     15  H   UNL     1      -0.551   7.382   0.404  0.00  0.00    +0.155 HD
ENDBRANCH   1   4
BRANCH   1  16
ATOM     16  N   UNL     1      -0.399   1.369   4.115  0.00  0.00    -0.108 NA
ATOM     17  H   UNL     1      -0.995   0.957   4.760  0.00  0.00    +0.172 HD
BRANCH  16  20
ATOM     18  C   UNL     1      -0.189  -0.374   2.507  0.00  0.00    +0.275 C 
ATOM     19  O   UNL     1      -0.101  -1.183   3.412  0.00  0.00    -0.267 OA
ATOM     20  N   UNL     1      -0.393   0.929   2.785  0.00  0.00    -0.227 N 
ATOM     21  H   UNL     1      -0.537   1.562   2.064  0.00  0.00    +0.171 HD
BRANCH  18  27
ATOM     22  C   UNL     1       0.069  -3.305   1.539  0.00  0.00    +0.149 C 
ATOM     23  N   UNL     1       0.043  -2.118   0.680  0.00  0.00    -0.345 N 
ATOM     24  C   UNL     1       0.122  -2.119  -0.673  0.00  0.00    +0.101 A 
ATOM     25  C   UNL     1       0.064  -0.840  -1.117  0.00  0.00    +0.036 A 
ATOM     26  C   UNL     1      -0.055  -0.005  -0.001  0.00  0.00    +0.047 A 
ATOM     27  C   UNL     1      -0.072  -0.817   1.113  0.00  0.00    +0.106 A 
ATOM     28 BR   UNL     1       0.133  -0.283  -2.923  0.00  0.00    -0.049 Br
ENDBRANCH  18  27
ENDBRANCH  16  20
ENDBRANCH   1  16
TORSDOF 4
