REMARK  Name = ZINC21986068
REMARK  5 active torsions:
REMARK  status: ('A' for Active; 'I' for Inactive)
REMARK    1  A    between atoms: C_1  and  O_2
REMARK    2  A    between atoms: O_2  and  C_3
REMARK    3  A    between atoms: C_3  and  C_5
REMARK    4  A    between atoms: C_19  and  C_26
REMARK    5  A    between atoms: C_22  and  C_24
REMARK                            x       y       z     vdW  Elec       q    Type
REMARK                         _______ _______ _______ _____ _____    ______ ____
ROOT
ATOM      1  C   UNL     1       0.113  -0.020   0.046  0.00  0.00    +0.186 C 
ATOM      2  C   UNL     1       0.078   1.521   0.054  0.00  0.00    +0.044 C 
ATOM      3  C   UNL     1       1.512   1.994   0.059  0.00  0.00    +0.045 C 
ATOM      4  C   UNL     1       1.824   3.440   0.047  0.00  0.00    -0.022 A 
ATOM      5  C   UNL     1       1.260   4.503  -0.628  0.00  0.00    +0.006 A 
ATOM      6  C   UNL     1       1.798   5.763  -0.400  0.00  0.00    +0.000 A 
ATOM      7  C   UNL     1       2.856   5.952   0.466  0.00  0.00    +0.002 A 
ATOM      8  C   UNL     1       3.436   4.894   1.150  0.00  0.00    +0.023 A 
ATOM      9  C   UNL     1       2.909   3.625   0.930  0.00  0.00    +0.031 A 
ATOM     10  N   UNL     1       3.313   2.403   1.486  0.00  0.00    -0.338 N 
ATOM     11  C   UNL     1       2.146   1.536   1.403  0.00  0.00    +0.103 C 
ATOM     12  C   UNL     1       2.356   0.038   1.284  0.00  0.00    +0.128 C 
ATOM     13  N   UNL     1       1.003  -0.534   1.091  0.00  0.00    -0.278 N 
ATOM     14  C   UNL     1       0.586  -1.540   1.885  0.00  0.00    +0.231 C 
ATOM     15  O   UNL     1       1.316  -1.971   2.752  0.00  0.00    -0.274 OA
ATOM     16  H   UNL     1       4.249   2.025   1.924  0.00  0.00    +0.146 HD
ENDROOT
BRANCH  12  17
ATOM     17  C   UNL     1       3.230  -0.274   0.096  0.00  0.00    -0.022 A 
ATOM     18  C   UNL     1       3.399  -1.584  -0.310  0.00  0.00    +0.009 A 
ATOM     19  C   UNL     1       4.194  -1.875  -1.403  0.00  0.00    +0.050 A 
ATOM     20  C   UNL     1       4.834  -0.853  -2.086  0.00  0.00    +0.166 A 
ATOM     21  C   UNL     1       4.668   0.467  -1.673  0.00  0.00    +0.167 A 
ATOM     22  C   UNL     1       3.864   0.751  -0.581  0.00  0.00    +0.055 A 
ATOM     23  O   UNL     1       5.393   1.277  -2.499  0.00  0.00    -0.453 OA
ATOM     24  C   UNL     1       6.327   0.408  -3.166  0.00  0.00    +0.466 C 
ATOM     25  O   UNL     1       5.663  -0.870  -3.170  0.00  0.00    -0.453 OA
ENDBRANCH  12  17
BRANCH   1  26
ATOM     26  C   UNL     1       0.602  -0.496  -1.298  0.00  0.00    +0.328 C 
ATOM     27  O   UNL     1       1.286  -1.489  -1.375  0.00  0.00    -0.249 OA
BRANCH  26  29
ATOM     28  C   UNL     1       0.783  -0.333  -3.669  0.00  0.00    +0.280 C 
ATOM     29  O   UNL     1       0.278   0.183  -2.409  0.00  0.00    -0.467 OA
ENDBRANCH  26  29
ENDBRANCH   1  26
BRANCH  14  30
ATOM     30  C   UNL     1      -0.789  -2.128   1.696  0.00  0.00    +0.204 C 
ATOM     31 CL   UNL     1      -1.050  -3.444   2.901  0.00  0.00    -0.116 Cl
ENDBRANCH  14  30
TORSDOF 4
