REMARK  Name = ZINC02710301
REMARK  18 active torsions:
REMARK  status: ('A' for Active; 'I' for Inactive)
REMARK    1  A    between atoms: C_1  and  C_2
REMARK    2  A    between atoms: C_2  and  C_3
REMARK    3  A    between atoms: C_2  and  C_4
REMARK    4  A    between atoms: C_2  and  C_5
REMARK    5  A    between atoms: C_8  and  O_11
REMARK    6  A    between atoms: O_11  and  C_12
REMARK    7  A    between atoms: C_12  and  C_13
REMARK    8  A    between atoms: C_13  and  C_15
REMARK    9  A    between atoms: C_13  and  O_34
REMARK   10  A    between atoms: C_15  and  N_16
REMARK   11  A    between atoms: N_16  and  C_17
REMARK   12  A    between atoms: N_16  and  C_20
REMARK   13  A    between atoms: C_17  and  C_18
REMARK   14  A    between atoms: C_18  and  O_19
REMARK   15  A    between atoms: C_20  and  C_21
REMARK   16  A    between atoms: C_21  and  C_23
REMARK   17  A    between atoms: C_21  and  O_33
REMARK   18  A    between atoms: C_23  and  N_24
REMARK                            x       y       z     vdW  Elec       q    Type
REMARK                         _______ _______ _______ _____ _____    ______ ____
ROOT
ATOM      1  N   UNL     1       6.667  -2.240  -7.623  0.00  0.00    +0.385 N 
ATOM      2  H   UNL     1       6.103  -2.987  -7.247  0.00  0.00    -0.082 HD
ENDROOT
BRANCH   1   3
ATOM      3  C   UNL     1       6.417  -1.008  -6.864  0.00  0.00    -0.044 C 
BRANCH   3   4
ATOM      4  C   UNL     1       4.916  -0.712  -6.853  0.00  0.00    +0.135 C 
BRANCH   4   5
ATOM      5  O   UNL     1       4.492  -0.351  -8.169  0.00  0.00    -0.390 OA
ATOM      6  H   UNL     1       4.934   0.432  -8.525  0.00  0.00    +0.210 HD
ENDBRANCH   4   5
BRANCH   4   7
ATOM      7  C   UNL     1       4.631   0.444  -5.891  0.00  0.00    +0.258 C 
BRANCH   7   8
ATOM      8  O   UNL     1       3.220   0.644  -5.792  0.00  0.00    -0.489 OA
BRANCH   8  12
ATOM      9  C   UNL     1       1.927   3.667  -3.300  0.00  0.00    -0.042 A 
ATOM     10  C   UNL     1       1.007   2.902  -3.993  0.00  0.00    +0.008 A 
ATOM     11  C   UNL     1       1.437   1.890  -4.828  0.00  0.00    +0.046 A 
ATOM     12  C   UNL     1       2.794   1.640  -4.971  0.00  0.00    +0.121 A 
ATOM     13  C   UNL     1       3.716   2.409  -4.276  0.00  0.00    +0.046 A 
ATOM     14  C   UNL     1       3.280   3.424  -3.446  0.00  0.00    +0.008 A 
BRANCH   9  16
ATOM     15  C   UNL     1       2.022   6.108  -2.872  0.00  0.00    +0.015 C 
ATOM     16  C   UNL     1       1.455   4.771  -2.389  0.00  0.00    -0.013 C 
ATOM     17  C   UNL     1       1.938   4.497  -0.964  0.00  0.00    +0.015 C 
ATOM     18  C   UNL     1      -0.074   4.829  -2.408  0.00  0.00    +0.015 C 
ENDBRANCH   9  16
ENDBRANCH   8  12
ENDBRANCH   7   8
ENDBRANCH   4   7
ENDBRANCH   3   4
ENDBRANCH   1   3
BRANCH   1  19
ATOM     19  C   UNL     1       6.319  -2.026  -9.034  0.00  0.00    -0.050 C 
BRANCH  19  20
ATOM     20  C   UNL     1       7.049  -0.787  -9.557  0.00  0.00    +0.137 C 
BRANCH  20  21
ATOM     21  O   UNL     1       8.448  -1.063  -9.654  0.00  0.00    -0.397 OA
ATOM     22  H   UNL     1       8.974  -0.320  -9.979  0.00  0.00    +0.209 HD
ENDBRANCH  20  21
ENDBRANCH  19  20
ENDBRANCH   1  19
BRANCH   1  23
ATOM     23  C   UNL     1       8.088  -2.600  -7.519  0.00  0.00    -0.045 C 
BRANCH  23  24
ATOM     24  C   UNL     1       8.338  -3.911  -8.266  0.00  0.00    +0.118 C 
BRANCH  24  25
ATOM     25  O   UNL     1       7.581  -4.958  -7.657  0.00  0.00    -0.392 OA
ATOM     26  H   UNL     1       7.800  -5.113  -6.728  0.00  0.00    +0.210 HD
ENDBRANCH  24  25
BRANCH  24  27
ATOM     27  C   UNL     1       9.828  -4.256  -8.205  0.00  0.00    +0.151 C 
BRANCH  27  28
ATOM     28  N   UNL     1      10.087  -5.446  -9.019  0.00  0.00    -0.344 N 
ATOM     29  C   UNL     1      10.128  -6.729  -8.546  0.00  0.00    +0.087 A 
ATOM     30  C   UNL     1      10.388  -7.580  -9.551  0.00  0.00    +0.027 A 
ATOM     31  C   UNL     1      10.525  -6.776 -10.768  0.00  0.00    -0.000 A 
ATOM     32  C   UNL     1      10.320  -5.440 -10.376  0.00  0.00    +0.049 A 
ATOM     33  C   UNL     1      10.384  -4.433 -11.333  0.00  0.00    +0.026 A 
ATOM     34  C   UNL     1      10.643  -4.752 -12.648  0.00  0.00    +0.002 A 
ATOM     35  C   UNL     1      10.840  -6.072 -13.030  0.00  0.00    +0.001 A 
ATOM     36  C   UNL     1      10.790  -7.077 -12.105  0.00  0.00    +0.010 A 
ENDBRANCH  27  28
ENDBRANCH  24  27
ENDBRANCH  23  24
ENDBRANCH   1  23
TORSDOF 15
