REMARK  Name = ZINC04819762
REMARK  7 active torsions:
REMARK  status: ('A' for Active; 'I' for Inactive)
REMARK    1  A    between atoms: C_1  and  C_2
REMARK    2  A    between atoms: C_5  and  C_31
REMARK    3  A    between atoms: C_9  and  C_11
REMARK    4  A    between atoms: C_16  and  N_17
REMARK    5  A    between atoms: N_17  and  C_18
REMARK    6  A    between atoms: C_18  and  C_19
REMARK    7  A    between atoms: C_19  and  O_20
REMARK                            x       y       z     vdW  Elec       q    Type
REMARK                         _______ _______ _______ _____ _____    ______ ____
ROOT
ATOM      1  C   UNL     1       4.587   0.255   0.598  0.00  0.00    +0.058 A 
ATOM      2  C   UNL     1       4.522   1.627   0.828  0.00  0.00    +0.015 A 
ATOM      3  C   UNL     1       3.334   2.312   0.653  0.00  0.00    +0.013 A 
ATOM      4  C   UNL     1       2.187   1.638   0.245  0.00  0.00    +0.035 A 
ATOM      5  C   UNL     1       2.233   0.252   0.008  0.00  0.00    +0.055 A 
ATOM      6  C   UNL     1       3.437  -0.443   0.185  0.00  0.00    +0.051 A 
ATOM      7  C   UNL     1       1.022  -0.465  -0.424  0.00  0.00    +0.196 C 
ATOM      8  O   UNL     1       1.065  -1.663  -0.629  0.00  0.00    -0.287 OA
ATOM      9  C   UNL     1      -0.246   0.271  -0.610  0.00  0.00    +0.033 A 
ATOM     10  C   UNL     1      -1.395  -0.401  -1.018  0.00  0.00    +0.012 A 
ATOM     11  C   UNL     1      -2.578   0.296  -1.188  0.00  0.00    +0.001 A 
ATOM     12  C   UNL     1      -2.628   1.659  -0.957  0.00  0.00    +0.001 A 
ATOM     13  C   UNL     1      -1.497   2.341  -0.545  0.00  0.00    +0.012 A 
ATOM     14  C   UNL     1      -0.297   1.656  -0.374  0.00  0.00    +0.033 A 
ATOM     15  C   UNL     1       0.917   2.377   0.060  0.00  0.00    +0.195 C 
ATOM     16  O   UNL     1       0.875   3.574   0.264  0.00  0.00    -0.287 OA
ENDROOT
BRANCH   1  23
ATOM     17  C   UNL     1       8.155  -1.619   1.622  0.00  0.00    +0.026 C 
ATOM     18  C   UNL     1       8.278  -0.669   0.429  0.00  0.00    +0.056 C 
ATOM     19  C   UNL     1       9.292   0.428   0.752  0.00  0.00    -0.060 C 
ATOM     20  C   UNL     1       7.988   2.092  -0.436  0.00  0.00    -0.057 C 
ATOM     21  C   UNL     1       6.921   1.060  -0.813  0.00  0.00    +0.092 C 
ATOM     22  N   UNL     1       6.975  -0.044   0.158  0.00  0.00    -0.298 N 
ATOM     23  C   UNL     1       5.861  -0.467   0.787  0.00  0.00    +0.249 C 
ATOM     24  O   UNL     1       5.905  -1.443   1.510  0.00  0.00    -0.270 OA
ATOM     25  C   UNL     1       8.057   3.173  -1.518  0.00  0.00    -0.012 C 
ATOM     26  N   UNL     1       9.303   1.428  -0.334  0.00  0.00    +0.383 N 
ATOM     27  H   UNL     1       9.515   0.960  -1.222  0.00  0.00    -0.085 HD
ATOM     28  H   UNL     1      10.023   2.133  -0.137  0.00  0.00    -0.085 HD
ENDBRANCH   1  23
BRANCH   6  29
ATOM     29  N   UNL     1       3.495  -1.803  -0.045  0.00  0.00    -0.341 N 
ATOM     30  H   UNL     1       3.984  -2.275   0.701  0.00  0.00    +0.146 HD
BRANCH  29  31
ATOM     31  C   UNL     1       4.113  -2.091  -1.346  0.00  0.00    +0.129 C 
BRANCH  31  32
ATOM     32  C   UNL     1       4.054  -3.596  -1.617  0.00  0.00    +0.174 C 
BRANCH  32  33
ATOM     33  O   UNL     1       2.690  -4.003  -1.747  0.00  0.00    -0.393 OA
ATOM     34  H   UNL     1       2.577  -4.948  -1.920  0.00  0.00    +0.209 HD
ENDBRANCH  32  33
ENDBRANCH  31  32
ENDBRANCH  29  31
ENDBRANCH   6  29
TORSDOF 5
