REMARK  Name = ZINC08071823
REMARK  3 active torsions:
REMARK  status: ('A' for Active; 'I' for Inactive)
REMARK    1  A    between atoms: C_6  and  C_7
REMARK    2  A    between atoms: N_9  and  C_10
REMARK    3  A    between atoms: C_11  and  C_18
REMARK                            x       y       z     vdW  Elec       q    Type
REMARK                         _______ _______ _______ _____ _____    ______ ____
ROOT
ATOM      1  C   UNL     1      -1.273  -0.749   0.011  0.00  0.00    +0.249 C 
ATOM      2  O   UNL     1      -1.267  -1.964   0.004  0.00  0.00    -0.270 OA
ATOM      3  N   UNL     1      -2.443  -0.081   0.026  0.00  0.00    -0.275 N 
ATOM      4  H   UNL     1      -2.448   0.889   0.031  0.00  0.00    +0.156 HD
ENDROOT
BRANCH   1  10
ATOM      5  C   UNL     1      -0.017   1.404   0.010  0.00  0.00    +0.015 A 
ATOM      6  C   UNL     1       1.126   2.122   0.003  0.00  0.00    +0.031 A 
ATOM      7  C   UNL     1       2.389   1.467  -0.013  0.00  0.00    +0.100 A 
ATOM      8  C   UNL     1       2.423   0.009  -0.021  0.00  0.00    +0.101 A 
ATOM      9  C   UNL     1       1.194  -0.698  -0.013  0.00  0.00    +0.043 A 
ATOM     10  C   UNL     1       0.002  -0.004   0.002  0.00  0.00    +0.039 A 
ATOM     11  N   UNL     1       3.662  -0.488  -0.035  0.00  0.00    -0.191 NA
ATOM     12  S   UNL     1       4.640   0.789  -0.038  0.00  0.00    +0.116 S 
ATOM     13  N   UNL     1       3.603   2.019  -0.021  0.00  0.00    -0.191 NA
ENDBRANCH   1  10
BRANCH   3  14
ATOM     14  C   UNL     1      -3.639  -0.779   0.034  0.00  0.00    +0.085 A 
ATOM     15  C   UNL     1      -4.924  -0.266   0.044  0.00  0.00    +0.068 A 
ATOM     16  C   UNL     1      -6.027  -1.225   0.050  0.00  0.00    -0.023 A 
ATOM     17  C   UNL     1      -5.636  -2.512   0.047  0.00  0.00    -0.004 A 
ATOM     18  S   UNL     1      -3.863  -2.441   0.027  0.00  0.00    -0.077 S 
ATOM     19  C   UNL     1      -6.809  -3.454   0.058  0.00  0.00    +0.043 C 
ATOM     20  C   UNL     1      -8.006  -2.584   0.502  0.00  0.00    +0.010 C 
ATOM     21  C   UNL     1      -7.554  -1.178   0.057  0.00  0.00    +0.037 C 
BRANCH  15  22
ATOM     22  C   UNL     1      -5.168   1.179   0.048  0.00  0.00    +0.244 C 
ATOM     23  O   UNL     1      -5.277   1.781  -1.004  0.00  0.00    -0.270 OA
ATOM     24  N   UNL     1      -5.272   1.841   1.217  0.00  0.00    -0.325 N 
ATOM     25  H   UNL     1      -5.185   1.362   2.056  0.00  0.00    +0.145 HD
ATOM     26  H   UNL     1      -5.434   2.798   1.220  0.00  0.00    +0.145 HD
ENDBRANCH  15  22
ENDBRANCH   3  14
TORSDOF 3
