REMARK  Name = ZINC43093364
REMARK  9 active torsions:
REMARK  status: ('A' for Active; 'I' for Inactive)
REMARK    1  A    between atoms: C_1  and  C_2
REMARK    2  A    between atoms: C_2  and  C_4
REMARK    3  A    between atoms: C_2  and  N_23
REMARK    4  A    between atoms: C_4  and  C_6
REMARK    5  A    between atoms: C_4  and  N_13
REMARK    6  A    between atoms: N_13  and  C_14
REMARK    7  A    between atoms: N_13  and  C_17
REMARK    8  A    between atoms: C_14  and  C_15
REMARK    9  A    between atoms: C_15  and  O_16
REMARK                            x       y       z     vdW  Elec       q    Type
REMARK                         _______ _______ _______ _____ _____    ______ ____
ROOT
ATOM      1  C   UNL     1      -1.294  -0.712   0.096  0.00  0.00    +0.074 C 
ENDROOT
BRANCH   1   2
ATOM      2  C   UNL     1      -1.388  -1.993   0.884  0.00  0.00    -0.018 A 
ATOM      3  C   UNL     1      -1.720  -1.957   2.225  0.00  0.00    +0.006 A 
ATOM      4  C   UNL     1      -1.806  -3.131   2.948  0.00  0.00    +0.000 A 
ATOM      5  C   UNL     1      -1.561  -4.344   2.330  0.00  0.00    +0.001 A 
ATOM      6  C   UNL     1      -1.229  -4.381   0.990  0.00  0.00    +0.015 A 
ATOM      7  C   UNL     1      -1.147  -3.206   0.264  0.00  0.00    +0.022 A 
ATOM      8 BR   UNL     1      -0.700  -3.257  -1.573  0.00  0.00    -0.050 Br
ENDBRANCH   1   2
BRANCH   1  10
ATOM      9  C   UNL     1       1.183  -1.038   0.093  0.00  0.00    -0.012 C 
ATOM     10  C   UNL     1       0.055  -0.043   0.369  0.00  0.00    -0.056 C 
BRANCH  10  11
ATOM     11  N   UNL     1       0.112   0.387   1.772  0.00  0.00    +0.381 N 
ATOM     12  H   UNL     1       0.953   0.922   1.926  0.00  0.00    -0.090 HD
ATOM     13  H   UNL     1      -0.693   0.957   1.983  0.00  0.00    -0.090 HD
ATOM     14  H   UNL     1       0.117  -0.425   2.373  0.00  0.00    -0.090 HD
ENDBRANCH  10  11
ENDBRANCH   1  10
BRANCH   1  15
ATOM     15  N   UNL     1      -2.380   0.191   0.498  0.00  0.00    -0.292 NA
BRANCH  15  16
ATOM     16  C   UNL     1      -2.426   1.377  -0.367  0.00  0.00    +0.057 C 
ATOM     17  C   UNL     1      -1.511   2.462   0.204  0.00  0.00    +0.019 C 
ATOM     18  C   UNL     1      -1.560   3.697  -0.698  0.00  0.00    +0.002 C 
ATOM     19  C   UNL     1      -1.088   3.321  -2.104  0.00  0.00    +0.000 C 
ATOM     20  C   UNL     1      -2.003   2.236  -2.675  0.00  0.00    +0.002 C 
ATOM     21  C   UNL     1      -1.955   1.001  -1.774  0.00  0.00    +0.019 C 
ENDBRANCH  15  16
BRANCH  15  22
ATOM     22  C   UNL     1      -3.672  -0.508   0.503  0.00  0.00    +0.113 C 
BRANCH  22  23
ATOM     23  C   UNL     1      -4.662   0.257   1.384  0.00  0.00    +0.171 C 
BRANCH  23  24
ATOM     24  O   UNL     1      -4.973   1.510   0.772  0.00  0.00    -0.394 OA
ATOM     25  H   UNL     1      -5.537   2.082   1.311  0.00  0.00    +0.209 HD
ENDBRANCH  23  24
ENDBRANCH  22  23
ENDBRANCH  15  22
ENDBRANCH   1  15
TORSDOF 8
