REMARK  Name = ZINC05569251
REMARK  3 active torsions:
REMARK  status: ('A' for Active; 'I' for Inactive)
REMARK    1  A    between atoms: C_3  and  N_22
REMARK    2  A    between atoms: C_6  and  C_7
REMARK    3  A    between atoms: N_12  and  C_15
REMARK                            x       y       z     vdW  Elec       q    Type
REMARK                         _______ _______ _______ _____ _____    ______ ____
ROOT
ATOM      1  C   UNL     1      -2.531   1.681   0.022  0.00  0.00    +0.026 C 
ATOM      2  C   UNL     1      -1.240   2.078  -0.246  0.00  0.00    +0.102 C 
ATOM      3  C   UNL     1      -0.022   1.244  -0.233  0.00  0.00    +0.266 C 
ATOM      4  O   UNL     1       0.041   0.055   0.019  0.00  0.00    -0.268 OA
ATOM      5  N   UNL     1       1.006   2.050  -0.559  0.00  0.00    -0.223 N 
ATOM      6  N   UNL     1       0.559   3.352  -0.780  0.00  0.00    -0.184 N 
ATOM      7  C   UNL     1      -0.773   3.433  -0.604  0.00  0.00    +0.272 C 
ATOM      8  O   UNL     1      -1.461   4.429  -0.723  0.00  0.00    -0.268 OA
ATOM      9  H   UNL     1       1.931   1.764  -0.631  0.00  0.00    +0.174 HD
ENDROOT
BRANCH   6  10
ATOM     10  C   UNL     1       1.381   4.426  -1.136  0.00  0.00    +0.056 A 
ATOM     11  C   UNL     1       0.832   5.686  -1.338  0.00  0.00    +0.026 A 
ATOM     12  C   UNL     1       1.647   6.746  -1.683  0.00  0.00    +0.022 A 
ATOM     13  C   UNL     1       3.008   6.552  -1.839  0.00  0.00    +0.041 A 
ATOM     14  C   UNL     1       3.557   5.297  -1.644  0.00  0.00    +0.022 A 
ATOM     15  C   UNL     1       2.748   4.234  -1.293  0.00  0.00    +0.026 A 
ATOM     16 CL   UNL     1       4.028   7.885  -2.281  0.00  0.00    -0.084 Cl
ENDBRANCH   6  10
BRANCH   1  22
ATOM     17  C   UNL     1      -3.342   3.911   0.763  0.00  0.00    +0.010 A 
ATOM     18  C   UNL     1      -4.348   4.847   0.867  0.00  0.00    +0.033 A 
ATOM     19  C   UNL     1      -5.610   4.571   0.369  0.00  0.00    +0.126 A 
ATOM     20  C   UNL     1      -5.872   3.356  -0.242  0.00  0.00    +0.033 A 
ATOM     21  C   UNL     1      -4.877   2.410  -0.359  0.00  0.00    +0.010 A 
ATOM     22  C   UNL     1      -3.597   2.681   0.142  0.00  0.00    -0.024 A 
BRANCH  19  23
ATOM     23  N   UNL     1      -6.686   5.580   0.491  0.00  0.00    +0.056 N 
ATOM     24  O   UNL     1      -7.798   5.341   0.055  0.00  0.00    -0.126 OA
ATOM     25  O   UNL     1      -6.460   6.649   1.028  0.00  0.00    -0.126 OA
ENDBRANCH  19  23
ENDBRANCH   1  22
TORSDOF 3
