REMARK  Name = ZINC15482220
REMARK  13 active torsions:
REMARK  status: ('A' for Active; 'I' for Inactive)
REMARK    1  A    between atoms: C_1  and  C_2
REMARK    2  A    between atoms: C_2  and  C_3
REMARK    3  A    between atoms: C_3  and  C_4
REMARK    4  A    between atoms: C_4  and  N_5
REMARK    5  A    between atoms: C_6  and  N_37
REMARK    6  A    between atoms: C_7  and  N_14
REMARK    7  A    between atoms: N_14  and  C_15
REMARK    8  A    between atoms: C_15  and  C_16
REMARK    9  A    between atoms: C_22  and  C_24
REMARK   10  A    between atoms: C_24  and  N_70
REMARK   11  A    between atoms: C_25  and  N_70
REMARK   12  A    between atoms: C_26  and  C_27
REMARK   13  A    between atoms: C_26  and  N_70
REMARK                            x       y       z     vdW  Elec       q    Type
REMARK                         _______ _______ _______ _____ _____    ______ ____
ROOT
ATOM      1  N   UNL     1       2.416   3.913   0.079  0.00  0.00    -0.261 N 
ATOM      2  C   UNL     1       2.104   5.226   0.118  0.00  0.00    +0.204 C 
ATOM      3  O   UNL     1       0.990   5.594  -0.191  0.00  0.00    -0.277 OA
ENDROOT
BRANCH   1   6
ATOM      4  N   UNL     1       0.030   1.138   0.408  0.00  0.00    -0.280 N 
ATOM      5  C   UNL     1       1.003   2.055   0.732  0.00  0.00    +0.127 A 
ATOM      6  C   UNL     1       1.420   2.961  -0.222  0.00  0.00    +0.140 A 
ATOM      7  C   UNL     1       0.835   2.917  -1.502  0.00  0.00    +0.277 A 
ATOM      8  O   UNL     1       1.185   3.704  -2.364  0.00  0.00    -0.266 OA
ATOM      9  N   UNL     1      -0.114   1.998  -1.768  0.00  0.00    -0.273 N 
ATOM     10  H   UNL     1      -0.528   1.963  -2.677  0.00  0.00    +0.173 HD
ATOM     11  C   UNL     1      -0.512   1.127  -0.823  0.00  0.00    +0.331 A 
ATOM     12  O   UNL     1      -1.374   0.312  -1.088  0.00  0.00    -0.246 OA
BRANCH   5  13
ATOM     13  N   UNL     1       1.553   2.070   1.991  0.00  0.00    -0.343 N 
ATOM     14  H   UNL     1       2.172   2.774   2.242  0.00  0.00    +0.144 HD
ATOM     15  H   UNL     1       1.323   1.377   2.629  0.00  0.00    +0.144 HD
ENDBRANCH   5  13
BRANCH   4  16
ATOM     16  C   UNL     1      -0.422   0.172   1.412  0.00  0.00    +0.128 C 
BRANCH  16  17
ATOM     17  C   UNL     1      -1.598   0.761   2.194  0.00  0.00    +0.021 C 
BRANCH  17  19
ATOM     18  C   UNL     1      -3.245   0.342   4.025  0.00  0.00    +0.004 C 
ATOM     19  C   UNL     1      -2.070  -0.248   3.242  0.00  0.00    -0.002 C 
ENDBRANCH  17  19
ENDBRANCH  16  17
ENDBRANCH   4  16
ENDBRANCH   1   6
BRANCH   1  20
ATOM     20  C   UNL     1       3.788   3.478   0.349  0.00  0.00    +0.149 C 
BRANCH  20  21
ATOM     21  C   UNL     1       4.544   3.362  -0.949  0.00  0.00    -0.030 A 
ATOM     22  C   UNL     1       4.461   2.202  -1.696  0.00  0.00    +0.005 A 
ATOM     23  C   UNL     1       5.150   2.098  -2.890  0.00  0.00    +0.000 A 
ATOM     24  C   UNL     1       5.930   3.150  -3.332  0.00  0.00    +0.000 A 
ATOM     25  C   UNL     1       6.018   4.308  -2.582  0.00  0.00    +0.000 A 
ATOM     26  C   UNL     1       5.324   4.414  -1.391  0.00  0.00    +0.005 A 
ENDBRANCH  20  21
ENDBRANCH   1  20
BRANCH   2  27
ATOM     27  C   UNL     1       3.140   6.234   0.544  0.00  0.00    +0.019 C 
BRANCH  27  29
ATOM     28  C   UNL     1       1.524   7.612   1.706  0.00  0.00    -0.095 C 
ATOM     29  N   UNL     1       2.510   7.569   0.605  0.00  0.00    +0.386 N 
ATOM     30  H   UNL     1       2.026   7.750  -0.282  0.00  0.00    -0.081 HD
BRANCH  29  31
ATOM     31  C   UNL     1       3.542   8.607   0.810  0.00  0.00    -0.043 C 
BRANCH  31  32
ATOM     32  C   UNL     1       2.906   9.963   0.648  0.00  0.00    -0.063 A 
ATOM     33  C   UNL     1       2.862  10.555  -0.613  0.00  0.00    +0.002 A 
ATOM     34  C   UNL     1       2.291  11.776  -0.795  0.00  0.00    +0.009 A 
ATOM     35  C   UNL     1       1.747  12.460   0.306  0.00  0.00    -0.018 A 
ATOM     36  C   UNL     1       1.154  13.726   0.159  0.00  0.00    +0.008 A 
ATOM     37  C   UNL     1       0.637  14.358   1.248  0.00  0.00    +0.001 A 
ATOM     38  C   UNL     1       0.687  13.769   2.510  0.00  0.00    +0.001 A 
ATOM     39  C   UNL     1       1.253  12.545   2.691  0.00  0.00    +0.008 A 
ATOM     40  C   UNL     1       1.797  11.861   1.590  0.00  0.00    -0.018 A 
ATOM     41  C   UNL     1       2.390  10.595   1.737  0.00  0.00    +0.010 A 
ENDBRANCH  31  32
ENDBRANCH  29  31
ENDBRANCH  27  29
ENDBRANCH   2  27
TORSDOF 11
