REMARK  Name = ZINC63694324
REMARK  5 active torsions:
REMARK  status: ('A' for Active; 'I' for Inactive)
REMARK    1  A    between atoms: C_4  and  C_7
REMARK    2  A    between atoms: C_10  and  C_22
REMARK    3  A    between atoms: N_13  and  C_14
REMARK    4  A    between atoms: N_24  and  C_25
REMARK    5  A    between atoms: C_25  and  C_26
REMARK                            x       y       z     vdW  Elec       q    Type
REMARK                         _______ _______ _______ _____ _____    ______ ____
ROOT
ATOM      1  C   UNL     1       3.711  -0.707  -0.038  0.00  0.00    +0.105 C 
ATOM      2  C   UNL     1       4.038  -1.247   1.369  0.00  0.00    +0.054 C 
ATOM      3  C   UNL     1       4.138  -2.778   1.183  0.00  0.00    +0.157 C 
ATOM      4  N   UNL     1       4.436  -2.932  -0.266  0.00  0.00    -0.241 NA
ATOM      5  N   UNL     1       3.620  -1.896  -0.915  0.00  0.00    -0.230 NA
ATOM      6  H   UNL     1       4.181  -3.852  -0.592  0.00  0.00    +0.142 HD
ENDROOT
BRANCH   5   7
ATOM      7  C   UNL     1       4.122  -1.595  -2.263  0.00  0.00    +0.096 C 
ATOM      8  C   UNL     1       3.931  -2.820  -3.174  0.00  0.00    +0.044 C 
ATOM      9  C   UNL     1       4.734  -2.634  -4.483  0.00  0.00    +0.167 C 
ATOM     10  S   UNL     1       6.121  -1.547  -3.955  0.00  0.00    -0.029 S 
ATOM     11  O   UNL     1       7.332  -2.291  -3.994  0.00  0.00    -0.174 OA
ATOM     12  O   UNL     1       6.035  -0.314  -4.656  0.00  0.00    -0.174 OA
ATOM     13  C   UNL     1       5.643  -1.274  -2.197  0.00  0.00    +0.186 C 
ENDBRANCH   5   7
BRANCH   1  17
ATOM     14  C   UNL     1      -0.017   1.378   0.010  0.00  0.00    +0.000 A 
ATOM     15  C   UNL     1       1.171   2.086   0.002  0.00  0.00    +0.000 A 
ATOM     16  C   UNL     1       2.377   1.411  -0.013  0.00  0.00    +0.005 A 
ATOM     17  C   UNL     1       2.396   0.029  -0.020  0.00  0.00    -0.029 A 
ATOM     18  C   UNL     1       1.208  -0.679  -0.012  0.00  0.00    +0.005 A 
ATOM     19  C   UNL     1       0.002  -0.004   0.002  0.00  0.00    +0.000 A 
ENDBRANCH   1  17
BRANCH   3  20
ATOM     20  C   UNL     1       5.256  -3.343   2.021  0.00  0.00    +0.232 C 
ATOM     21  O   UNL     1       6.327  -3.598   1.511  0.00  0.00    -0.274 OA
ATOM     22  N   UNL     1       5.066  -3.564   3.337  0.00  0.00    -0.310 N 
ATOM     23  H   UNL     1       4.210  -3.360   3.744  0.00  0.00    +0.149 HD
BRANCH  22  24
ATOM     24  C   UNL     1       6.153  -4.113   4.151  0.00  0.00    +0.151 C 
BRANCH  24  25
ATOM     25  C   UNL     1       5.679  -4.266   5.598  0.00  0.00    +0.191 C 
ATOM     26  N   UNL     1       4.482  -5.115   5.649  0.00  0.00    -0.362 N 
ATOM     27  C   UNL     1       3.518  -4.400   6.152  0.00  0.00    +0.060 A 
ATOM     28  C   UNL     1       2.108  -4.691   6.447  0.00  0.00    +0.027 A 
ATOM     29  C   UNL     1       1.328  -3.730   6.981  0.00  0.00    +0.002 A 
ATOM     30  C   UNL     1       1.807  -2.440   7.273  0.00  0.00    +0.002 A 
ATOM     31  C   UNL     1       3.082  -2.069   7.042  0.00  0.00    +0.027 A 
ATOM     32  C   UNL     1       4.025  -3.036   6.463  0.00  0.00    +0.060 A 
ATOM     33  N   UNL     1       5.283  -2.959   6.139  0.00  0.00    -0.362 N 
ATOM     34  H   UNL     1       4.421  -6.039   5.361  0.00  0.00    +0.162 HD
ATOM     35  H   UNL     1       5.855  -2.182   6.237  0.00  0.00    +0.162 HD
ENDBRANCH  24  25
ENDBRANCH  22  24
ENDBRANCH   3  20
TORSDOF 5
