REMARK  Name = ZINC10909296
REMARK  12 active torsions:
REMARK  status: ('A' for Active; 'I' for Inactive)
REMARK    1  A    between atoms: C_1  and  C_2
REMARK    2  A    between atoms: C_4  and  C_33
REMARK    3  A    between atoms: C_6  and  N_13
REMARK    4  A    between atoms: C_14  and  C_16
REMARK    5  A    between atoms: C_16  and  N_57
REMARK    6  A    between atoms: C_17  and  C_18
REMARK    7  A    between atoms: C_17  and  N_57
REMARK    8  A    between atoms: C_21  and  O_26
REMARK    9  A    between atoms: C_22  and  O_24
REMARK   10  A    between atoms: O_24  and  C_25
REMARK   11  A    between atoms: O_26  and  C_27
REMARK   12  A    between atoms: C_30  and  N_57
REMARK                            x       y       z     vdW  Elec       q    Type
REMARK                         _______ _______ _______ _____ _____    ______ ____
ROOT
ATOM      1  C   UNL     1      -4.275   4.685  -1.400  0.00  0.00    +0.020 C 
ENDROOT
BRANCH   1   3
ATOM      2  N   UNL     1      -6.639   3.970  -1.262  0.00  0.00    -0.257 N 
ATOM      3  C   UNL     1      -5.337   3.647  -1.141  0.00  0.00    +0.203 C 
ATOM      4  O   UNL     1      -5.018   2.520  -0.825  0.00  0.00    -0.277 OA
ATOM      5  H   UNL     1      -6.894   4.872  -1.515  0.00  0.00    +0.158 HD
BRANCH   2  11
ATOM      6  C   UNL     1     -11.729   0.515  -0.439  0.00  0.00    +0.068 C 
ATOM      7  C   UNL     1     -11.048   1.816  -0.778  0.00  0.00    +0.070 A 
ATOM      8  C   UNL     1      -9.585   1.906  -0.768  0.00  0.00    +0.053 A 
ATOM      9  C   UNL     1      -8.555   1.072  -0.515  0.00  0.00    +0.114 A 
ATOM     10  O   UNL     1      -7.397   1.739  -0.675  0.00  0.00    -0.445 OA
ATOM     11  C   UNL     1      -7.614   3.017  -1.024  0.00  0.00    +0.206 A 
ATOM     12  C   UNL     1      -8.971   3.212  -1.111  0.00  0.00    +0.110 A 
ATOM     13  C   UNL     1      -9.869   4.316  -1.434  0.00  0.00    +0.277 A 
ATOM     14  O   UNL     1      -9.426   5.413  -1.723  0.00  0.00    -0.266 OA
ATOM     15  N   UNL     1     -11.201   4.098  -1.406  0.00  0.00    -0.242 N 
ATOM     16  H   UNL     1     -11.797   4.832  -1.621  0.00  0.00    +0.192 HD
ATOM     17  N   UNL     1     -11.754   2.861  -1.081  0.00  0.00    -0.175 NA
ATOM     18  C   UNL     1      -8.680  -0.378  -0.121  0.00  0.00    +0.087 C 
ENDBRANCH   2  11
ENDBRANCH   1   3
BRANCH   1  19
ATOM     19  N   UNL     1      -2.950   4.037  -1.323  0.00  0.00    +0.390 N 
ATOM     20  H   UNL     1      -2.996   3.126  -1.795  0.00  0.00    -0.080 HD
BRANCH  19  21
ATOM     21  C   UNL     1      -1.937   4.876  -1.998  0.00  0.00    -0.068 C 
ATOM     22  C   UNL     1      -2.334   6.294  -2.413  0.00  0.00    -0.017 C 
ATOM     23  C   UNL     1      -2.176   5.201  -3.474  0.00  0.00    -0.017 C 
ENDBRANCH  19  21
BRANCH  19  24
ATOM     24  C   UNL     1      -2.571   3.827   0.090  0.00  0.00    -0.042 C 
BRANCH  24  25
ATOM     25  C   UNL     1      -1.330   2.973   0.140  0.00  0.00    -0.060 A 
ATOM     26  C   UNL     1      -1.442   1.595   0.173  0.00  0.00    +0.005 A 
ATOM     27  C   UNL     1      -0.306   0.808   0.224  0.00  0.00    +0.050 A 
ATOM     28  C   UNL     1       0.947   1.399   0.230  0.00  0.00    +0.168 A 
ATOM     29  C   UNL     1       1.059   2.786   0.190  0.00  0.00    +0.162 A 
ATOM     30  C   UNL     1      -0.083   3.569   0.145  0.00  0.00    +0.051 A 
BRANCH  29  31
ATOM     31  O   UNL     1       2.287   3.370   0.196  0.00  0.00    -0.491 OA
ATOM     32  C   UNL     1       2.326   4.798   0.154  0.00  0.00    +0.277 C 
ENDBRANCH  29  31
BRANCH  28  33
ATOM     33  O   UNL     1       2.065   0.626   0.273  0.00  0.00    -0.431 OA
BRANCH  33  34
ATOM     34  C   UNL     1       1.873  -0.790   0.312  0.00  0.00    +0.541 C 
ATOM     35  F   UNL     1       1.136  -1.130   1.451  0.00  0.00    -0.166 F 
ATOM     36  F   UNL     1       1.179  -1.198  -0.832  0.00  0.00    -0.166 F 
ENDBRANCH  33  34
ENDBRANCH  28  33
ENDBRANCH  24  25
ENDBRANCH  19  24
ENDBRANCH   1  19
TORSDOF 9
