REMARK  Name = ZINC51444118
REMARK  8 active torsions:
REMARK  status: ('A' for Active; 'I' for Inactive)
REMARK    1  A    between atoms: C_1  and  C_2
REMARK    2  A    between atoms: C_2  and  C_3
REMARK    3  A    between atoms: C_3  and  C_4
REMARK    4  A    between atoms: C_4  and  C_6
REMARK    5  A    between atoms: C_4  and  N_7
REMARK    6  A    between atoms: C_8  and  C_10
REMARK    7  A    between atoms: C_17  and  C_19
REMARK    8  A    between atoms: C_24  and  O_25
REMARK                            x       y       z     vdW  Elec       q    Type
REMARK                         _______ _______ _______ _____ _____    ______ ____
ROOT
ATOM      1  C   UNL     1       0.796  -4.298   2.331  0.00  0.00    +0.092 C 
ATOM      2  C   UNL     1       1.595  -5.575   2.063  0.00  0.00    +0.016 C 
ATOM      3  C   UNL     1       2.156  -6.114   3.381  0.00  0.00    +0.020 C 
ATOM      4  C   UNL     1       3.100  -5.073   3.993  0.00  0.00    +0.108 C 
ATOM      5  N   UNL     1       2.380  -3.799   4.119  0.00  0.00    -0.297 N 
ATOM      6  C   UNL     1       1.724  -3.236   2.931  0.00  0.00    +0.120 C 
ATOM      7  C   UNL     1       2.322  -3.158   5.304  0.00  0.00    +0.250 C 
ATOM      8  O   UNL     1       1.788  -2.068   5.380  0.00  0.00    -0.270 OA
ENDROOT
BRANCH   7   9
ATOM      9  C   UNL     1       2.906  -3.779   6.508  0.00  0.00    +0.078 A 
ATOM     10  C   UNL     1       4.238  -4.199   6.505  0.00  0.00    +0.018 A 
ATOM     11  C   UNL     1       4.778  -4.777   7.633  0.00  0.00    +0.016 A 
ATOM     12  C   UNL     1       4.005  -4.945   8.771  0.00  0.00    +0.021 A 
ATOM     13  C   UNL     1       2.686  -4.535   8.787  0.00  0.00    +0.061 A 
ATOM     14  C   UNL     1       2.128  -3.945   7.662  0.00  0.00    +0.130 A 
ATOM     15 BR   UNL     1       4.759  -5.741  10.312  0.00  0.00    -0.050 Br
BRANCH  14  16
ATOM     16  O   UNL     1       0.835  -3.536   7.677  0.00  0.00    -0.506 OA
ATOM     17  H   UNL     1       0.205  -4.214   7.395  0.00  0.00    +0.292 HD
ENDBRANCH  14  16
ENDBRANCH   7   9
BRANCH   1  19
ATOM     18  N   UNL     1      -0.529  -2.663   1.031  0.00  0.00    -0.312 N 
ATOM     19  C   UNL     1       0.217  -3.786   1.038  0.00  0.00    +0.218 C 
ATOM     20  O   UNL     1       0.421  -4.384   0.003  0.00  0.00    -0.275 OA
ATOM     21  H   UNL     1      -0.692  -2.184   1.858  0.00  0.00    +0.149 HD
BRANCH  18  22
ATOM     22  C   UNL     1      -1.092  -2.165  -0.227  0.00  0.00    +0.070 C 
ATOM     23  C   UNL     1      -2.420  -2.873  -0.506  0.00  0.00    +0.028 C 
BRANCH  22  24
ATOM     24  C   UNL     1      -1.330  -0.658  -0.118  0.00  0.00    +0.022 C 
BRANCH  24  26
ATOM     25  C   UNL     1      -0.227   1.568   0.146  0.00  0.00    +0.004 C 
ATOM     26  C   UNL     1       0.011   0.061   0.037  0.00  0.00    -0.002 C 
ENDBRANCH  24  26
ENDBRANCH  22  24
ENDBRANCH  18  22
ENDBRANCH   1  19
TORSDOF 6
