REMARK  Name = ZINC35256961
REMARK  5 active torsions:
REMARK  status: ('A' for Active; 'I' for Inactive)
REMARK    1  A    between atoms: C_1  and  C_2
REMARK    2  A    between atoms: C_2  and  C_3
REMARK    3  A    between atoms: C_9  and  N_11
REMARK    4  A    between atoms: N_11  and  C_12
REMARK    5  A    between atoms: C_12  and  C_13
REMARK                            x       y       z     vdW  Elec       q    Type
REMARK                         _______ _______ _______ _____ _____    ______ ____
ROOT
ATOM      1  N   UNL     1      -0.766  -2.431  -1.385  0.00  0.00    +0.384 N 
ATOM      2  H   UNL     1      -1.322  -2.101  -2.159  0.00  0.00    -0.085 HD
ATOM      3  H   UNL     1       0.151  -2.012  -1.427  0.00  0.00    -0.085 HD
ENDROOT
BRANCH   1   9
ATOM      4  C   UNL     1      -1.433  -0.534   0.013  0.00  0.00    -0.025 C 
ATOM      5  C   UNL     1      -2.110  -0.145   1.329  0.00  0.00    +0.002 C 
ATOM      6  C   UNL     1      -3.546  -0.675   1.340  0.00  0.00    +0.000 C 
ATOM      7  C   UNL     1      -3.528  -2.199   1.206  0.00  0.00    -0.002 C 
ATOM      8  C   UNL     1      -2.851  -2.587  -0.110  0.00  0.00    -0.015 C 
ATOM      9  C   UNL     1      -1.416  -2.058  -0.121  0.00  0.00    -0.068 C 
BRANCH   4  11
ATOM     10  C   UNL     1      -0.019   1.526   0.010  0.00  0.00    +0.004 C 
ATOM     11  C   UNL     1       0.002  -0.004   0.002  0.00  0.00    -0.002 C 
ENDBRANCH   4  11
ENDBRANCH   1   9
BRANCH   1  12
ATOM     12  C   UNL     1      -0.641  -3.892  -1.458  0.00  0.00    -0.045 C 
BRANCH  12  13
ATOM     13  C   UNL     1       0.026  -4.275  -2.755  0.00  0.00    -0.047 A 
ATOM     14  C   UNL     1       1.344  -4.693  -2.756  0.00  0.00    +0.052 A 
ATOM     15  C   UNL     1       1.959  -5.044  -3.946  0.00  0.00    +0.166 A 
ATOM     16  C   UNL     1       1.246  -4.976  -5.141  0.00  0.00    +0.167 A 
ATOM     17  C   UNL     1      -0.073  -4.557  -5.133  0.00  0.00    +0.065 A 
ATOM     18  C   UNL     1      -0.684  -4.213  -3.940  0.00  0.00    +0.023 A 
ATOM     19 BR   UNL     1      -2.488  -3.648  -3.932  0.00  0.00    -0.050 Br
ATOM     20  O   UNL     1       2.065  -5.370  -6.160  0.00  0.00    -0.453 OA
ATOM     21  C   UNL     1       3.402  -5.288  -5.632  0.00  0.00    +0.466 C 
ATOM     22  O   UNL     1       3.224  -5.481  -4.216  0.00  0.00    -0.453 OA
ENDBRANCH  12  13
ENDBRANCH   1  12
TORSDOF 4
