REMARK  Name = ZINC39923319
REMARK  7 active torsions:
REMARK  status: ('A' for Active; 'I' for Inactive)
REMARK    1  A    between atoms: C_7  and  C_10
REMARK    2  A    between atoms: N_11  and  N_12
REMARK    3  A    between atoms: C_13  and  C_15
REMARK    4  A    between atoms: C_15  and  S_16
REMARK    5  A    between atoms: S_16  and  C_17
REMARK    6  A    between atoms: C_21  and  C_30
REMARK    7  A    between atoms: N_23  and  C_24
REMARK                            x       y       z     vdW  Elec       q    Type
REMARK                         _______ _______ _______ _____ _____    ______ ____
ROOT
ATOM      1  C   UNL     1      -0.544 -10.675  -0.049  0.00  0.00    +0.078 C 
ATOM      2  N   UNL     1      -1.473 -10.504  -1.197  0.00  0.00    -0.262 NA
ATOM      3  N   UNL     1      -2.696 -11.197  -0.784  0.00  0.00    -0.267 NA
ATOM      4  C   UNL     1      -2.691 -11.232   0.693  0.00  0.00    +0.050 C 
ATOM      5  N   UNL     1      -1.443 -10.560   1.129  0.00  0.00    +0.412 N 
ATOM      6  H   UNL     1      -1.653  -9.527  -1.375  0.00  0.00    +0.140 HD
ATOM      7  H   UNL     1      -3.516 -10.721  -1.131  0.00  0.00    +0.139 HD
ATOM      8  H   UNL     1      -1.622  -9.591   1.344  0.00  0.00    -0.075 HD
ENDROOT
BRANCH   4   9
ATOM      9  C   UNL     1      -3.893 -10.499   1.231  0.00  0.00    -0.046 A 
ATOM     10  C   UNL     1      -4.022  -9.139   1.022  0.00  0.00    +0.005 A 
ATOM     11  C   UNL     1      -5.124  -8.465   1.516  0.00  0.00    +0.020 A 
ATOM     12  C   UNL     1      -6.097  -9.153   2.219  0.00  0.00    +0.041 A 
ATOM     13  C   UNL     1      -5.966 -10.514   2.429  0.00  0.00    +0.020 A 
ATOM     14  C   UNL     1      -4.867 -11.188   1.929  0.00  0.00    +0.005 A 
ATOM     15 CL   UNL     1      -7.480  -8.308   2.840  0.00  0.00    -0.084 Cl
ENDBRANCH   4   9
BRANCH   5  16
ATOM     16  C   UNL     1      -0.862 -11.248   2.289  0.00  0.00    -0.062 C 
ATOM     17  C   UNL     1      -1.860 -11.225   3.449  0.00  0.00    -0.015 C 
ATOM     18  C   UNL     1      -1.254 -11.942   4.657  0.00  0.00    -0.002 C 
ATOM     19  C   UNL     1       0.034 -11.232   5.079  0.00  0.00    -0.000 C 
ATOM     20  C   UNL     1       1.032 -11.255   3.919  0.00  0.00    -0.002 C 
ATOM     21  C   UNL     1       0.426 -10.538   2.711  0.00  0.00    -0.015 C 
ENDBRANCH   5  16
BRANCH   1  22
ATOM     22  S   UNL     1       0.706  -9.360  -0.034  0.00  0.00    -0.150 S 
BRANCH  22  23
ATOM     23  C   UNL     1      -0.268  -7.829  -0.006  0.00  0.00    +0.166 C 
BRANCH  23  25
ATOM     24  N   UNL     1       0.158  -5.393   0.030  0.00  0.00    -0.206 N 
ATOM     25  C   UNL     1       0.662  -6.643   0.009  0.00  0.00    +0.242 C 
ATOM     26  O   UNL     1       1.862  -6.813   0.001  0.00  0.00    -0.273 OA
ATOM     27  H   UNL     1      -0.802  -5.257   0.036  0.00  0.00    +0.177 HD
BRANCH  24  29
ATOM     28  C   UNL     1       0.533  -3.076   0.065  0.00  0.00    +0.136 C 
ATOM     29  N   UNL     1       1.022  -4.290   0.044  0.00  0.00    -0.188 NA
BRANCH  28  36
ATOM     30  C   UNL     1      -0.252   1.389   0.138  0.00  0.00    +0.001 A 
ATOM     31  C   UNL     1       0.913   2.162   0.145  0.00  0.00    +0.002 A 
ATOM     32  C   UNL     1       2.145   1.599   0.132  0.00  0.00    +0.026 A 
ATOM     33  C   UNL     1       2.275   0.185   0.109  0.00  0.00    +0.043 A 
ATOM     34  N   UNL     1       3.337  -0.592   0.092  0.00  0.00    -0.380 N 
ATOM     35  C   UNL     1       2.910  -1.995   0.072  0.00  0.00    +0.150 C 
ATOM     36  C   UNL     1       1.398  -1.972   0.079  0.00  0.00    +0.000 C 
ATOM     37  C   UNL     1       1.044  -0.625   0.102  0.00  0.00    +0.004 A 
ATOM     38  C   UNL     1      -0.206   0.033   0.117  0.00  0.00    +0.010 A 
ATOM     39  H   UNL     1       4.257  -0.285   0.093  0.00  0.00    +0.160 HD
ENDBRANCH  28  36
ENDBRANCH  24  29
ENDBRANCH  23  25
ENDBRANCH  22  23
ENDBRANCH   1  22
TORSDOF 7
