REMARK  Name = ZINC08917810
REMARK  16 active torsions:
REMARK  status: ('A' for Active; 'I' for Inactive)
REMARK    1  A    between atoms: C_1  and  C_2
REMARK    2  A    between atoms: C_2  and  C_3
REMARK    3  A    between atoms: C_2  and  C_4
REMARK    4  A    between atoms: C_2  and  O_5
REMARK    5  A    between atoms: O_5  and  C_6
REMARK    6  A    between atoms: N_8  and  C_9
REMARK    7  A    between atoms: C_9  and  C_11
REMARK    8  A    between atoms: C_9  and  C_18
REMARK    9  A    between atoms: C_11  and  C_12
REMARK   10  A    between atoms: C_23  and  C_26
REMARK   11  A    between atoms: N_28  and  CA_29
REMARK   12  A    between atoms: CA_29  and  CB_31
REMARK   13  A    between atoms: CA_29  and  C_35
REMARK   14  A    between atoms: CB_31  and  CG_32
REMARK   15  A    between atoms: CG_32  and  SD_33
REMARK   16  A    between atoms: SD_33  and  CE_34
REMARK                            x       y       z     vdW  Elec       q    Type
REMARK                         _______ _______ _______ _____ _____    ______ ____
ROOT
ATOM      1  C   UNK A   0      -0.014   1.209   0.009  0.00  0.00    +0.236 C 
ATOM      2  O   UNK A   0       0.002  -0.004   0.002  0.00  0.00    -0.274 OA
ATOM      3  N   UNK A   0      -1.191   1.867   0.018  0.00  0.00    -0.300 N 
ATOM      4  C   UNK A   0      -1.227   3.335   0.032  0.00  0.00    +0.108 C 
ATOM      5  C   UNK A   0      -2.105   3.814  -1.134  0.00  0.00    +0.032 C 
ATOM      6  C   UNK A   0      -3.481   3.151  -1.034  0.00  0.00    +0.078 C 
ATOM      7  C   UNK A   0      -3.325   1.632  -1.141  0.00  0.00    +0.032 C 
ATOM      8  C   UNK A   0      -2.461   1.129   0.020  0.00  0.00    +0.108 C 
ENDROOT
BRANCH   6   9
ATOM      9  C   UNK A   0      -4.358   3.645  -2.155  0.00  0.00    +0.217 C 
ATOM     10  O   UNK A   0      -4.815   2.860  -2.959  0.00  0.00    -0.275 OA
ATOM     11  N   MET A   1      -4.636   4.960  -2.264  0.00  0.00    -0.302 N 
ATOM     12  H   MET A   1      -4.271   5.587  -1.621  0.00  0.00    +0.150 HD
BRANCH  11  13
ATOM     13  CA  MET A   1      -5.489   5.440  -3.353  0.00  0.00    +0.187 C 
BRANCH  13  14
ATOM     14  C   MET A   1      -4.652   5.663  -4.587  0.00  0.00    +0.376 C 
ATOM     15  O   MET A   1      -3.465   5.442  -4.558  0.00  0.00    -0.244 OA
ATOM     16  OXT MET A   1      -5.226   6.106  -5.716  0.00  0.00    -0.244 OA
ENDBRANCH  13  14
BRANCH  13  17
ATOM     17  CB  MET A   1      -6.150   6.757  -2.941  0.00  0.00    +0.044 C 
BRANCH  17  18
ATOM     18  CG  MET A   1      -7.097   6.507  -1.765  0.00  0.00    +0.071 C 
BRANCH  18  19
ATOM     19  SD  MET A   1      -7.880   8.068  -1.276  0.00  0.00    -0.164 S 
ATOM     20  CE  MET A   1      -8.956   7.605   0.108  0.00  0.00    +0.084 C 
ENDBRANCH  18  19
ENDBRANCH  17  18
ENDBRANCH  13  17
ENDBRANCH  11  13
ENDBRANCH   6   9
BRANCH   1  21
ATOM     21  C   UNK A   0       1.280   1.980   0.001  0.00  0.00    +0.166 C 
BRANCH  21  24
ATOM     22  C   UNK A   0       2.658  -0.018  -0.217  0.00  0.00    +0.401 C 
ATOM     23  O   UNK A   0       2.017  -0.317  -1.205  0.00  0.00    -0.226 OA
ATOM     24  N   UNK A   0       2.369   1.112   0.458  0.00  0.00    -0.269 N 
ATOM     25  H   UNK A   0       2.880   1.351   1.246  0.00  0.00    +0.153 HD
BRANCH  22  26
ATOM     26  O   UNK A   0       3.658  -0.815   0.203  0.00  0.00    -0.445 OA
BRANCH  26  28
ATOM     27  C   UNK A   0       4.273  -1.629  -2.008  0.00  0.00    +0.055 C 
ATOM     28  C   UNK A   0       3.914  -2.016  -0.572  0.00  0.00    +0.107 C 
ATOM     29  C   UNK A   0       5.077  -2.789   0.053  0.00  0.00    +0.055 C 
ATOM     30  C   UNK A   0       2.663  -2.896  -0.579  0.00  0.00    +0.055 C 
ENDBRANCH  26  28
ENDBRANCH  22  26
ENDBRANCH  21  24
BRANCH  21  31
ATOM     31  C   UNK A   0       1.577   2.464  -1.420  0.00  0.00    +0.067 C 
BRANCH  31  32
ATOM     32  C   UNK A   0       2.805   3.337  -1.408  0.00  0.00    -0.045 A 
ATOM     33  C   UNK A   0       2.680   4.701  -1.223  0.00  0.00    +0.004 A 
ATOM     34  C   UNK A   0       3.807   5.502  -1.206  0.00  0.00    +0.000 A 
ATOM     35  C   UNK A   0       5.057   4.940  -1.385  0.00  0.00    +0.000 A 
ATOM     36  C   UNK A   0       5.181   3.576  -1.575  0.00  0.00    +0.000 A 
ATOM     37  C   UNK A   0       4.055   2.775  -1.587  0.00  0.00    +0.004 A 
ENDBRANCH  31  32
ENDBRANCH  21  31
ENDBRANCH   1  21
TORSDOF 12
