REMARK  Name = ZINC09454158
REMARK  5 active torsions:
REMARK  status: ('A' for Active; 'I' for Inactive)
REMARK    1  A    between atoms: C_1  and  C_2
REMARK    2  A    between atoms: C_2  and  C_3
REMARK    3  A    between atoms: C_8  and  N_9
REMARK    4  A    between atoms: C_10  and  C_12
REMARK    5  A    between atoms: C_12  and  N_13
REMARK                            x       y       z     vdW  Elec       q    Type
REMARK                         _______ _______ _______ _____ _____    ______ ____
ROOT
ATOM      1  N   UNL     1       0.207   5.129   1.133  0.00  0.00    -0.215 N 
ATOM      2  C   UNL     1       1.168   4.201   1.337  0.00  0.00    +0.251 C 
ATOM      3  O   UNL     1       1.712   3.923   2.384  0.00  0.00    -0.272 OA
ATOM      4  C   UNL     1       1.420   3.587  -0.016  0.00  0.00    +0.138 C 
ATOM      5  C   UNL     1       2.879   3.776  -0.449  0.00  0.00    +0.045 C 
ATOM      6  C   UNL     1       3.520   2.435  -0.028  0.00  0.00    +0.038 C 
ATOM      7  C   UNL     1       2.383   1.434  -0.023  0.00  0.00    -0.042 A 
ATOM      8  C   UNL     1       1.171   2.103  -0.008  0.00  0.00    -0.012 A 
ATOM      9  C   UNL     1      -0.011   1.381   0.008  0.00  0.00    +0.006 A 
ATOM     10  C   UNL     1       0.016   0.000   0.003  0.00  0.00    +0.000 A 
ATOM     11  C   UNL     1       1.226  -0.666  -0.017  0.00  0.00    +0.000 A 
ATOM     12  C   UNL     1       2.407   0.051  -0.030  0.00  0.00    +0.004 A 
ATOM     13  N   UNL     1       0.501   4.287  -0.915  0.00  0.00    -0.281 N 
ATOM     14  C   UNL     1      -0.169   5.174  -0.152  0.00  0.00    +0.310 C 
ATOM     15  O   UNL     1      -1.020   5.928  -0.581  0.00  0.00    -0.252 OA
ATOM     16  H   UNL     1       0.396   4.142  -1.868  0.00  0.00    +0.152 HD
ENDROOT
BRANCH   1  17
ATOM     17  C   UNL     1      -0.353   5.979   2.186  0.00  0.00    +0.214 C 
BRANCH  17  19
ATOM     18  N   UNL     1      -2.223   5.891   3.803  0.00  0.00    -0.284 N 
ATOM     19  C   UNL     1      -1.543   5.292   2.806  0.00  0.00    +0.235 C 
ATOM     20  O   UNL     1      -1.889   4.200   2.407  0.00  0.00    -0.274 OA
ATOM     21  H   UNL     1      -1.901   6.726   4.176  0.00  0.00    +0.155 HD
BRANCH  18  27
ATOM     22  C   UNL     1      -3.811   5.580   5.596  0.00  0.00    -0.026 A 
ATOM     23  C   UNL     1      -4.971   5.008   6.082  0.00  0.00    +0.005 A 
ATOM     24  C   UNL     1      -5.711   4.157   5.282  0.00  0.00    +0.000 A 
ATOM     25  C   UNL     1      -5.296   3.880   3.992  0.00  0.00    +0.002 A 
ATOM     26  C   UNL     1      -4.140   4.453   3.499  0.00  0.00    +0.023 A 
ATOM     27  C   UNL     1      -3.395   5.309   4.300  0.00  0.00    +0.037 A 
BRANCH  22  29
ATOM     28  C   UNL     1      -3.405   7.952   6.195  0.00  0.00    +0.009 C 
ATOM     29  C   UNL     1      -3.002   6.502   6.471  0.00  0.00    +0.033 C 
ENDBRANCH  22  29
ENDBRANCH  18  27
ENDBRANCH  17  19
ENDBRANCH   1  17
TORSDOF 4
