REMARK  Name = ZINC39668883
REMARK  4 active torsions:
REMARK  status: ('A' for Active; 'I' for Inactive)
REMARK    1  A    between atoms: C_10  and  C_12
REMARK    2  A    between atoms: C_12  and  N_13
REMARK    3  A    between atoms: C_14  and  C_16
REMARK    4  A    between atoms: C_27  and  C_29
REMARK                            x       y       z     vdW  Elec       q    Type
REMARK                         _______ _______ _______ _____ _____    ______ ____
ROOT
ATOM      1  C   UNL     1       8.275  -0.944  -1.852  0.00  0.00    +0.100 C 
ATOM      2  C   UNL     1       8.095  -2.434  -2.218  0.00  0.00    +0.121 C 
ATOM      3  N   UNL     1       8.333  -2.493  -3.679  0.00  0.00    -0.296 N 
ATOM      4  C   UNL     1       9.458  -1.554  -3.907  0.00  0.00    +0.115 C 
ATOM      5  C   UNL     1       9.173  -0.371  -2.961  0.00  0.00    -0.004 C 
ATOM      6  C   UNL     1       8.443   0.739  -3.712  0.00  0.00    -0.010 C 
ATOM      7  C   UNL     1       9.376   1.331  -4.771  0.00  0.00    -0.082 C 
ATOM      8  N   UNL     1      10.581   1.863  -4.122  0.00  0.00    +0.379 N 
ATOM      9  C   UNL     1      11.326   0.773  -3.481  0.00  0.00    -0.082 C 
ATOM     10  C   UNL     1      10.476   0.156  -2.367  0.00  0.00    -0.010 C 
ATOM     11  C   UNL     1       7.676  -3.232  -4.595  0.00  0.00    +0.249 C 
ATOM     12  O   UNL     1       7.993  -3.170  -5.767  0.00  0.00    -0.270 OA
ATOM     13  H   UNL     1      11.166   2.306  -4.814  0.00  0.00    -0.086 HD
ATOM     14  H   UNL     1      10.315   2.542  -3.425  0.00  0.00    -0.086 HD
ENDROOT
BRANCH  11  15
ATOM     15  C   UNL     1       6.571  -4.117  -4.174  0.00  0.00    +0.073 A 
ATOM     16  C   UNL     1       5.259  -3.636  -4.145  0.00  0.00    +0.054 A 
ATOM     17  C   UNL     1       4.231  -4.470  -3.751  0.00  0.00    +0.021 A 
ATOM     18  C   UNL     1       4.498  -5.778  -3.386  0.00  0.00    +0.003 A 
ATOM     19  C   UNL     1       5.794  -6.260  -3.412  0.00  0.00    +0.021 A 
ATOM     20  C   UNL     1       6.832  -5.440  -3.810  0.00  0.00    +0.054 A 
ATOM     21 CL   UNL     1       8.456  -6.051  -3.849  0.00  0.00    -0.083 Cl
ATOM     22 CL   UNL     1       4.923  -1.996  -4.601  0.00  0.00    -0.083 Cl
ENDBRANCH  11  15
BRANCH   1  24
ATOM     23  N   UNL     1       6.770   0.868  -1.096  0.00  0.00    -0.312 N 
ATOM     24  C   UNL     1       6.941  -0.242  -1.841  0.00  0.00    +0.218 C 
ATOM     25  O   UNL     1       6.022  -0.675  -2.504  0.00  0.00    -0.275 OA
ATOM     26  H   UNL     1       7.505   1.214  -0.566  0.00  0.00    +0.149 HD
BRANCH  23  27
ATOM     27  C   UNL     1       5.474   1.551  -1.085  0.00  0.00    +0.140 C 
BRANCH  27  37
ATOM     28  C   UNL     1       1.764   4.760  -0.217  0.00  0.00    +0.000 A 
ATOM     29  C   UNL     1       2.328   4.295  -1.391  0.00  0.00    +0.000 A 
ATOM     30  C   UNL     1       3.550   3.654  -1.360  0.00  0.00    +0.006 A 
ATOM     31  C   UNL     1       4.214   3.471  -0.157  0.00  0.00    -0.014 A 
ATOM     32  C   UNL     1       3.649   3.931   1.014  0.00  0.00    -0.040 A 
ATOM     33  C   UNL     1       2.424   4.579   0.982  0.00  0.00    +0.004 A 
ATOM     34  C   UNL     1       4.335   3.741   2.343  0.00  0.00    +0.063 C 
ATOM     35  C   UNL     1       5.810   3.402   2.121  0.00  0.00    +0.165 C 
ATOM     36  O   UNL     1       5.894   2.350   1.153  0.00  0.00    -0.370 OA
ATOM     37  C   UNL     1       5.548   2.772  -0.166  0.00  0.00    +0.165 C 
ENDBRANCH  27  37
ENDBRANCH  23  27
ENDBRANCH   1  24
TORSDOF 4
