REMARK  Name = ZINC39679085
REMARK  13 active torsions:
REMARK  status: ('A' for Active; 'I' for Inactive)
REMARK    1  A    between atoms: C_1  and  C_2
REMARK    2  A    between atoms: C_2  and  C_3
REMARK    3  A    between atoms: C_3  and  C_5
REMARK    4  A    between atoms: C_3  and  C_6
REMARK    5  A    between atoms: C_6  and  C_7
REMARK    6  A    between atoms: C_11  and  C_20
REMARK    7  A    between atoms: N_22  and  C_23
REMARK    8  A    between atoms: C_23  and  C_24
REMARK    9  A    between atoms: C_24  and  C_25
REMARK   10  A    between atoms: C_25  and  C_26
REMARK   11  A    between atoms: C_26  and  N_27
REMARK   12  A    between atoms: N_27  and  C_28
REMARK   13  A    between atoms: N_27  and  C_29
REMARK                            x       y       z     vdW  Elec       q    Type
REMARK                         _______ _______ _______ _____ _____    ______ ____
ROOT
ATOM      1  C   UNL     1       1.041  -2.557   2.373  0.00  0.00    +0.216 C 
ATOM      2  O   UNL     1       1.449  -1.690   3.116  0.00  0.00    -0.276 OA
ATOM      3  N   UNL     1       1.164  -3.854   2.717  0.00  0.00    -0.300 N 
ATOM      4  C   UNL     1       0.736  -5.044   1.945  0.00  0.00    +0.121 C 
ATOM      5  C   UNL     1       1.865  -6.077   2.162  0.00  0.00    +0.100 C 
ATOM      6  C   UNL     1       2.531  -5.658   3.483  0.00  0.00    -0.004 C 
ATOM      7  C   UNL     1       1.765  -4.412   3.953  0.00  0.00    +0.115 C 
ATOM      8  C   UNL     1       2.407  -6.776   4.515  0.00  0.00    -0.010 C 
ATOM      9  C   UNL     1       3.127  -6.359   5.801  0.00  0.00    -0.082 C 
ATOM     10  N   UNL     1       4.540  -6.092   5.507  0.00  0.00    +0.379 N 
ATOM     11  C   UNL     1       4.654  -4.955   4.586  0.00  0.00    -0.082 C 
ATOM     12  C   UNL     1       3.998  -5.312   3.249  0.00  0.00    -0.010 C 
ATOM     13  H   UNL     1       5.025  -5.877   6.366  0.00  0.00    -0.086 HD
ATOM     14  H   UNL     1       4.955  -6.908   5.085  0.00  0.00    -0.086 HD
ENDROOT
BRANCH   5  15
ATOM     15  C   UNL     1       2.857  -6.016   1.029  0.00  0.00    +0.218 C 
ATOM     16  O   UNL     1       3.049  -4.970   0.447  0.00  0.00    -0.275 OA
ATOM     17  N   UNL     1       3.530  -7.125   0.663  0.00  0.00    -0.315 N 
ATOM     18  H   UNL     1       3.376  -7.962   1.129  0.00  0.00    +0.149 HD
BRANCH  17  19
ATOM     19  C   UNL     1       4.494  -7.066  -0.438  0.00  0.00    +0.104 C 
BRANCH  19  20
ATOM     20  C   UNL     1       5.114  -8.449  -0.648  0.00  0.00    +0.017 C 
BRANCH  20  21
ATOM     21  C   UNL     1       6.122  -8.387  -1.798  0.00  0.00    -0.017 C 
BRANCH  21  22
ATOM     22  C   UNL     1       6.741  -9.770  -2.008  0.00  0.00    -0.080 C 
BRANCH  22  23
ATOM     23  N   UNL     1       7.708  -9.711  -3.112  0.00  0.00    +0.376 N 
ATOM     24  C   UNL     1       8.827  -8.836  -2.736  0.00  0.00    -0.097 C 
ATOM     25  C   UNL     1       8.215 -11.061  -3.392  0.00  0.00    -0.097 C 
ATOM     26  H   UNL     1       7.256  -9.344  -3.936  0.00  0.00    -0.083 HD
ENDBRANCH  22  23
ENDBRANCH  21  22
ENDBRANCH  20  21
ENDBRANCH  19  20
ENDBRANCH  17  19
ENDBRANCH   5  15
BRANCH   1  27
ATOM     27  C   UNL     1       0.395  -2.183   1.063  0.00  0.00    +0.099 C 
BRANCH  27  28
ATOM     28  C   UNL     1       0.381  -0.660   0.917  0.00  0.00    -0.006 C 
ATOM     29  C   UNL     1       1.818  -0.144   0.822  0.00  0.00    +0.008 C 
BRANCH  28  31
ATOM     30  C   UNL     1      -0.506   1.246  -0.431  0.00  0.00    +0.004 C 
ATOM     31  C   UNL     1      -0.384  -0.277  -0.351  0.00  0.00    +0.000 C 
ENDBRANCH  28  31
ENDBRANCH  27  28
ENDBRANCH   1  27
TORSDOF 9
