REMARK  Name = ZINC22455500
REMARK  3 active torsions:
REMARK  status: ('A' for Active; 'I' for Inactive)
REMARK    1  A    between atoms: C_1  and  C_2
REMARK    2  A    between atoms: C_7  and  N_8
REMARK    3  A    between atoms: N_12  and  C_14
REMARK                            x       y       z     vdW  Elec       q    Type
REMARK                         _______ _______ _______ _____ _____    ______ ____
ROOT
ATOM      1  N   UNL     1       4.951   1.817   0.382  0.00  0.00    -0.297 N 
ATOM      2  C   UNL     1       3.604   2.077   0.134  0.00  0.00    +0.156 A 
ATOM      3  C   UNL     1       2.488   1.191   0.399  0.00  0.00    +0.080 A 
ATOM      4  C   UNL     1       1.332   1.858  -0.005  0.00  0.00    +0.057 A 
ATOM      5  N   UNL     1       1.704   3.049  -0.473  0.00  0.00    -0.234 N 
ATOM      6  N   UNL     1       3.098   3.175  -0.385  0.00  0.00    -0.150 NA
ATOM      7  C   UNL     1      -0.043   1.253   0.108  0.00  0.00    +0.057 C 
ATOM      8  C   UNL     1       0.084  -0.270   0.217  0.00  0.00    +0.014 C 
ATOM      9  C   UNL     1       1.050  -0.654   1.342  0.00  0.00    +0.080 C 
ATOM     10  C   UNL     1       2.441  -0.158   0.973  0.00  0.00    +0.168 C 
ATOM     11  O   UNL     1       3.438  -0.830   1.140  0.00  0.00    -0.292 OA
ATOM     12  H   UNL     1       5.247   0.891   0.896  0.00  0.00    +0.154 HD
ENDROOT
BRANCH   1  19
ATOM     13  C   UNL     1       7.685   1.078   0.653  0.00  0.00    +0.045 C 
ATOM     14  C   UNL     1       7.272   2.414   0.092  0.00  0.00    -0.029 A 
ATOM     15  C   UNL     1       8.232   3.320  -0.314  0.00  0.00    +0.005 A 
ATOM     16  C   UNL     1       7.854   4.549  -0.823  0.00  0.00    +0.000 A 
ATOM     17  C   UNL     1       6.514   4.873  -0.933  0.00  0.00    +0.002 A 
ATOM     18  C   UNL     1       5.549   3.969  -0.535  0.00  0.00    +0.023 A 
ATOM     19  C   UNL     1       5.925   2.734  -0.022  0.00  0.00    +0.035 A 
ENDBRANCH   1  19
BRANCH   5  20
ATOM     20  C   UNL     1       0.835   4.026  -0.976  0.00  0.00    +0.066 A 
ATOM     21  C   UNL     1       1.180   4.744  -2.113  0.00  0.00    +0.029 A 
ATOM     22  C   UNL     1       0.319   5.703  -2.610  0.00  0.00    +0.022 A 
ATOM     23  C   UNL     1      -0.881   5.956  -1.969  0.00  0.00    +0.041 A 
ATOM     24  C   UNL     1      -1.225   5.244  -0.832  0.00  0.00    +0.022 A 
ATOM     25  C   UNL     1      -0.370   4.281  -0.335  0.00  0.00    +0.029 A 
ATOM     26 CL   UNL     1      -1.958   7.167  -2.592  0.00  0.00    -0.084 Cl
ENDBRANCH   5  20
TORSDOF 2
