REMARK  Name = ZINC01313165
REMARK  6 active torsions:
REMARK  status: ('A' for Active; 'I' for Inactive)
REMARK    1  A    between atoms: C_1  and  C_2
REMARK    2  A    between atoms: C_5  and  C_12
REMARK    3  A    between atoms: C_6  and  C_7
REMARK    4  A    between atoms: C_6  and  C_8
REMARK    5  A    between atoms: N_14  and  C_15
REMARK    6  A    between atoms: C_17  and  N_22
REMARK                            x       y       z     vdW  Elec       q    Type
REMARK                         _______ _______ _______ _____ _____    ______ ____
ROOT
ATOM      1  C   UNL     1       1.002  -3.262   1.619  0.00  0.00    +0.224 C 
ATOM      2  O   UNL     1       1.580  -2.983   2.648  0.00  0.00    -0.275 OA
ATOM      3  N   UNL     1       0.845  -4.552   1.262  0.00  0.00    -0.284 N 
ATOM      4  H   UNL     1       0.326  -4.777   0.474  0.00  0.00    +0.155 HD
ENDROOT
BRANCH   1   9
ATOM      5  C   UNL     1      -0.056   1.525   0.034  0.00  0.00    +0.019 C 
ATOM      6  C   UNL     1      -0.027  -0.004   0.021  0.00  0.00    +0.032 C 
ATOM      7  C   UNL     1       0.714  -0.660  -1.184  0.00  0.00    +0.016 C 
ATOM      8  C   UNL     1       1.043  -2.093  -0.706  0.00  0.00    +0.018 C 
ATOM      9  C   UNL     1       0.459  -2.165   0.739  0.00  0.00    +0.060 C 
ATOM     10  C   UNL     1       0.707  -0.693   1.224  0.00  0.00    -0.009 C 
ATOM     11  C   UNL     1       0.019  -0.404   2.560  0.00  0.00    +0.013 C 
ATOM     12  C   UNL     1       2.196  -0.344   1.265  0.00  0.00    +0.013 C 
ATOM     13  C   UNL     1      -1.086  -2.132   0.532  0.00  0.00    +0.091 C 
ATOM     14  C   UNL     1      -1.395  -0.700   0.081  0.00  0.00    +0.141 C 
ATOM     15  O   UNL     1      -2.471  -0.223  -0.187  0.00  0.00    -0.297 OA
ENDBRANCH   1   9
BRANCH   3  16
ATOM     16  C   UNL     1       1.429  -5.566   2.029  0.00  0.00    +0.050 A 
ATOM     17  C   UNL     1       1.525  -5.429   3.407  0.00  0.00    +0.057 A 
ATOM     18  C   UNL     1       2.103  -6.431   4.162  0.00  0.00    +0.128 A 
ATOM     19  C   UNL     1       2.586  -7.572   3.546  0.00  0.00    +0.034 A 
ATOM     20  C   UNL     1       2.492  -7.712   2.173  0.00  0.00    +0.019 A 
ATOM     21  C   UNL     1       1.909  -6.715   1.413  0.00  0.00    +0.039 A 
ATOM     22 BR   UNL     1       1.774  -6.912  -0.462  0.00  0.00    -0.048 Br
BRANCH  18  23
ATOM     23  N   UNL     1       2.206  -6.285   5.631  0.00  0.00    +0.056 N 
ATOM     24  O   UNL     1       1.784  -5.288   6.170  0.00  0.00    -0.126 OA
ATOM     25  O   UNL     1       2.711  -7.162   6.292  0.00  0.00    -0.126 OA
ENDBRANCH  18  23
ENDBRANCH   3  16
TORSDOF 3
