REMARK  Name = ZINC35661813
REMARK  4 active torsions:
REMARK  status: ('A' for Active; 'I' for Inactive)
REMARK    1  A    between atoms: C_5  and  O_9
REMARK    2  A    between atoms: C_6  and  C_7
REMARK    3  A    between atoms: C_7  and  N_8
REMARK    4  A    between atoms: O_9  and  C_10
REMARK                            x       y       z     vdW  Elec       q    Type
REMARK                         _______ _______ _______ _____ _____    ______ ____
ROOT
ATOM      1  C   UNL     1       3.342   1.092  -0.062  0.00  0.00    +0.025 A 
ATOM      2  C   UNL     1       2.445   2.139   0.057  0.00  0.00    +0.043 A 
ATOM      3  C   UNL     1       1.084   1.892   0.021  0.00  0.00    +0.043 A 
ATOM      4  C   UNL     1       0.618   0.600  -0.135  0.00  0.00    +0.084 A 
ATOM      5  C   UNL     1       1.518  -0.451  -0.256  0.00  0.00    +0.141 A 
ATOM      6  C   UNL     1       2.882  -0.201  -0.219  0.00  0.00    -0.020 A 
ATOM      7 CL   UNL     1      -1.089   0.291  -0.181  0.00  0.00    -0.080 Cl
ATOM      8 CL   UNL     1       3.027   3.762   0.254  0.00  0.00    -0.083 Cl
ENDROOT
BRANCH   6   9
ATOM      9  C   UNL     1       3.861  -1.339  -0.349  0.00  0.00    -0.047 C 
BRANCH   9  10
ATOM     10  N   UNL     1       3.958  -1.742  -1.759  0.00  0.00    +0.381 N 
ATOM     11  H   UNL     1       4.626  -2.493  -1.849  0.00  0.00    -0.090 HD
ATOM     12  H   UNL     1       3.055  -2.054  -2.082  0.00  0.00    -0.090 HD
ATOM     13  H   UNL     1       4.260  -0.955  -2.313  0.00  0.00    -0.090 HD
ENDBRANCH   9  10
ENDBRANCH   6   9
BRANCH   5  14
ATOM     14  O   UNL     1       1.063  -1.722  -0.409  0.00  0.00    -0.478 OA
BRANCH  14  15
ATOM     15  C   UNL     1       0.951  -2.518   0.773  0.00  0.00    +0.259 C 
ATOM     16  C   UNL     1       1.380  -3.955   0.468  0.00  0.00    +0.054 C 
ATOM     17  C   UNL     1       0.981  -4.347  -0.943  0.00  0.00    +0.006 C 
ATOM     18  C   UNL     1      -0.519  -4.437  -1.153  0.00  0.00    +0.019 C 
ATOM     19  C   UNL     1      -1.169  -3.057  -1.040  0.00  0.00    +0.104 C 
ATOM     20  N   UNL     1      -1.472  -2.793   0.376  0.00  0.00    -0.312 N 
ATOM     21  C   UNL     1      -0.489  -2.531   1.243  0.00  0.00    +0.254 C 
ATOM     22  O   UNL     1      -0.747  -2.310   2.407  0.00  0.00    -0.272 OA
ATOM     23  H   UNL     1      -2.393  -2.807   0.682  0.00  0.00    +0.149 HD
ENDBRANCH  14  15
ENDBRANCH   5  14
TORSDOF 4
