REMARK  Name = ZINC39840667
REMARK  8 active torsions:
REMARK  status: ('A' for Active; 'I' for Inactive)
REMARK    1  A    between atoms: C_1  and  C_2
REMARK    2  A    between atoms: C_2  and  C_3
REMARK    3  A    between atoms: C_2  and  C_4
REMARK    4  A    between atoms: C_4  and  C_5
REMARK    5  A    between atoms: C_11  and  C_27
REMARK    6  A    between atoms: C_30  and  O_33
REMARK    7  A    between atoms: O_33  and  C_34
REMARK    8  A    between atoms: C_34  and  C_35
REMARK                            x       y       z     vdW  Elec       q    Type
REMARK                         _______ _______ _______ _____ _____    ______ ____
ROOT
ATOM      1  C   UNL     1      -1.416  -2.035  -0.119  0.00  0.00    +0.104 A 
ATOM      2  N   UNL     1      -1.372  -2.967   0.812  0.00  0.00    -0.145 NA
ATOM      3  N   UNL     1      -1.364  -4.197   0.532  0.00  0.00    -0.125 NA
ATOM      4  C   UNL     1      -1.399  -4.628  -0.721  0.00  0.00    +0.191 A 
ATOM      5  S   UNL     1      -1.457  -3.061  -1.586  0.00  0.00    -0.035 S 
ATOM      6  N   UNL     1      -1.398  -5.925  -1.220  0.00  0.00    -0.230 N 
ATOM      7  C   UNL     1      -1.360  -7.159  -0.419  0.00  0.00    +0.151 C 
ATOM      8  C   UNL     1      -1.371  -8.283  -1.404  0.00  0.00    +0.072 A 
ATOM      9  C   UNL     1      -1.337  -9.736  -1.212  0.00  0.00    +0.199 A 
ATOM     10  O   UNL     1      -1.467 -10.268  -0.123  0.00  0.00    -0.287 OA
ATOM     11  C   UNL     1      -1.128 -10.497  -2.469  0.00  0.00    +0.067 A 
ATOM     12  C   UNL     1      -0.874 -11.868  -2.430  0.00  0.00    +0.053 A 
ATOM     13  C   UNL     1      -0.677 -12.558  -3.608  0.00  0.00    +0.124 A 
ATOM     14  C   UNL     1      -0.732 -11.888  -4.824  0.00  0.00    +0.042 A 
ATOM     15  C   UNL     1      -0.984 -10.536  -4.873  0.00  0.00    +0.050 A 
ATOM     16  C   UNL     1      -1.189  -9.816  -3.696  0.00  0.00    +0.140 A 
ATOM     17  O   UNL     1      -1.444  -8.490  -3.775  0.00  0.00    -0.450 OA
ATOM     18  C   UNL     1      -1.417  -7.738  -2.656  0.00  0.00    +0.199 A 
ATOM     19  C   UNL     1      -1.436  -6.272  -2.523  0.00  0.00    +0.289 C 
ATOM     20  O   UNL     1      -1.477  -5.489  -3.451  0.00  0.00    -0.266 OA
ATOM     21  F   UNL     1      -0.431 -13.886  -3.579  0.00  0.00    -0.205 F 
ENDROOT
BRANCH   7  22
ATOM     22  C   UNL     1      -0.101  -7.204   0.408  0.00  0.00    -0.022 A 
ATOM     23  C   UNL     1       1.090  -6.741  -0.121  0.00  0.00    +0.009 A 
ATOM     24  C   UNL     1       2.245  -6.781   0.636  0.00  0.00    +0.046 A 
ATOM     25  C   UNL     1       2.209  -7.285   1.928  0.00  0.00    +0.121 A 
ATOM     26  C   UNL     1       1.013  -7.748   2.457  0.00  0.00    +0.046 A 
ATOM     27  C   UNL     1      -0.141  -7.701   1.698  0.00  0.00    +0.009 A 
BRANCH  25  28
ATOM     28  O   UNL     1       3.344  -7.326   2.674  0.00  0.00    -0.483 OA
BRANCH  28  29
ATOM     29  C   UNL     1       3.233  -7.858   3.996  0.00  0.00    +0.324 C 
BRANCH  29  30
ATOM     30  C   UNL     1       4.582  -7.824   4.667  0.00  0.00    +0.248 C 
ATOM     31  O   UNL     1       5.544  -7.386   4.072  0.00  0.00    -0.272 OA
ATOM     32  N   UNL     1       4.719  -8.278   5.928  0.00  0.00    -0.327 N 
ATOM     33  H   UNL     1       3.950  -8.628   6.404  0.00  0.00    +0.145 HD
ATOM     34  H   UNL     1       5.587  -8.256   6.360  0.00  0.00    +0.145 HD
ENDBRANCH  29  30
ENDBRANCH  28  29
ENDBRANCH  25  28
ENDBRANCH   7  22
BRANCH   1  35
ATOM     35  C   UNL     1      -1.433  -0.534   0.013  0.00  0.00    +0.068 C 
BRANCH  35  37
ATOM     36  C   UNL     1      -0.019   1.526   0.010  0.00  0.00    +0.007 C 
ATOM     37  C   UNL     1       0.002  -0.004   0.002  0.00  0.00    -0.011 C 
ATOM     38  C   UNL     1       0.742  -0.511   1.242  0.00  0.00    +0.007 C 
ENDBRANCH  35  37
ENDBRANCH   1  35
TORSDOF 6
