REMARK  Name = ZINC15080112
REMARK  6 active torsions:
REMARK  status: ('A' for Active; 'I' for Inactive)
REMARK    1  A    between atoms: C_1  and  C_2
REMARK    2  A    between atoms: C_6  and  C_27
REMARK    3  A    between atoms: C_8  and  C_21
REMARK    4  A    between atoms: C_10  and  C_12
REMARK    5  A    between atoms: N_14  and  C_15
REMARK    6  A    between atoms: N_29  and  C_30
REMARK                            x       y       z     vdW  Elec       q    Type
REMARK                         _______ _______ _______ _____ _____    ______ ____
ROOT
ATOM      1  C   UNL     1       1.145   4.789  -1.810  0.00  0.00    +0.040 C 
ATOM      2  C   UNL     1       0.735   3.478  -1.189  0.00  0.00    -0.057 C 
ATOM      3  C   UNL     1       1.624   2.823  -0.454  0.00  0.00    +0.047 C 
ATOM      4  C   UNL     1       1.280   1.538   0.166  0.00  0.00    +0.168 C 
ATOM      5  O   UNL     1       2.132   0.833   0.664  0.00  0.00    -0.292 OA
ATOM      6  C   UNL     1      -0.177   1.122   0.162  0.00  0.00    +0.154 C 
ATOM      7  C   UNL     1      -0.747   1.468  -1.222  0.00  0.00    +0.054 C 
ATOM      8  C   UNL     1      -0.658   2.978  -1.433  0.00  0.00    +0.109 C 
ENDROOT
BRANCH   7   9
ATOM      9  C   UNL     1       0.051   0.762  -2.287  0.00  0.00    -0.042 A 
ATOM     10  C   UNL     1       1.206   1.338  -2.781  0.00  0.00    +0.004 A 
ATOM     11  C   UNL     1       1.941   0.688  -3.755  0.00  0.00    +0.000 A 
ATOM     12  C   UNL     1       1.516  -0.534  -4.242  0.00  0.00    +0.000 A 
ATOM     13  C   UNL     1       0.358  -1.108  -3.751  0.00  0.00    +0.000 A 
ATOM     14  C   UNL     1      -0.374  -0.460  -2.773  0.00  0.00    +0.004 A 
ENDBRANCH   7   9
BRANCH   8  15
ATOM     15  C   UNL     1      -1.058   3.303  -2.849  0.00  0.00    +0.225 C 
ATOM     16  O   UNL     1      -1.352   2.411  -3.617  0.00  0.00    -0.275 OA
ATOM     17  N   UNL     1      -1.090   4.585  -3.263  0.00  0.00    -0.285 N 
ATOM     18  H   UNL     1      -0.939   5.304  -2.629  0.00  0.00    +0.155 HD
BRANCH  17  19
ATOM     19  C   UNL     1      -1.341   4.881  -4.608  0.00  0.00    +0.033 A 
ATOM     20  C   UNL     1      -1.903   6.101  -4.959  0.00  0.00    +0.023 A 
ATOM     21  C   UNL     1      -2.144   6.392  -6.288  0.00  0.00    +0.002 A 
ATOM     22  C   UNL     1      -1.838   5.464  -7.267  0.00  0.00    +0.000 A 
ATOM     23  C   UNL     1      -1.284   4.245  -6.920  0.00  0.00    +0.002 A 
ATOM     24  C   UNL     1      -1.035   3.951  -5.593  0.00  0.00    +0.023 A 
ENDBRANCH  17  19
ENDBRANCH   8  15
BRANCH   6  25
ATOM     25  C   UNL     1      -0.928   1.874   1.230  0.00  0.00    +0.228 C 
ATOM     26  O   UNL     1      -1.848   2.603   0.926  0.00  0.00    -0.275 OA
ATOM     27  N   UNL     1      -0.578   1.735   2.524  0.00  0.00    -0.285 N 
ATOM     28  H   UNL     1       0.112   1.101   2.775  0.00  0.00    +0.155 HD
BRANCH  27  29
ATOM     29  C   UNL     1      -1.209   2.507   3.506  0.00  0.00    +0.033 A 
ATOM     30  C   UNL     1      -0.493   2.947   4.612  0.00  0.00    +0.023 A 
ATOM     31  C   UNL     1      -1.118   3.712   5.577  0.00  0.00    +0.002 A 
ATOM     32  C   UNL     1      -2.457   4.031   5.449  0.00  0.00    +0.000 A 
ATOM     33  C   UNL     1      -3.174   3.591   4.351  0.00  0.00    +0.002 A 
ATOM     34  C   UNL     1      -2.554   2.829   3.380  0.00  0.00    +0.023 A 
ENDBRANCH  27  29
ENDBRANCH   6  25
TORSDOF 5
