REMARK  Name = ZINC07379602
REMARK  4 active torsions:
REMARK  status: ('A' for Active; 'I' for Inactive)
REMARK    1  A    between atoms: C_6  and  S_7
REMARK    2  A    between atoms: S_7  and  N_10
REMARK    3  A    between atoms: N_10  and  N_11
REMARK    4  A    between atoms: C_12  and  C_14
REMARK                            x       y       z     vdW  Elec       q    Type
REMARK                         _______ _______ _______ _____ _____    ______ ____
ROOT
ATOM      1  N   UNL     1       1.193   1.683  -0.000  0.00  0.00    -0.108 NA
ATOM      2  H   UNL     1       1.356   2.349  -0.686  0.00  0.00    +0.172 HD
ENDROOT
BRANCH   1   3
ATOM      3  N   UNL     1      -0.011   0.966   0.007  0.00  0.00    -0.227 N 
ATOM      4  C   UNL     1      -1.187   1.624   0.017  0.00  0.00    +0.265 C 
ATOM      5  O   UNL     1      -1.204   2.841   0.023  0.00  0.00    -0.268 OA
ATOM      6  H   UNL     1       0.002  -0.004   0.002  0.00  0.00    +0.171 HD
BRANCH   4   7
ATOM      7  C   UNL     1      -2.447   0.874   0.018  0.00  0.00    +0.076 A 
ATOM      8  C   UNL     1      -3.742   1.348   0.027  0.00  0.00    +0.024 A 
ATOM      9  C   UNL     1      -4.784   0.420   0.026  0.00  0.00    -0.036 A 
ATOM     10  C   UNL     1      -4.433  -0.893   0.019  0.00  0.00    -0.006 A 
ATOM     11  S   UNL     1      -2.705  -0.891   0.002  0.00  0.00    -0.088 S 
ATOM     12  C   UNL     1      -5.636  -1.796   0.024  0.00  0.00    +0.043 C 
ATOM     13  C   UNL     1      -6.803  -0.889   0.473  0.00  0.00    +0.010 C 
ATOM     14  C   UNL     1      -6.313   0.503   0.029  0.00  0.00    +0.036 C 
ENDBRANCH   4   7
ENDBRANCH   1   3
BRANCH   1  15
ATOM     15  S   UNL     1       2.336   1.393   1.162  0.00  0.00    +0.074 S 
ATOM     16  O   UNL     1       3.480   2.157   0.805  0.00  0.00    -0.152 OA
ATOM     17  O   UNL     1       1.685   1.538   2.417  0.00  0.00    -0.152 OA
BRANCH  15  23
ATOM     18  C   UNL     1       2.122  -1.262   1.753  0.00  0.00    +0.030 A 
ATOM     19  C   UNL     1       2.481  -2.593   1.644  0.00  0.00    +0.023 A 
ATOM     20  C   UNL     1       3.526  -2.962   0.816  0.00  0.00    +0.059 A 
ATOM     21  C   UNL     1       4.208  -1.998   0.093  0.00  0.00    +0.061 A 
ATOM     22  C   UNL     1       3.844  -0.668   0.199  0.00  0.00    +0.050 A 
ATOM     23  C   UNL     1       2.799  -0.301   1.027  0.00  0.00    +0.108 A 
ATOM     24 CL   UNL     1       5.520  -2.458  -0.947  0.00  0.00    -0.082 Cl
ATOM     25 CL   UNL     1       3.982  -4.631   0.683  0.00  0.00    -0.082 Cl
ENDBRANCH  15  23
ENDBRANCH   1  15
TORSDOF 4
