REMARK  Name = ZINC63803215
REMARK  9 active torsions:
REMARK  status: ('A' for Active; 'I' for Inactive)
REMARK    1  A    between atoms: C_1  and  C_2
REMARK    2  A    between atoms: C_2  and  C_3
REMARK    3  A    between atoms: C_3  and  C_4
REMARK    4  A    between atoms: C_5  and  C_22
REMARK    5  A    between atoms: C_6  and  C_21
REMARK    6  A    between atoms: C_9  and  C_10
REMARK    7  A    between atoms: N_12  and  C_13
REMARK    8  A    between atoms: C_18  and  O_19
REMARK    9  A    between atoms: C_22  and  C_24
REMARK                            x       y       z     vdW  Elec       q    Type
REMARK                         _______ _______ _______ _____ _____    ______ ____
ROOT
ATOM      1  C   UNL     1      -1.433  -2.050  -0.005  0.00  0.00    -0.007 A 
ATOM      2  C   UNL     1      -1.437  -2.888  -1.146  0.00  0.00    +0.041 A 
ATOM      3  C   UNL     1      -1.419  -4.196  -0.688  0.00  0.00    +0.024 A 
ATOM      4  N   UNL     1      -1.404  -4.173   0.653  0.00  0.00    -0.354 N 
ATOM      5  H   UNL     1      -1.389  -4.955   1.227  0.00  0.00    +0.166 HD
ATOM      6  C   UNL     1      -1.406  -2.865   1.087  0.00  0.00    +0.106 A 
ATOM      7  C   UNL     1      -1.417  -5.432  -1.549  0.00  0.00    +0.064 C 
ENDROOT
BRANCH   6   8
ATOM      8  C   UNL     1      -1.387  -2.424   2.487  0.00  0.00    +0.265 C 
ATOM      9  O   UNL     1      -1.395  -1.236   2.752  0.00  0.00    -0.268 OA
ATOM     10  N   UNL     1      -1.362  -3.335   3.480  0.00  0.00    -0.277 N 
ATOM     11  H   UNL     1      -1.275  -4.279   3.271  0.00  0.00    +0.155 HD
BRANCH  10  12
ATOM     12  C   UNL     1      -1.461  -2.921   4.814  0.00  0.00    +0.077 A 
ATOM     13  C   UNL     1      -2.080  -1.718   5.124  0.00  0.00    +0.047 A 
ATOM     14  C   UNL     1      -2.177  -1.311   6.442  0.00  0.00    +0.043 A 
ATOM     15  C   UNL     1      -1.657  -2.100   7.453  0.00  0.00    +0.023 A 
ATOM     16  C   UNL     1      -1.039  -3.299   7.151  0.00  0.00    +0.049 A 
ATOM     17  C   UNL     1      -0.943  -3.716   5.833  0.00  0.00    +0.138 A 
ATOM     18 CL   UNL     1      -2.951   0.193   6.829  0.00  0.00    -0.083 Cl
BRANCH  17  19
ATOM     19  O   UNL     1      -0.340  -4.898   5.535  0.00  0.00    -0.505 OA
ATOM     20  H   UNL     1       0.612  -4.826   5.378  0.00  0.00    +0.292 HD
ENDBRANCH  17  19
ENDBRANCH  10  12
ENDBRANCH   6   8
BRANCH   2  21
ATOM     21  C   UNL     1      -1.459  -2.454  -2.546  0.00  0.00    +0.162 C 
ATOM     22  O   UNL     1      -0.422  -2.176  -3.111  0.00  0.00    -0.292 OA
ATOM     23  C   UNL     1      -2.769  -2.353  -3.284  0.00  0.00    +0.091 C 
ENDBRANCH   2  21
BRANCH   1  24
ATOM     24  C   UNL     1      -1.447  -0.543   0.001  0.00  0.00    +0.038 C 
BRANCH  24  26
ATOM     25  C   UNL     1      -0.025   1.511  -0.014  0.00  0.00    +0.004 C 
ATOM     26  C   UNL     1      -0.010  -0.019  -0.020  0.00  0.00    +0.001 C 
ENDBRANCH  24  26
ENDBRANCH   1  24
TORSDOF 6
