REMARK  Name = ZINC64921172
REMARK  6 active torsions:
REMARK  status: ('A' for Active; 'I' for Inactive)
REMARK    1  A    between atoms: C_1  and  C_2
REMARK    2  A    between atoms: C_5  and  C_8
REMARK    3  A    between atoms: C_8  and  N_9
REMARK    4  A    between atoms: C_10  and  C_12
REMARK    5  A    between atoms: N_17  and  S_18
REMARK    6  A    between atoms: S_18  and  C_21
REMARK                            x       y       z     vdW  Elec       q    Type
REMARK                         _______ _______ _______ _____ _____    ______ ____
ROOT
ATOM      1  C   UNL     1       3.131  -6.765   0.324  0.00  0.00    +0.165 C 
ATOM      2  C   UNL     1       3.972  -6.479   1.586  0.00  0.00    +0.031 C 
ATOM      3  C   UNL     1       4.051  -7.868   2.273  0.00  0.00    +0.019 C 
ATOM      4  C   UNL     1       4.128  -8.815   1.050  0.00  0.00    +0.110 C 
ATOM      5  N   UNL     1       3.241  -8.203   0.039  0.00  0.00    -0.165 NA
ENDROOT
BRANCH   1   7
ATOM      6  N   UNL     1       1.358  -5.127   0.864  0.00  0.00    -0.310 N 
ATOM      7  C   UNL     1       1.690  -6.401   0.575  0.00  0.00    +0.232 C 
ATOM      8  O   UNL     1       0.831  -7.254   0.516  0.00  0.00    -0.274 OA
ATOM      9  H   UNL     1       2.045  -4.445   0.910  0.00  0.00    +0.149 HD
BRANCH   6  10
ATOM     10  C   UNL     1      -0.043  -4.773   1.107  0.00  0.00    +0.139 C 
BRANCH  10  15
ATOM     11  C   UNL     1      -0.434   0.877   2.253  0.00  0.00    +0.044 C 
ATOM     12  C   UNL     1      -0.332  -0.597   1.954  0.00  0.00    -0.050 A 
ATOM     13  C   UNL     1      -0.430  -1.046   0.651  0.00  0.00    +0.003 A 
ATOM     14  C   UNL     1      -0.337  -2.397   0.377  0.00  0.00    +0.005 A 
ATOM     15  C   UNL     1      -0.144  -3.300   1.406  0.00  0.00    -0.030 A 
ATOM     16  C   UNL     1      -0.045  -2.850   2.709  0.00  0.00    +0.005 A 
ATOM     17  C   UNL     1      -0.135  -1.498   2.983  0.00  0.00    +0.003 A 
ENDBRANCH  10  15
ENDBRANCH   6  10
ENDBRANCH   1   7
BRANCH   5  18
ATOM     18  S   UNL     1       2.495  -9.000  -1.206  0.00  0.00    +0.063 S 
ATOM     19  O   UNL     1       2.222 -10.314  -0.741  0.00  0.00    -0.153 OA
ATOM     20  O   UNL     1       1.475  -8.135  -1.688  0.00  0.00    -0.153 OA
BRANCH  18  21
ATOM     21  C   UNL     1       3.675  -9.160  -2.505  0.00  0.00    +0.127 A 
ATOM     22  C   UNL     1       4.158 -10.411  -2.847  0.00  0.00    +0.077 A 
ATOM     23  C   UNL     1       5.084 -10.537  -3.866  0.00  0.00    +0.144 A 
ATOM     24  C   UNL     1       5.529  -9.403  -4.545  0.00  0.00    +0.077 A 
ATOM     25  C   UNL     1       5.043  -8.154  -4.199  0.00  0.00    +0.049 A 
ATOM     26  C   UNL     1       4.111  -8.036  -3.182  0.00  0.00    +0.069 A 
ATOM     27 CL   UNL     1       3.494  -6.471  -2.751  0.00  0.00    -0.081 Cl
ATOM     28  N   UNL     1       6.469  -9.546  -5.575  0.00  0.00    -0.280 N 
ATOM     29  C   UNL     1       6.686 -10.772  -6.099  0.00  0.00    +0.255 C 
ATOM     30  O   UNL     1       7.516 -10.925  -6.969  0.00  0.00    -0.272 OA
ATOM     31  C   UNL     1       5.892 -11.951  -5.596  0.00  0.00    +0.325 C 
ATOM     32  O   UNL     1       5.568 -11.759  -4.216  0.00  0.00    -0.481 OA
ATOM     33  H   UNL     1       6.956  -8.776  -5.908  0.00  0.00    +0.155 HD
ENDBRANCH  18  21
ENDBRANCH   5  18
TORSDOF 5
