REMARK  Name = ZINC06760409
REMARK  8 active torsions:
REMARK  status: ('A' for Active; 'I' for Inactive)
REMARK    1  A    between atoms: C_1  and  C_2
REMARK    2  A    between atoms: C_2  and  C_32
REMARK    3  A    between atoms: C_4  and  N_9
REMARK    4  A    between atoms: C_6  and  C_7
REMARK    5  A    between atoms: C_6  and  C_8
REMARK    6  A    between atoms: C_10  and  C_12
REMARK    7  A    between atoms: N_23  and  C_25
REMARK    8  A    between atoms: C_25  and  C_26
REMARK                            x       y       z     vdW  Elec       q    Type
REMARK                         _______ _______ _______ _____ _____    ______ ____
ROOT
ATOM      1  C   UNL     1       0.894  -0.330   1.262  0.00  0.00    +0.122 C 
ATOM      2  C   UNL     1       0.664   0.496  -0.063  0.00  0.00    +0.155 C 
ATOM      3  C   UNL     1       2.039   0.414  -0.737  0.00  0.00    +0.004 C 
ATOM      4  C   UNL     1       2.824   1.197  -0.012  0.00  0.00    +0.008 C 
ATOM      5  C   UNL     1       1.930   1.801   1.056  0.00  0.00    +0.116 C 
ATOM      6  C   UNL     1       1.598   0.686   2.127  0.00  0.00    +0.127 C 
ATOM      7  C   UNL     1       2.915   0.541   2.773  0.00  0.00    +0.223 C 
ATOM      8  O   UNL     1       3.391  -0.480   3.221  0.00  0.00    -0.275 OA
ATOM      9  N   UNL     1       3.500   1.784   2.771  0.00  0.00    -0.291 N 
ATOM     10  C   UNL     1       2.664   2.733   1.970  0.00  0.00    +0.148 C 
ATOM     11  O   UNL     1       0.668   1.897   0.438  0.00  0.00    -0.359 OA
ENDROOT
BRANCH   1  13
ATOM     12  N   UNL     1       1.222  -2.745   0.842  0.00  0.00    -0.312 N 
ATOM     13  C   UNL     1       1.773  -1.527   1.008  0.00  0.00    +0.220 C 
ATOM     14  O   UNL     1       2.978  -1.394   0.953  0.00  0.00    -0.275 OA
ATOM     15  H   UNL     1       0.258  -2.851   0.886  0.00  0.00    +0.149 HD
BRANCH  12  19
ATOM     16  C   UNL     1       3.320  -6.494   1.816  0.00  0.00    -0.010 C 
ATOM     17  C   UNL     1       2.204  -6.411   0.768  0.00  0.00    -0.072 C 
ATOM     18  C   UNL     1       1.344  -5.178   1.035  0.00  0.00    +0.009 C 
ATOM     19  C   UNL     1       2.078  -3.912   0.595  0.00  0.00    +0.070 C 
ATOM     20  C   UNL     1       2.369  -4.014  -0.902  0.00  0.00    +0.009 C 
ATOM     21  C   UNL     1       3.242  -5.233  -1.192  0.00  0.00    -0.072 C 
ATOM     22  C   UNL     1       4.684  -4.944  -0.759  0.00  0.00    -0.010 C 
ATOM     23  C   UNL     1       3.257  -5.441  -2.722  0.00  0.00    -0.010 C 
ATOM     24  C   UNL     1       1.305  -7.654   0.958  0.00  0.00    -0.010 C 
ATOM     25  N   UNL     1       2.745  -6.510  -0.614  0.00  0.00    +0.386 N 
ATOM     26  H   UNL     1       1.999  -6.866  -1.223  0.00  0.00    -0.084 HD
ATOM     27  H   UNL     1       3.525  -7.178  -0.602  0.00  0.00    -0.084 HD
ENDBRANCH  12  19
ENDBRANCH   1  13
BRANCH   9  28
ATOM     28  C   UNL     1       4.752   2.129   3.449  0.00  0.00    +0.182 C 
BRANCH  28  29
ATOM     29  C   UNL     1       4.453   2.593   4.851  0.00  0.00    +0.122 A 
ATOM     30  C   UNL     1       4.386   1.808   5.941  0.00  0.00    +0.046 A 
ATOM     31  C   UNL     1       4.083   2.651   7.035  0.00  0.00    +0.041 A 
ATOM     32  C   UNL     1       3.984   3.901   6.548  0.00  0.00    +0.195 A 
ATOM     33  O   UNL     1       4.215   3.860   5.225  0.00  0.00    -0.466 OA
ENDBRANCH  28  29
ENDBRANCH   9  28
TORSDOF 4
