REMARK  Name = ZINC13065151
REMARK  14 active torsions:
REMARK  status: ('A' for Active; 'I' for Inactive)
REMARK    1  A    between atoms: C_1  and  C_2
REMARK    2  A    between atoms: C_2  and  C_3
REMARK    3  A    between atoms: C_3  and  C_5
REMARK    4  A    between atoms: C_3  and  N_75
REMARK    5  A    between atoms: N_9  and  C_10
REMARK    6  A    between atoms: C_10  and  C_11
REMARK    7  A    between atoms: C_11  and  C_12
REMARK    8  A    between atoms: C_18  and  C_19
REMARK    9  A    between atoms: C_18  and  N_75
REMARK   10  A    between atoms: C_19  and  C_20
REMARK   11  A    between atoms: C_26  and  C_27
REMARK   12  A    between atoms: C_26  and  N_75
REMARK   13  A    between atoms: C_32  and  C_40
REMARK   14  A    between atoms: C_33  and  C_39
REMARK                            x       y       z     vdW  Elec       q    Type
REMARK                         _______ _______ _______ _____ _____    ______ ____
ROOT
ATOM      1  N   UNL     1      -1.750  -1.050   1.730  0.00  0.00    +0.389 N 
ATOM      2  H   UNL     1      -1.138  -1.450   2.450  0.00  0.00    -0.080 HD
ENDROOT
BRANCH   1   3
ATOM      3  C   UNL     1      -3.001  -1.836   1.672  0.00  0.00    +0.003 C 
BRANCH   3   4
ATOM      4  C   UNL     1      -2.675  -3.278   1.961  0.00  0.00    +0.138 A 
ATOM      5  N   UNL     1      -1.663  -3.963   1.486  0.00  0.00    -0.115 NA
ATOM      6  N   UNL     1      -1.729  -5.156   1.967  0.00  0.00    -0.023 NA
ATOM      7  N   UNL     1      -2.761  -5.253   2.731  0.00  0.00    -0.044 NA
ATOM      8  N   UNL     1      -3.370  -4.116   2.753  0.00  0.00    -0.231 N 
BRANCH   8   9
ATOM      9  C   UNL     1      -4.590  -3.796   3.500  0.00  0.00    +0.152 C 
BRANCH   9  10
ATOM     10  C   UNL     1      -5.813  -4.091   2.629  0.00  0.00    +0.058 C 
BRANCH  10  11
ATOM     11  C   UNL     1      -7.067  -3.762   3.397  0.00  0.00    -0.046 A 
ATOM     12  C   UNL     1      -7.678  -4.731   4.170  0.00  0.00    +0.004 A 
ATOM     13  C   UNL     1      -8.826  -4.428   4.879  0.00  0.00    +0.000 A 
ATOM     14  C   UNL     1      -9.368  -3.159   4.807  0.00  0.00    +0.000 A 
ATOM     15  C   UNL     1      -8.760  -2.191   4.029  0.00  0.00    +0.000 A 
ATOM     16  C   UNL     1      -7.609  -2.492   3.325  0.00  0.00    +0.004 A 
ENDBRANCH  10  11
ENDBRANCH   9  10
ENDBRANCH   8   9
ENDBRANCH   3   4
BRANCH   3  18
ATOM     17  C   UNL     1      -4.098  -0.285   0.049  0.00  0.00    +0.002 C 
ATOM     18  C   UNL     1      -3.637  -1.725   0.285  0.00  0.00    -0.011 C 
ENDBRANCH   3  18
ENDBRANCH   1   3
BRANCH   1  19
ATOM     19  C   UNL     1      -2.052   0.354   2.083  0.00  0.00    -0.073 C 
BRANCH  19  20
ATOM     20  C   UNL     1      -2.560   0.401   3.526  0.00  0.00    +0.016 C 
BRANCH  20  21
ATOM     21  C   UNL     1      -2.736   1.836   3.949  0.00  0.00    -0.049 A 
ATOM     22  C   UNL     1      -1.689   2.515   4.546  0.00  0.00    +0.003 A 
ATOM     23  C   UNL     1      -1.849   3.833   4.929  0.00  0.00    +0.000 A 
ATOM     24  C   UNL     1      -3.059   4.470   4.727  0.00  0.00    +0.000 A 
ATOM     25  C   UNL     1      -4.108   3.790   4.136  0.00  0.00    +0.000 A 
ATOM     26  C   UNL     1      -3.946   2.473   3.747  0.00  0.00    +0.003 A 
ENDBRANCH  20  21
ENDBRANCH  19  20
ENDBRANCH   1  19
BRANCH   1  27
ATOM     27  C   UNL     1      -1.058  -1.104   0.425  0.00  0.00    -0.037 C 
BRANCH  27  28
ATOM     28  C   UNL     1       0.350  -0.596   0.602  0.00  0.00    +0.001 A 
ATOM     29  C   UNL     1       1.359  -1.471   0.837  0.00  0.00    +0.017 A 
ATOM     30  C   UNL     1       2.715  -0.945   1.005  0.00  0.00    -0.001 A 
ATOM     31  C   UNL     1       3.797  -1.798   1.249  0.00  0.00    +0.010 A 
ATOM     32  C   UNL     1       5.050  -1.276   1.400  0.00  0.00    +0.004 A 
ATOM     33  C   UNL     1       5.260   0.094   1.315  0.00  0.00    -0.046 A 
ATOM     34  C   UNL     1       4.209   0.953   1.075  0.00  0.00    -0.024 A 
ATOM     35  C   UNL     1       2.924   0.444   0.917  0.00  0.00    +0.052 A 
ATOM     36  N   UNL     1       1.855   1.280   0.676  0.00  0.00    -0.322 N 
ATOM     37  H   UNL     1       2.000   2.237   0.616  0.00  0.00    +0.169 HD
ATOM     38  C   UNL     1       0.613   0.788   0.523  0.00  0.00    +0.251 A 
ATOM     39  O   UNL     1      -0.308   1.557   0.306  0.00  0.00    -0.268 OA
ATOM     40  C   UNL     1       4.451   2.438   0.985  0.00  0.00    +0.046 C 
ATOM     41  C   UNL     1       6.651   0.647   1.485  0.00  0.00    +0.044 C 
ENDBRANCH  27  28
ENDBRANCH   1  27
TORSDOF 11
