REMARK  Name = ZINC39668690
REMARK  9 active torsions:
REMARK  status: ('A' for Active; 'I' for Inactive)
REMARK    1  A    between atoms: C_1  and  C_2
REMARK    2  A    between atoms: C_2  and  C_4
REMARK    3  A    between atoms: C_2  and  O_34
REMARK    4  A    between atoms: C_4  and  N_5
REMARK    5  A    between atoms: C_6  and  C_8
REMARK    6  A    between atoms: C_19  and  C_21
REMARK    7  A    between atoms: C_26  and  S_27
REMARK    8  A    between atoms: S_27  and  C_28
REMARK    9  A    between atoms: O_34  and  C_35
REMARK                            x       y       z     vdW  Elec       q    Type
REMARK                         _______ _______ _______ _____ _____    ______ ____
ROOT
ATOM      1  C   UNL     1       2.387  -3.764   2.783  0.00  0.00    +0.100 C 
ATOM      2  C   UNL     1       3.153  -4.510   1.667  0.00  0.00    +0.121 C 
ATOM      3  N   UNL     1       4.541  -4.621   2.175  0.00  0.00    -0.296 N 
ATOM      4  C   UNL     1       4.383  -4.910   3.620  0.00  0.00    +0.115 C 
ATOM      5  C   UNL     1       3.196  -4.032   4.064  0.00  0.00    -0.004 C 
ATOM      6  C   UNL     1       2.339  -4.778   5.083  0.00  0.00    -0.010 C 
ATOM      7  C   UNL     1       3.145  -4.981   6.369  0.00  0.00    -0.082 C 
ATOM      8  N   UNL     1       3.554  -3.677   6.904  0.00  0.00    +0.379 N 
ATOM      9  C   UNL     1       4.453  -3.007   5.957  0.00  0.00    -0.082 C 
ATOM     10  C   UNL     1       3.703  -2.720   4.653  0.00  0.00    -0.010 C 
ATOM     11  C   UNL     1       5.688  -4.489   1.479  0.00  0.00    +0.249 C 
ATOM     12  O   UNL     1       5.654  -4.163   0.308  0.00  0.00    -0.270 OA
ATOM     13  H   UNL     1       2.736  -3.104   7.052  0.00  0.00    -0.086 HD
ATOM     14  H   UNL     1       4.032  -3.810   7.782  0.00  0.00    -0.086 HD
ENDROOT
BRANCH  11  15
ATOM     15  C   UNL     1       6.982  -4.739   2.138  0.00  0.00    +0.069 A 
ATOM     16  C   UNL     1       7.108  -5.747   3.102  0.00  0.00    +0.017 A 
ATOM     17  C   UNL     1       8.345  -5.942   3.691  0.00  0.00    +0.020 A 
ATOM     18  C   UNL     1       9.412  -5.145   3.315  0.00  0.00    +0.112 A 
ATOM     19  N   UNL     1       9.274  -4.200   2.406  0.00  0.00    -0.248 NA
ATOM     20  C   UNL     1       8.114  -3.974   1.807  0.00  0.00    +0.114 A 
BRANCH  20  21
ATOM     21  S   UNL     1       7.988  -2.703   0.593  0.00  0.00    -0.069 S 
BRANCH  21  22
ATOM     22  C   UNL     1       9.644  -2.131   0.401  0.00  0.00    +0.014 A 
ATOM     23  C   UNL     1      10.444  -2.643  -0.612  0.00  0.00    +0.015 A 
ATOM     24  C   UNL     1      11.741  -2.192  -0.760  0.00  0.00    +0.001 A 
ATOM     25  C   UNL     1      12.243  -1.233   0.100  0.00  0.00    +0.000 A 
ATOM     26  C   UNL     1      11.449  -0.721   1.110  0.00  0.00    +0.001 A 
ATOM     27  C   UNL     1      10.149  -1.163   1.260  0.00  0.00    +0.015 A 
ENDBRANCH  21  22
ENDBRANCH  20  21
ENDBRANCH  11  15
BRANCH   1  29
ATOM     28  N   UNL     1       1.379  -1.520   3.039  0.00  0.00    -0.312 N 
ATOM     29  C   UNL     1       2.342  -2.287   2.491  0.00  0.00    +0.218 C 
ATOM     30  O   UNL     1       3.174  -1.787   1.762  0.00  0.00    -0.275 OA
ATOM     31  H   UNL     1       0.714  -1.920   3.622  0.00  0.00    +0.149 HD
BRANCH  28  32
ATOM     32  C   UNL     1       1.335  -0.084   2.755  0.00  0.00    +0.148 C 
BRANCH  32  34
ATOM     33  C   UNL     1       0.033   2.020   3.101  0.00  0.00    +0.053 C 
ATOM     34  C   UNL     1       0.154   0.547   3.495  0.00  0.00    +0.187 C 
BRANCH  34  35
ATOM     35  O   UNL     1       0.367   0.447   4.904  0.00  0.00    -0.486 OA
BRANCH  35  36
ATOM     36  C   UNL     1      -0.736   0.478   5.699  0.00  0.00    +0.139 A 
ATOM     37  C   UNL     1      -2.008   0.539   5.138  0.00  0.00    +0.049 A 
ATOM     38  C   UNL     1      -3.101   0.569   5.988  0.00  0.00    +0.023 A 
ATOM     39  C   UNL     1      -2.894   0.539   7.355  0.00  0.00    +0.111 A 
ATOM     40  N   UNL     1      -1.675   0.482   7.854  0.00  0.00    -0.260 NA
ATOM     41  C   UNL     1      -0.609   0.446   7.080  0.00  0.00    +0.156 A 
ENDBRANCH  35  36
ENDBRANCH  34  35
ENDBRANCH  32  34
ENDBRANCH  28  32
ENDBRANCH   1  29
TORSDOF 8
