REMARK  Name = ZINC09125696
REMARK  9 active torsions:
REMARK  status: ('A' for Active; 'I' for Inactive)
REMARK    1  A    between atoms: C_1  and  C_2
REMARK    2  A    between atoms: C_10  and  C_11
REMARK    3  A    between atoms: C_11  and  C_12
REMARK    4  A    between atoms: N_14  and  C_15
REMARK    5  A    between atoms: N_14  and  C_22
REMARK    6  A    between atoms: C_15  and  C_16
REMARK    7  A    between atoms: C_23  and  N_38
REMARK    8  A    between atoms: N_24  and  C_31
REMARK    9  A    between atoms: C_31  and  C_32
REMARK                            x       y       z     vdW  Elec       q    Type
REMARK                         _______ _______ _______ _____ _____    ______ ____
ROOT
ATOM      1  C   UNL     1       1.435  -5.907  -0.866  0.00  0.00    +0.225 C 
ATOM      2  O   UNL     1       2.285  -5.326  -0.223  0.00  0.00    -0.275 OA
ATOM      3  N   UNL     1       1.794  -6.692  -1.903  0.00  0.00    -0.261 N 
ENDROOT
BRANCH   3   4
ATOM      4  C   UNL     1       3.145  -6.760  -2.303  0.00  0.00    +0.140 A 
ATOM      5  C   UNL     1       3.795  -5.638  -2.776  0.00  0.00    +0.128 A 
ATOM      6  N   UNL     1       5.112  -5.736  -3.157  0.00  0.00    -0.276 N 
ATOM      7  C   UNL     1       5.761  -6.912  -3.070  0.00  0.00    +0.331 A 
ATOM      8  O   UNL     1       6.926  -6.978  -3.413  0.00  0.00    -0.246 OA
ATOM      9  N   UNL     1       5.144  -8.015  -2.611  0.00  0.00    -0.273 N 
ATOM     10  H   UNL     1       5.634  -8.851  -2.558  0.00  0.00    +0.173 HD
ATOM     11  C   UNL     1       3.856  -7.972  -2.220  0.00  0.00    +0.277 A 
ATOM     12  O   UNL     1       3.307  -8.978  -1.802  0.00  0.00    -0.266 OA
BRANCH   5  13
ATOM     13  N   UNL     1       3.132  -4.437  -2.865  0.00  0.00    -0.343 N 
ATOM     14  H   UNL     1       2.182  -4.392  -2.676  0.00  0.00    +0.144 HD
ATOM     15  H   UNL     1       3.615  -3.635  -3.117  0.00  0.00    +0.144 HD
ENDBRANCH   5  13
BRANCH   6  16
ATOM     16  C   UNL     1       5.814  -4.553  -3.662  0.00  0.00    +0.163 C 
BRANCH  16  17
ATOM     17  C   UNL     1       6.462  -3.825  -2.512  0.00  0.00    -0.028 A 
ATOM     18  C   UNL     1       5.763  -2.843  -1.835  0.00  0.00    +0.005 A 
ATOM     19  C   UNL     1       6.357  -2.175  -0.780  0.00  0.00    +0.000 A 
ATOM     20  C   UNL     1       7.649  -2.489  -0.403  0.00  0.00    +0.000 A 
ATOM     21  C   UNL     1       8.347  -3.472  -1.079  0.00  0.00    +0.000 A 
ATOM     22  C   UNL     1       7.752  -4.143  -2.131  0.00  0.00    +0.005 A 
ENDBRANCH  16  17
ENDBRANCH   6  16
ENDBRANCH   3   4
BRANCH   1  23
ATOM     23  C   UNL     1      -0.020  -5.751  -0.506  0.00  0.00    +0.135 C 
BRANCH  23  33
ATOM     24  C   UNL     1      -0.437   0.786   1.625  0.00  0.00    +0.044 C 
ATOM     25  C   UNL     1      -0.354  -0.680   1.290  0.00  0.00    -0.047 A 
ATOM     26  C   UNL     1      -0.235  -1.076  -0.035  0.00  0.00    +0.004 A 
ATOM     27  C   UNL     1      -0.159  -2.403  -0.356  0.00  0.00    +0.012 A 
ATOM     28  C   UNL     1      -0.202  -3.363   0.654  0.00  0.00    +0.024 A 
ATOM     29  C   UNL     1      -0.323  -2.968   1.997  0.00  0.00    +0.135 A 
ATOM     30  C   UNL     1      -0.393  -1.615   2.302  0.00  0.00    +0.050 A 
ATOM     31  O   UNL     1      -0.339  -4.090   2.744  0.00  0.00    -0.463 OA
ATOM     32  C   UNL     1      -0.236  -5.184   1.969  0.00  0.00    +0.200 A 
ATOM     33  C   UNL     1      -0.148  -4.830   0.679  0.00  0.00    +0.007 A 
ENDBRANCH  23  33
ENDBRANCH   1  23
BRANCH   3  34
ATOM     34  C   UNL     1       0.779  -7.473  -2.615  0.00  0.00    +0.145 C 
BRANCH  34  35
ATOM     35  C   UNL     1       0.317  -6.702  -3.853  0.00  0.00    +0.136 C 
ATOM     36  C   UNL     1      -0.782  -7.497  -4.602  0.00  0.00    +0.035 C 
ATOM     37  C   UNL     1      -1.520  -6.350  -5.346  0.00  0.00    +0.031 C 
ATOM     38  C   UNL     1      -1.407  -5.183  -4.341  0.00  0.00    +0.160 C 
ATOM     39  O   UNL     1      -0.306  -5.467  -3.468  0.00  0.00    -0.375 OA
ENDBRANCH  34  35
ENDBRANCH   3  34
TORSDOF 8
