REMARK  Name = ZINC58421183
REMARK  7 active torsions:
REMARK  status: ('A' for Active; 'I' for Inactive)
REMARK    1  A    between atoms: C_1  and  C_2
REMARK    2  A    between atoms: C_2  and  C_4
REMARK    3  A    between atoms: C_2  and  N_12
REMARK    4  A    between atoms: C_4  and  C_5
REMARK    5  A    between atoms: C_5  and  C_6
REMARK    6  A    between atoms: C_13  and  C_15
REMARK    7  A    between atoms: N_23  and  C_26
REMARK                            x       y       z     vdW  Elec       q    Type
REMARK                         _______ _______ _______ _____ _____    ______ ____
ROOT
ATOM      1  N   UNL     1       0.711  -0.489   1.189  0.00  0.00    -0.309 N 
ATOM      2  C   UNL     1       0.051  -0.633   2.355  0.00  0.00    +0.244 C 
ATOM      3  O   UNL     1      -1.131  -0.361   2.423  0.00  0.00    -0.270 OA
ATOM      4  H   UNL     1       1.654  -0.707   1.135  0.00  0.00    +0.149 HD
ENDROOT
BRANCH   2   5
ATOM      5  C   UNL     1       0.768  -1.124   3.555  0.00  0.00    +0.039 A 
ATOM      6  C   UNL     1       2.135  -1.432   3.472  0.00  0.00    +0.014 A 
ATOM      7  C   UNL     1       2.815  -1.884   4.561  0.00  0.00    +0.016 A 
ATOM      8  C   UNL     1       2.148  -2.047   5.784  0.00  0.00    +0.065 A 
ATOM      9  C   UNL     1       0.766  -1.740   5.883  0.00  0.00    +0.080 A 
ATOM     10  C   UNL     1       0.084  -1.270   4.751  0.00  0.00    +0.041 A 
ATOM     11  N   UNL     1       0.143  -1.901   7.059  0.00  0.00    -0.222 NA
ATOM     12  C   UNL     1       0.803  -2.341   8.119  0.00  0.00    +0.183 A 
ATOM     13  N   UNL     1       2.111  -2.645   8.078  0.00  0.00    -0.290 N 
ATOM     14  C   UNL     1       2.818  -2.513   6.935  0.00  0.00    +0.262 A 
ATOM     15  O   UNL     1       4.127  -2.818   6.895  0.00  0.00    -0.267 OA
ATOM     16  C   UNL     1       2.780  -3.126   9.290  0.00  0.00    +0.154 C 
ATOM     17  S   UNL     1      -0.041  -2.528   9.597  0.00  0.00    -0.011 S 
ENDBRANCH   2   5
BRANCH   1  19
ATOM     18  C   UNL     1      -0.019   1.526   0.010  0.00  0.00    +0.028 C 
ATOM     19  C   UNL     1       0.002  -0.004   0.002  0.00  0.00    +0.070 C 
BRANCH  19  20
ATOM     20  C   UNL     1       0.718  -0.497  -1.257  0.00  0.00    +0.024 C 
BRANCH  20  21
ATOM     21  C   UNL     1       0.630  -2.023  -1.329  0.00  0.00    +0.033 C 
BRANCH  21  22
ATOM     22  C   UNL     1       1.347  -2.517  -2.587  0.00  0.00    +0.118 C 
ATOM     23  C   UNL     1       1.348  -4.066  -2.633  0.00  0.00    +0.034 C 
ATOM     24  C   UNL     1       1.488  -4.315  -4.160  0.00  0.00    +0.031 C 
ATOM     25  C   UNL     1       0.696  -3.134  -4.759  0.00  0.00    +0.160 C 
ATOM     26  O   UNL     1       0.630  -2.105  -3.762  0.00  0.00    -0.377 OA
ENDBRANCH  21  22
ENDBRANCH  20  21
ENDBRANCH  19  20
ENDBRANCH   1  19
TORSDOF 5
