REMARK  Name = ZINC39664922
REMARK  10 active torsions:
REMARK  status: ('A' for Active; 'I' for Inactive)
REMARK    1  A    between atoms: C_1  and  C_2
REMARK    2  A    between atoms: C_7  and  C_8
REMARK    3  A    between atoms: C_8  and  C_9
REMARK    4  A    between atoms: C_13  and  C_22
REMARK    5  A    between atoms: N_24  and  C_25
REMARK    6  A    between atoms: C_25  and  C_27
REMARK    7  A    between atoms: C_25  and  C_31
REMARK    8  A    between atoms: C_27  and  N_28
REMARK    9  A    between atoms: N_28  and  C_29
REMARK   10  A    between atoms: N_28  and  C_30
REMARK                            x       y       z     vdW  Elec       q    Type
REMARK                         _______ _______ _______ _____ _____    ______ ____
ROOT
ATOM      1  C   UNL     1      -2.973   0.666   3.169  0.00  0.00    +0.220 C 
ATOM      2  O   UNL     1      -3.824   0.790   2.313  0.00  0.00    -0.275 OA
ATOM      3  N   UNL     1      -2.875   1.576   4.158  0.00  0.00    -0.300 N 
ATOM      4  C   UNL     1      -1.905   1.599   5.279  0.00  0.00    +0.121 C 
ATOM      5  C   UNL     1      -1.532   3.089   5.441  0.00  0.00    +0.100 C 
ATOM      6  C   UNL     1      -2.722   3.860   4.846  0.00  0.00    -0.004 C 
ATOM      7  C   UNL     1      -3.708   2.784   4.367  0.00  0.00    +0.115 C 
ATOM      8  C   UNL     1      -3.371   4.736   5.913  0.00  0.00    -0.010 C 
ATOM      9  C   UNL     1      -4.515   5.536   5.283  0.00  0.00    -0.082 C 
ATOM     10  N   UNL     1      -3.991   6.366   4.191  0.00  0.00    +0.379 N 
ATOM     11  C   UNL     1      -3.452   5.511   3.127  0.00  0.00    -0.082 C 
ATOM     12  C   UNL     1      -2.263   4.710   3.665  0.00  0.00    -0.010 C 
ATOM     13  H   UNL     1      -4.735   6.937   3.818  0.00  0.00    -0.086 HD
ATOM     14  H   UNL     1      -3.258   6.962   4.545  0.00  0.00    -0.086 HD
ENDROOT
BRANCH   5  15
ATOM     15  C   UNL     1      -1.359   3.430   6.899  0.00  0.00    +0.219 C 
ATOM     16  O   UNL     1      -1.991   2.830   7.742  0.00  0.00    -0.275 OA
ATOM     17  N   UNL     1      -0.502   4.403   7.266  0.00  0.00    -0.310 N 
ATOM     18  H   UNL     1      -0.048   4.931   6.590  0.00  0.00    +0.149 HD
BRANCH  17  19
ATOM     19  C   UNL     1      -0.255   4.664   8.687  0.00  0.00    +0.087 C 
BRANCH  19  20
ATOM     20  C   UNL     1      -0.625   6.090   9.007  0.00  0.00    -0.029 A 
ATOM     21  C   UNL     1      -0.326   7.099   8.112  0.00  0.00    +0.005 A 
ATOM     22  C   UNL     1      -0.666   8.407   8.406  0.00  0.00    +0.000 A 
ATOM     23  C   UNL     1      -1.304   8.704   9.595  0.00  0.00    +0.000 A 
ATOM     24  C   UNL     1      -1.604   7.694  10.490  0.00  0.00    +0.000 A 
ATOM     25  C   UNL     1      -1.268   6.386  10.194  0.00  0.00    +0.005 A 
ENDBRANCH  19  20
BRANCH  19  26
ATOM     26  C   UNL     1       1.227   4.440   8.996  0.00  0.00    -0.052 C 
BRANCH  26  27
ATOM     27  N   UNL     1       1.622   3.097   8.552  0.00  0.00    +0.377 N 
ATOM     28  C   UNL     1       3.075   2.940   8.700  0.00  0.00    -0.097 C 
ATOM     29  C   UNL     1       0.935   2.089   9.371  0.00  0.00    -0.097 C 
ATOM     30  H   UNL     1       1.367   2.974   7.584  0.00  0.00    -0.083 HD
ENDBRANCH  26  27
ENDBRANCH  19  26
ENDBRANCH  17  19
ENDBRANCH   5  15
BRANCH   1  31
ATOM     31  C   UNL     1      -2.026  -0.505   3.126  0.00  0.00    +0.131 C 
BRANCH  31  38
ATOM     32  C   UNL     1      -0.908   0.140   0.541  0.00  0.00    +0.044 C 
ATOM     33  C   UNL     1      -1.810  -1.057   0.694  0.00  0.00    -0.047 A 
ATOM     34  C   UNL     1      -2.099  -1.850  -0.401  0.00  0.00    +0.003 A 
ATOM     35  C   UNL     1      -2.926  -2.948  -0.261  0.00  0.00    +0.000 A 
ATOM     36  C   UNL     1      -3.466  -3.253   0.975  0.00  0.00    +0.000 A 
ATOM     37  C   UNL     1      -3.177  -2.461   2.070  0.00  0.00    +0.004 A 
ATOM     38  C   UNL     1      -2.345  -1.366   1.931  0.00  0.00    -0.036 A 
ENDBRANCH  31  38
ENDBRANCH   1  31
TORSDOF 7
