REMARK  Name = ZINC13393722
REMARK  7 active torsions:
REMARK  status: ('A' for Active; 'I' for Inactive)
REMARK    1  A    between atoms: C_1  and  C_2
REMARK    2  A    between atoms: C_2  and  N_3
REMARK    3  A    between atoms: C_12  and  S_13
REMARK    4  A    between atoms: S_13  and  C_14
REMARK    5  A    between atoms: C_14  and  C_15
REMARK    6  A    between atoms: C_21  and  C_27
REMARK    7  A    between atoms: C_22  and  C_26
REMARK                            x       y       z     vdW  Elec       q    Type
REMARK                         _______ _______ _______ _____ _____    ______ ____
ROOT
ATOM      1  S   UNL     1      -1.729  -0.449   2.366  0.00  0.00    -0.080 S 
ENDROOT
BRANCH   1  11
ATOM      2  N   UNL     1       0.711  -0.489   1.189  0.00  0.00    -0.288 N 
ATOM      3  C   UNL     1       2.041  -0.686   1.129  0.00  0.00    +0.263 A 
ATOM      4  O   UNL     1       2.653  -0.462   0.099  0.00  0.00    -0.267 OA
ATOM      5  C   UNL     1       2.727  -1.160   2.292  0.00  0.00    +0.076 A 
ATOM      6  C   UNL     1       4.154  -1.443   2.451  0.00  0.00    -0.023 A 
ATOM      7  C   UNL     1       4.560  -1.885   3.659  0.00  0.00    -0.004 A 
ATOM      8  S   UNL     1       3.087  -1.952   4.643  0.00  0.00    -0.073 S 
ATOM      9  C   UNL     1       1.927  -1.384   3.425  0.00  0.00    +0.117 A 
ATOM     10  N   UNL     1       0.616  -1.170   3.419  0.00  0.00    -0.216 NA
ATOM     11  C   UNL     1       0.010  -0.728   2.336  0.00  0.00    +0.173 A 
ATOM     12  C   UNL     1       5.954  -2.244   4.073  0.00  0.00    +0.043 C 
ATOM     13  C   UNL     1       6.813  -2.389   2.808  0.00  0.00    +0.005 C 
ATOM     14  C   UNL     1       6.564  -1.178   1.904  0.00  0.00    +0.005 C 
ATOM     15  C   UNL     1       5.155  -1.252   1.315  0.00  0.00    +0.037 C 
BRANCH   2  17
ATOM     16  C   UNL     1      -0.019   1.526   0.010  0.00  0.00    +0.027 C 
ATOM     17  C   UNL     1       0.002  -0.004   0.002  0.00  0.00    +0.124 C 
ENDBRANCH   2  17
ENDBRANCH   1  11
BRANCH   1  18
ATOM     18  C   UNL     1      -2.216  -0.892   4.056  0.00  0.00    +0.151 C 
BRANCH  18  19
ATOM     19  C   UNL     1      -3.701  -0.696   4.219  0.00  0.00    +0.124 A 
ATOM     20  N   UNL     1      -4.268  -0.968   5.420  0.00  0.00    -0.309 N 
ATOM     21  H   UNL     1      -3.719  -1.283   6.155  0.00  0.00    +0.170 HD
ATOM     22  C   UNL     1      -5.599  -0.801   5.595  0.00  0.00    +0.263 A 
ATOM     23  O   UNL     1      -6.126  -1.040   6.668  0.00  0.00    -0.267 OA
ATOM     24  C   UNL     1      -6.359  -0.341   4.499  0.00  0.00    +0.118 A 
ATOM     25  C   UNL     1      -7.783  -0.036   4.273  0.00  0.00    +0.118 A 
ATOM     26  C   UNL     1      -7.866   0.373   2.974  0.00  0.00    +0.119 A 
ATOM     27  O   UNL     1      -6.651   0.342   2.416  0.00  0.00    -0.441 OA
ATOM     28  C   UNL     1      -5.719  -0.078   3.288  0.00  0.00    +0.235 A 
ATOM     29  N   UNL     1      -4.393  -0.266   3.202  0.00  0.00    -0.198 NA
ATOM     30  C   UNL     1      -9.133   0.795   2.276  0.00  0.00    +0.087 C 
BRANCH  25  31
ATOM     31  C   UNL     1      -8.880  -0.150   5.241  0.00  0.00    +0.391 C 
ATOM     32  O   UNL     1      -8.653  -0.535   6.381  0.00  0.00    -0.240 OA
ATOM     33  O   UNL     1     -10.022   0.140   4.909  0.00  0.00    -0.240 OA
ENDBRANCH  25  31
ENDBRANCH  18  19
ENDBRANCH   1  18
TORSDOF 5
