REMARK  Name = ZINC63985280
REMARK  4 active torsions:
REMARK  status: ('A' for Active; 'I' for Inactive)
REMARK    1  A    between atoms: C_8  and  C_16
REMARK    2  A    between atoms: C_18  and  O_33
REMARK    3  A    between atoms: C_20  and  O_32
REMARK    4  A    between atoms: N_22  and  C_25
REMARK                            x       y       z     vdW  Elec       q    Type
REMARK                         _______ _______ _______ _____ _____    ______ ____
ROOT
ATOM      1  C   UNL     1       3.300  -1.868   2.679  0.00  0.00    +0.179 C 
ATOM      2  C   UNL     1       4.414  -0.905   2.389  0.00  0.00    +0.200 C 
ATOM      3  N   UNL     1       5.624  -1.121   2.733  0.00  0.00    -0.204 NA
ATOM      4  C   UNL     1       6.074  -2.311   3.436  0.00  0.00    +0.338 C 
ATOM      5  N   UNL     1       4.981  -2.993   4.114  0.00  0.00    -0.225 N 
ATOM      6  C   UNL     1       3.702  -2.812   3.776  0.00  0.00    +0.237 C 
ATOM      7  O   UNL     1       2.844  -3.427   4.373  0.00  0.00    -0.274 OA
ENDROOT
BRANCH   1  14
ATOM      8  C   UNL     1      -0.259   2.055   1.268  0.00  0.00    +0.001 A 
ATOM      9  C   UNL     1       0.932   2.615   0.784  0.00  0.00    +0.002 A 
ATOM     10  C   UNL     1       1.991   1.864   0.416  0.00  0.00    +0.026 A 
ATOM     11  C   UNL     1       1.938   0.447   0.508  0.00  0.00    +0.043 A 
ATOM     12  N   UNL     1       2.831  -0.479   0.239  0.00  0.00    -0.376 N 
ATOM     13  C   UNL     1       2.211  -1.787   0.427  0.00  0.00    +0.124 C 
ATOM     14  C   UNL     1       2.981  -2.668   1.414  0.00  0.00    +0.101 C 
ATOM     15  N   UNL     1       2.138  -3.824   1.758  0.00  0.00    -0.310 NA
ATOM     16  C   UNL     1       0.940  -3.459   2.521  0.00  0.00    +0.085 C 
ATOM     17  C   UNL     1       0.004  -2.597   1.654  0.00  0.00    +0.048 C 
ATOM     18  C   UNL     1       0.852  -1.500   1.047  0.00  0.00    -0.036 C 
ATOM     19  C   UNL     1       0.693  -0.172   1.026  0.00  0.00    -0.001 A 
ATOM     20  C   UNL     1      -0.414   0.719   1.399  0.00  0.00    +0.010 A 
ATOM     21  H   UNL     1       1.895  -4.352   0.933  0.00  0.00    +0.122 HD
ATOM     22  H   UNL     1       3.747  -0.321  -0.038  0.00  0.00    +0.160 HD
ENDBRANCH   1  14
BRANCH   5  23
ATOM     23  C   UNL     1       5.284  -3.873   5.159  0.00  0.00    +0.042 A 
ATOM     24  C   UNL     1       5.383  -3.399   6.461  0.00  0.00    +0.024 A 
ATOM     25  C   UNL     1       5.683  -4.269   7.490  0.00  0.00    +0.003 A 
ATOM     26  C   UNL     1       5.884  -5.612   7.227  0.00  0.00    +0.020 A 
ATOM     27  C   UNL     1       5.786  -6.088   5.931  0.00  0.00    +0.043 A 
ATOM     28  C   UNL     1       5.480  -5.222   4.897  0.00  0.00    +0.043 A 
ATOM     29 CL   UNL     1       6.040  -7.774   5.604  0.00  0.00    -0.083 Cl
ENDBRANCH   5  23
BRANCH   4  30
ATOM     30  O   UNL     1       6.667  -3.209   2.495  0.00  0.00    -0.356 OA
ATOM     31  H   UNL     1       7.431  -2.842   2.029  0.00  0.00    +0.214 HD
ENDBRANCH   4  30
BRANCH   2  32
ATOM     32  O   UNL     1       4.124   0.239   1.736  0.00  0.00    -0.495 OA
ATOM     33  H   UNL     1       4.889   0.811   1.584  0.00  0.00    +0.293 HD
ENDBRANCH   2  32
TORSDOF 4
