REMARK  Name = ZINC63349719
REMARK  10 active torsions:
REMARK  status: ('A' for Active; 'I' for Inactive)
REMARK    1  A    between atoms: C_1  and  O_2
REMARK    2  A    between atoms: O_2  and  C_3
REMARK    3  A    between atoms: C_5  and  C_13
REMARK    4  A    between atoms: C_7  and  O_11
REMARK    5  A    between atoms: C_8  and  O_9
REMARK    6  A    between atoms: O_9  and  C_10
REMARK    7  A    between atoms: O_11  and  C_12
REMARK    8  A    between atoms: C_26  and  C_29
REMARK    9  A    between atoms: C_29  and  O_31
REMARK   10  A    between atoms: O_31  and  C_32
REMARK                            x       y       z     vdW  Elec       q    Type
REMARK                         _______ _______ _______ _____ _____    ______ ____
ROOT
ATOM      1  C   UNL     1       4.650  -0.548  -4.346  0.00  0.00    +0.111 C 
ATOM      2  C   UNL     1       3.888   0.686  -4.836  0.00  0.00    +0.128 C 
ATOM      3  C   UNL     1       2.483   0.208  -5.184  0.00  0.00    -0.035 C 
ATOM      4  C   UNL     1       1.645   0.980  -4.506  0.00  0.00    -0.001 A 
ATOM      5  C   UNL     1       0.175   1.060  -4.494  0.00  0.00    +0.010 A 
ATOM      6  C   UNL     1      -0.368   1.977  -3.650  0.00  0.00    +0.001 A 
ATOM      7  C   UNL     1       0.394   2.811  -2.826  0.00  0.00    +0.002 A 
ATOM      8  C   UNL     1       1.750   2.809  -2.777  0.00  0.00    +0.026 A 
ATOM      9  C   UNL     1       2.436   1.891  -3.624  0.00  0.00    +0.043 A 
ATOM     10  N   UNL     1       3.730   1.700  -3.794  0.00  0.00    -0.376 N 
ATOM     11  C   UNL     1       2.251  -0.994  -6.068  0.00  0.00    +0.063 C 
ATOM     12  C   UNL     1       3.170  -2.106  -5.530  0.00  0.00    +0.168 C 
ATOM     13  N   UNL     1       4.537  -1.599  -5.370  0.00  0.00    -0.295 NA
ATOM     14  H   UNL     1       4.912  -1.286  -6.253  0.00  0.00    +0.123 HD
ATOM     15  H   UNL     1       4.451   2.141  -3.318  0.00  0.00    +0.160 HD
ENDROOT
BRANCH   1  18
ATOM     16  C   UNL     1       2.155  -1.270  -1.601  0.00  0.00    +0.165 A 
ATOM     17  C   UNL     1       2.710  -0.825  -2.791  0.00  0.00    +0.055 A 
ATOM     18  C   UNL     1       4.051  -1.034  -3.051  0.00  0.00    -0.021 A 
ATOM     19  C   UNL     1       4.844  -1.688  -2.128  0.00  0.00    +0.055 A 
ATOM     20  C   UNL     1       4.297  -2.138  -0.935  0.00  0.00    +0.165 A 
ATOM     21  C   UNL     1       2.950  -1.924  -0.667  0.00  0.00    +0.204 A 
BRANCH  16  23
ATOM     22  C   UNL     1       0.085  -0.357  -2.336  0.00  0.00    +0.277 C 
ATOM     23  O   UNL     1       0.835  -1.064  -1.345  0.00  0.00    -0.491 OA
ENDBRANCH  16  23
BRANCH  21  24
ATOM     24  O   UNL     1       2.410  -2.358   0.504  0.00  0.00    -0.488 OA
ATOM     25  C   UNL     1       1.873  -3.682   0.519  0.00  0.00    +0.277 C 
ENDBRANCH  21  24
BRANCH  20  26
ATOM     26  O   UNL     1       5.078  -2.782  -0.028  0.00  0.00    -0.491 OA
ATOM     27  C   UNL     1       6.425  -3.062  -0.414  0.00  0.00    +0.277 C 
ENDBRANCH  20  26
ENDBRANCH   1  18
BRANCH  12  28
ATOM     28  C   UNL     1       2.655  -2.576  -4.194  0.00  0.00    +0.324 C 
ATOM     29  O   UNL     1       1.515  -2.343  -3.870  0.00  0.00    -0.249 OA
BRANCH  28  30
ATOM     30  O   UNL     1       3.464  -3.255  -3.364  0.00  0.00    -0.467 OA
ATOM     31  C   UNL     1       2.838  -4.064  -2.366  0.00  0.00    +0.280 C 
ENDBRANCH  28  30
ENDBRANCH  12  28
TORSDOF 6
