REMARK  Name = ZINC16904550
REMARK  5 active torsions:
REMARK  status: ('A' for Active; 'I' for Inactive)
REMARK    1  A    between atoms: C_1  and  C_2
REMARK    2  A    between atoms: C_6  and  C_8
REMARK    3  A    between atoms: N_12  and  C_23
REMARK    4  A    between atoms: N_14  and  C_15
REMARK    5  A    between atoms: C_19  and  O_21
REMARK                            x       y       z     vdW  Elec       q    Type
REMARK                         _______ _______ _______ _____ _____    ______ ____
ROOT
ATOM      1  C   UNL     1       4.977   3.216  -0.028  0.00  0.00    +0.028 C 
ATOM      2  C   UNL     1       3.651   2.990   0.150  0.00  0.00    +0.078 C 
ATOM      3  C   UNL     1       2.540   3.957   0.250  0.00  0.00    +0.259 C 
ATOM      4  O   UNL     1       2.731   5.157   0.175  0.00  0.00    -0.269 OA
ATOM      5  N   UNL     1       1.327   3.460   0.424  0.00  0.00    -0.249 N 
ATOM      6  C   UNL     1       1.131   2.099   0.506  0.00  0.00    +0.168 C 
ATOM      7  N   UNL     1       0.004   1.444   0.677  0.00  0.00    -0.225 NA
ATOM      8  S   UNL     1       2.781   1.440   0.333  0.00  0.00    -0.049 S 
ATOM      9  C   UNL     1       0.180   4.365   0.531  0.00  0.00    +0.140 C 
ENDROOT
BRANCH   1  15
ATOM     10  C   UNL     1       9.510   1.338  -0.909  0.00  0.00    +0.044 C 
ATOM     11  C   UNL     1       8.116   1.193  -0.354  0.00  0.00    -0.050 A 
ATOM     12  C   UNL     1       7.734   0.007   0.249  0.00  0.00    +0.003 A 
ATOM     13  C   UNL     1       6.456  -0.137   0.762  0.00  0.00    +0.001 A 
ATOM     14  C   UNL     1       5.555   0.904   0.680  0.00  0.00    +0.008 A 
ATOM     15  C   UNL     1       5.932   2.104   0.068  0.00  0.00    -0.024 A 
ATOM     16  C   UNL     1       7.226   2.241  -0.448  0.00  0.00    +0.011 A 
ENDBRANCH   1  15
BRANCH   7  17
ATOM     17  C   UNL     1       0.008   0.077   0.734  0.00  0.00    +0.070 A 
ATOM     18  C   UNL     1       0.751  -0.661  -0.191  0.00  0.00    +0.028 A 
ATOM     19  C   UNL     1       0.753  -2.039  -0.130  0.00  0.00    +0.006 A 
ATOM     20  C   UNL     1       0.021  -2.693   0.844  0.00  0.00    +0.045 A 
ATOM     21  C   UNL     1      -0.719  -1.969   1.768  0.00  0.00    +0.119 A 
ATOM     22  C   UNL     1      -0.725  -0.585   1.720  0.00  0.00    +0.073 A 
BRANCH  21  23
ATOM     23  O   UNL     1      -1.436  -2.618   2.723  0.00  0.00    -0.507 OA
ATOM     24  H   UNL     1      -0.945  -2.781   3.540  0.00  0.00    +0.292 HD
ENDBRANCH  21  23
ENDBRANCH   7  17
TORSDOF 3
