REMARK  Name = ZINC42095745
REMARK  7 active torsions:
REMARK  status: ('A' for Active; 'I' for Inactive)
REMARK    1  A    between atoms: C_1  and  C_2
REMARK    2  A    between atoms: C_2  and  C_4
REMARK    3  A    between atoms: C_2  and  S_17
REMARK    4  A    between atoms: N_9  and  C_10
REMARK    5  A    between atoms: C_10  and  C_11
REMARK    6  A    between atoms: C_11  and  C_12
REMARK    7  A    between atoms: S_17  and  C_18
REMARK                            x       y       z     vdW  Elec       q    Type
REMARK                         _______ _______ _______ _____ _____    ______ ____
ROOT
ATOM      1  C   UNL     1       0.597  -0.521  -1.297  0.00  0.00    +0.233 C 
ATOM      2  O   UNL     1      -0.127  -0.834  -2.217  0.00  0.00    -0.274 OA
ATOM      3  N   UNL     1       1.934  -0.632  -1.423  0.00  0.00    -0.239 N 
ATOM      4  C   UNL     1       2.467  -1.092  -2.572  0.00  0.00    +0.306 C 
ATOM      5  O   UNL     1       1.741  -1.407  -3.495  0.00  0.00    -0.252 OA
ATOM      6  N   UNL     1       3.804  -1.204  -2.698  0.00  0.00    -0.299 N 
ATOM      7  H   UNL     1       2.513  -0.381  -0.686  0.00  0.00    +0.159 HD
ATOM      8  H   UNL     1       4.383  -0.953  -1.961  0.00  0.00    +0.150 HD
ENDROOT
BRANCH   1  10
ATOM      9  C   UNL     1      -0.021   1.523  -0.036  0.00  0.00    +0.029 C 
ATOM     10  C   UNL     1       0.002  -0.006  -0.011  0.00  0.00    +0.134 C 
BRANCH  10  11
ATOM     11  S   UNL     1      -1.692  -0.633   0.164  0.00  0.00    -0.110 S 
BRANCH  11  12
ATOM     12  C   UNL     1      -1.481  -2.361   0.434  0.00  0.00    +0.044 A 
ATOM     13  C   UNL     1      -0.206  -2.892   0.586  0.00  0.00    +0.017 A 
ATOM     14  C   UNL     1      -0.045  -4.247   0.798  0.00  0.00    +0.001 A 
ATOM     15  C   UNL     1      -1.149  -5.077   0.860  0.00  0.00    +0.003 A 
ATOM     16  C   UNL     1      -2.421  -4.553   0.709  0.00  0.00    +0.039 A 
ATOM     17  C   UNL     1      -2.591  -3.197   0.502  0.00  0.00    +0.137 A 
ATOM     18  F   UNL     1      -3.833  -2.685   0.361  0.00  0.00    -0.204 F 
ENDBRANCH  11  12
ENDBRANCH  10  11
ENDBRANCH   1  10
BRANCH   6  19
ATOM     19  C   UNL     1       4.383  -1.704  -3.947  0.00  0.00    +0.111 C 
BRANCH  19  20
ATOM     20  C   UNL     1       5.908  -1.731  -3.828  0.00  0.00    +0.061 C 
BRANCH  20  21
ATOM     21  C   UNL     1       6.503  -2.246  -5.113  0.00  0.00    -0.009 A 
ATOM     22  C   UNL     1       6.893  -1.553  -6.211  0.00  0.00    +0.011 A 
ATOM     23  C   UNL     1       7.419  -2.242  -7.287  0.00  0.00    +0.008 A 
ATOM     24  C   UNL     1       7.531  -3.591  -7.212  0.00  0.00    +0.045 A 
ATOM     25  S   UNL     1       6.886  -3.925  -5.582  0.00  0.00    -0.102 S 
ENDBRANCH  20  21
ENDBRANCH  19  20
ENDBRANCH   6  19
TORSDOF 6
