REMARK  Name = ZINC08961925
REMARK  6 active torsions:
REMARK  status: ('A' for Active; 'I' for Inactive)
REMARK    1  A    between atoms: C_1  and  C_2
REMARK    2  A    between atoms: C_5  and  S_9
REMARK    3  A    between atoms: C_7  and  C_8
REMARK    4  A    between atoms: S_9  and  N_12
REMARK    5  A    between atoms: N_12  and  C_13
REMARK    6  A    between atoms: C_23  and  C_26
REMARK                            x       y       z     vdW  Elec       q    Type
REMARK                         _______ _______ _______ _____ _____    ______ ____
ROOT
ATOM      1  C   UNL     1      -3.495   2.965  -2.284  0.00  0.00    +0.049 A 
ATOM      2  C   UNL     1      -2.778   1.790  -2.085  0.00  0.00    +0.028 A 
ATOM      3  C   UNL     1      -3.095   0.647  -2.793  0.00  0.00    +0.048 A 
ATOM      4  C   UNL     1      -4.126   0.669  -3.717  0.00  0.00    +0.133 A 
ATOM      5  C   UNL     1      -4.848   1.853  -3.929  0.00  0.00    +0.080 A 
ATOM      6  C   UNL     1      -4.528   3.002  -3.207  0.00  0.00    +0.041 A 
ATOM      7  C   UNL     1      -5.938   1.858  -4.924  0.00  0.00    +0.248 C 
ATOM      8  O   UNL     1      -6.016   2.745  -5.752  0.00  0.00    -0.270 OA
ATOM      9  N   UNL     1      -6.850   0.856  -4.898  0.00  0.00    -0.308 N 
ATOM     10  C   UNL     1      -6.798  -0.141  -3.828  0.00  0.00    +0.148 C 
ATOM     11  C   UNL     1      -5.652  -1.117  -4.054  0.00  0.00    +0.187 C 
ATOM     12  O   UNL     1      -4.455  -0.444  -4.422  0.00  0.00    -0.487 OA
ATOM     13  C   UNL     1      -5.405  -1.905  -2.765  0.00  0.00    +0.053 C 
ATOM     14  H   UNL     1      -7.533   0.800  -5.585  0.00  0.00    +0.149 HD
ENDROOT
BRANCH   1  15
ATOM     15  N   UNL     1      -3.169   4.114  -1.555  0.00  0.00    -0.216 N 
ATOM     16  H   UNL     1      -2.686   4.838  -1.982  0.00  0.00    +0.174 HD
BRANCH  15  17
ATOM     17  S   UNL     1      -3.608   4.237   0.037  0.00  0.00    +0.072 S 
ATOM     18  O   UNL     1      -3.208   5.530   0.470  0.00  0.00    -0.150 OA
ATOM     19  O   UNL     1      -3.163   3.048   0.674  0.00  0.00    -0.150 OA
BRANCH  17  24
ATOM     20  C   UNL     1      -9.638   4.144   0.236  0.00  0.00    +0.044 C 
ATOM     21  C   UNL     1      -8.132   4.167   0.186  0.00  0.00    -0.047 A 
ATOM     22  C   UNL     1      -7.467   5.356  -0.047  0.00  0.00    +0.005 A 
ATOM     23  C   UNL     1      -6.086   5.377  -0.098  0.00  0.00    +0.029 A 
ATOM     24  C   UNL     1      -5.369   4.210   0.095  0.00  0.00    +0.109 A 
ATOM     25  C   UNL     1      -6.035   3.021   0.328  0.00  0.00    +0.032 A 
ATOM     26  C   UNL     1      -7.416   2.999   0.374  0.00  0.00    -0.046 A 
ATOM     27  C   UNL     1      -8.142   1.703   0.628  0.00  0.00    +0.044 C 
ENDBRANCH  17  24
ENDBRANCH  15  17
ENDBRANCH   1  15
TORSDOF 3
