REMARK  Name = ZINC39670213
REMARK  7 active torsions:
REMARK  status: ('A' for Active; 'I' for Inactive)
REMARK    1  A    between atoms: C_1  and  C_2
REMARK    2  A    between atoms: C_7  and  C_11
REMARK    3  A    between atoms: C_11  and  N_12
REMARK    4  A    between atoms: C_13  and  C_15
REMARK    5  A    between atoms: C_26  and  C_28
REMARK    6  A    between atoms: C_30  and  C_37
REMARK    7  A    between atoms: C_32  and  C_33
REMARK                            x       y       z     vdW  Elec       q    Type
REMARK                         _______ _______ _______ _____ _____    ______ ____
ROOT
ATOM      1  C   UNL     1       3.196  -7.314   3.716  0.00  0.00    +0.100 C 
ATOM      2  C   UNL     1       3.958  -7.704   2.429  0.00  0.00    +0.121 C 
ATOM      3  N   UNL     1       4.861  -8.802   2.847  0.00  0.00    -0.296 N 
ATOM      4  C   UNL     1       4.049  -9.608   3.790  0.00  0.00    +0.115 C 
ATOM      5  C   UNL     1       3.257  -8.566   4.606  0.00  0.00    -0.004 C 
ATOM      6  C   UNL     1       1.850  -9.080   4.892  0.00  0.00    -0.010 C 
ATOM      7  C   UNL     1       1.933 -10.290   5.827  0.00  0.00    -0.082 C 
ATOM      8  N   UNL     1       2.598  -9.901   7.076  0.00  0.00    +0.379 N 
ATOM      9  C   UNL     1       3.982  -9.497   6.803  0.00  0.00    -0.082 C 
ATOM     10  C   UNL     1       3.985  -8.253   5.910  0.00  0.00    -0.010 C 
ATOM     11  C   UNL     1       6.133  -9.019   2.458  0.00  0.00    +0.250 C 
ATOM     12  O   UNL     1       6.704  -8.201   1.763  0.00  0.00    -0.270 OA
ATOM     13  H   UNL     1       2.099  -9.130   7.495  0.00  0.00    -0.086 HD
ATOM     14  H   UNL     1       2.597 -10.684   7.714  0.00  0.00    -0.086 HD
ENDROOT
BRANCH  11  15
ATOM     15  C   UNL     1       6.831 -10.248   2.875  0.00  0.00    +0.087 A 
ATOM     16  C   UNL     1       6.256 -11.401   3.583  0.00  0.00    +0.058 A 
ATOM     17  C   UNL     1       7.262 -12.273   3.747  0.00  0.00    +0.103 A 
ATOM     18  O   UNL     1       8.380 -11.761   3.208  0.00  0.00    -0.455 OA
ATOM     19  C   UNL     1       8.145 -10.557   2.678  0.00  0.00    +0.220 A 
ATOM     20  C   UNL     1       7.154 -13.614   4.426  0.00  0.00    +0.086 C 
BRANCH  19  21
ATOM     21  C   UNL     1       9.161  -9.686   1.984  0.00  0.00    +0.451 C 
ATOM     22  F   UNL     1       9.780  -8.853   2.923  0.00  0.00    -0.163 F 
ATOM     23  F   UNL     1      10.125 -10.493   1.370  0.00  0.00    -0.163 F 
ATOM     24  F   UNL     1       8.522  -8.905   1.017  0.00  0.00    -0.163 F 
ENDBRANCH  19  21
ENDBRANCH  11  15
BRANCH   1  26
ATOM     25  N   UNL     1       1.044  -6.219   4.251  0.00  0.00    -0.309 N 
ATOM     26  C   UNL     1       1.765  -6.968   3.394  0.00  0.00    +0.219 C 
ATOM     27  O   UNL     1       1.263  -7.364   2.363  0.00  0.00    -0.275 OA
ATOM     28  H   UNL     1       1.446  -5.902   5.075  0.00  0.00    +0.149 HD
BRANCH  25  29
ATOM     29  C   UNL     1      -0.347  -5.883   3.938  0.00  0.00    +0.159 C 
BRANCH  29  36
ATOM     30  C   UNL     1      -3.471  -3.115  10.056  0.00  0.00    +0.044 C 
ATOM     31  C   UNL     1      -2.799  -3.208   8.711  0.00  0.00    -0.046 A 
ATOM     32  C   UNL     1      -2.480  -2.039   7.999  0.00  0.00    +0.021 A 
ATOM     33  C   UNL     1      -1.878  -2.119   6.794  0.00  0.00    +0.093 A 
ATOM     34  N   UNL     1      -1.571  -3.332   6.249  0.00  0.00    -0.308 N 
ATOM     35  C   UNL     1      -0.975  -3.694   5.072  0.00  0.00    +0.115 A 
ATOM     36  C   UNL     1      -0.924  -5.044   5.049  0.00  0.00    +0.051 A 
ATOM     37  N   UNL     1      -1.469  -5.510   6.175  0.00  0.00    -0.342 N 
ATOM     38  C   UNL     1      -1.870  -4.490   6.920  0.00  0.00    +0.116 A 
ATOM     39  C   UNL     1      -2.493  -4.423   8.182  0.00  0.00    +0.048 A 
ATOM     40  H   UNL     1      -1.559  -6.447   6.410  0.00  0.00    +0.167 HD
ENDBRANCH  29  36
ENDBRANCH  25  29
ENDBRANCH   1  26
TORSDOF 5
