REMARK  Name = ZINC44973531
REMARK  8 active torsions:
REMARK  status: ('A' for Active; 'I' for Inactive)
REMARK    1  A    between atoms: C_1  and  C_2
REMARK    2  A    between atoms: C_2  and  C_3
REMARK    3  A    between atoms: C_3  and  S_4
REMARK    4  A    between atoms: S_4  and  C_5
REMARK    5  A    between atoms: C_14  and  C_16
REMARK    6  A    between atoms: C_19  and  N_22
REMARK    7  A    between atoms: C_28  and  C_30
REMARK    8  A    between atoms: C_28  and  C_31
REMARK                            x       y       z     vdW  Elec       q    Type
REMARK                         _______ _______ _______ _____ _____    ______ ____
ROOT
ATOM      1  C   UNL     1      -3.112  -2.797   0.017  0.00  0.00    +0.192 A 
ATOM      2  N   UNL     1      -4.031  -1.842   0.025  0.00  0.00    -0.207 NA
ATOM      3  C   UNL     1      -5.328  -2.142   0.037  0.00  0.00    +0.126 A 
ATOM      4  C   UNL     1      -5.709  -3.482   0.040  0.00  0.00    +0.044 A 
ATOM      5  C   UNL     1      -4.718  -4.453   0.028  0.00  0.00    +0.133 A 
ATOM      6  N   UNL     1      -3.441  -4.081   0.013  0.00  0.00    -0.206 NA
ATOM      7  N   UNL     1      -5.069  -5.792   0.024  0.00  0.00    -0.302 N 
ATOM      8  C   UNL     1      -6.325  -6.179  -0.354  0.00  0.00    +0.017 C 
ATOM      9  C   UNL     1      -7.350  -5.301  -0.365  0.00  0.00    +0.024 C 
ATOM     10  C   UNL     1      -7.157  -3.865   0.057  0.00  0.00    +0.090 C 
ATOM     11  C   UNL     1      -8.637  -5.696  -0.772  0.00  0.00    +0.162 C 
ATOM     12  O   UNL     1      -9.540  -4.882  -0.763  0.00  0.00    -0.292 OA
ATOM     13  C   UNL     1      -8.918  -7.103  -1.220  0.00  0.00    +0.086 C 
ATOM     14  C   UNL     1      -7.638  -7.705  -1.810  0.00  0.00    -0.023 C 
ATOM     15  C   UNL     1      -6.533  -7.620  -0.756  0.00  0.00    +0.058 C 
ATOM     16  C   UNL     1      -7.225  -6.916  -3.055  0.00  0.00    +0.011 C 
ATOM     17  C   UNL     1      -7.882  -9.168  -2.185  0.00  0.00    +0.011 C 
ATOM     18  N   UNL     1      -6.284  -1.138   0.047  0.00  0.00    -0.343 N 
ATOM     19  H   UNL     1      -4.419  -6.461   0.291  0.00  0.00    +0.153 HD
ATOM     20  H   UNL     1      -6.010  -0.208   0.046  0.00  0.00    +0.144 HD
ATOM     21  H   UNL     1      -7.226  -1.366   0.056  0.00  0.00    +0.144 HD
ENDROOT
BRANCH  10  22
ATOM     22  C   UNL     1      -7.699  -3.683   1.451  0.00  0.00    -0.035 A 
ATOM     23  C   UNL     1      -7.145  -4.385   2.505  0.00  0.00    +0.007 A 
ATOM     24  C   UNL     1      -7.642  -4.218   3.784  0.00  0.00    +0.033 A 
ATOM     25  C   UNL     1      -8.694  -3.349   4.009  0.00  0.00    +0.126 A 
ATOM     26  C   UNL     1      -9.247  -2.646   2.955  0.00  0.00    +0.033 A 
ATOM     27  C   UNL     1      -8.747  -2.810   1.677  0.00  0.00    +0.007 A 
BRANCH  25  28
ATOM     28  N   UNL     1      -9.227  -3.171   5.378  0.00  0.00    +0.056 N 
ATOM     29  O   UNL     1      -8.743  -3.785   6.300  0.00  0.00    -0.126 OA
ATOM     30  O   UNL     1     -10.146  -2.410   5.575  0.00  0.00    -0.126 OA
ENDBRANCH  25  28
ENDBRANCH  10  22
BRANCH   1  31
ATOM     31  S   UNL     1      -1.409  -2.348   0.003  0.00  0.00    -0.086 S 
BRANCH  31  32
ATOM     32  C   UNL     1      -1.433  -0.534   0.013  0.00  0.00    +0.077 C 
BRANCH  32  34
ATOM     33  C   UNL     1      -0.019   1.526   0.010  0.00  0.00    +0.004 C 
ATOM     34  C   UNL     1       0.002  -0.004   0.002  0.00  0.00    +0.008 C 
ENDBRANCH  32  34
ENDBRANCH  31  32
ENDBRANCH   1  31
TORSDOF 5
