REMARK  Name = ZINC14548008
REMARK  7 active torsions:
REMARK  status: ('A' for Active; 'I' for Inactive)
REMARK    1  A    between atoms: C_1  and  C_2
REMARK    2  A    between atoms: C_2  and  C_3
REMARK    3  A    between atoms: C_2  and  N_4
REMARK    4  A    between atoms: N_4  and  S_5
REMARK    5  A    between atoms: S_5  and  C_8
REMARK    6  A    between atoms: C_21  and  C_24
REMARK    7  A    between atoms: C_33  and  O_34
REMARK                            x       y       z     vdW  Elec       q    Type
REMARK                         _______ _______ _______ _____ _____    ______ ____
ROOT
ATOM      1  C   UNL     1       7.365   5.447  -0.620  0.00  0.00    +0.106 A 
ATOM      2  C   UNL     1       6.804   5.723  -1.853  0.00  0.00    +0.030 A 
ATOM      3  C   UNL     1       5.439   5.899  -1.960  0.00  0.00    +0.025 A 
ATOM      4  C   UNL     1       4.634   5.798  -0.832  0.00  0.00    +0.031 A 
ATOM      5  C   UNL     1       5.193   5.522   0.407  0.00  0.00    -0.018 A 
ATOM      6  C   UNL     1       6.567   5.347   0.501  0.00  0.00    +0.034 A 
ATOM      7  C   UNL     1       4.368   5.407   1.649  0.00  0.00    +0.049 C 
ATOM      8  C   UNL     1       4.212   3.967   2.077  0.00  0.00    -0.023 C 
ATOM      9  C   UNL     1       3.016   3.768   2.575  0.00  0.00    -0.030 C 
ATOM     10  C   UNL     1       2.211   5.053   2.552  0.00  0.00    +0.033 C 
ATOM     11  C   UNL     1       2.922   5.905   1.460  0.00  0.00    +0.029 C 
ATOM     12  C   UNL     1       2.385   5.444   0.102  0.00  0.00    +0.109 C 
ATOM     13  N   UNL     1       3.252   5.973  -0.956  0.00  0.00    -0.336 N 
ATOM     14  H   UNL     1       2.877   6.433  -1.723  0.00  0.00    +0.147 HD
ENDROOT
BRANCH  12  15
ATOM     15  C   UNL     1       2.380   3.938   0.045  0.00  0.00    +0.022 A 
ATOM     16  C   UNL     1       1.283   3.216   0.541  0.00  0.00    -0.009 A 
ATOM     17  C   UNL     1       0.170   3.871   1.097  0.00  0.00    +0.009 A 
ATOM     18  C   UNL     1      -0.876   3.139   1.569  0.00  0.00    +0.001 A 
ATOM     19  C   UNL     1      -0.865   1.747   1.504  0.00  0.00    +0.001 A 
ATOM     20  C   UNL     1       0.197   1.079   0.977  0.00  0.00    +0.008 A 
ATOM     21  C   UNL     1       1.296   1.800   0.480  0.00  0.00    -0.017 A 
ATOM     22  C   UNL     1       2.408   1.143  -0.077  0.00  0.00    +0.012 A 
ATOM     23  C   UNL     1       3.454   1.871  -0.549  0.00  0.00    +0.046 A 
ATOM     24  C   UNL     1       3.443   3.268  -0.490  0.00  0.00    +0.122 A 
BRANCH  24  25
ATOM     25  O   UNL     1       4.505   3.968  -0.970  0.00  0.00    -0.506 OA
ATOM     26  H   UNL     1       4.487   4.103  -1.927  0.00  0.00    +0.292 HD
ENDBRANCH  24  25
ENDBRANCH  12  15
BRANCH   1  27
ATOM     27  S   UNL     1       9.107   5.221  -0.480  0.00  0.00    +0.059 S 
ATOM     28  O   UNL     1       9.322   4.434   0.684  0.00  0.00    -0.153 OA
ATOM     29  O   UNL     1       9.570   4.825  -1.763  0.00  0.00    -0.153 OA
BRANCH  27  30
ATOM     30  N   UNL     1       9.770   6.708  -0.175  0.00  0.00    -0.187 NA
ATOM     31  H   UNL     1      10.364   7.116  -0.825  0.00  0.00    +0.148 HD
BRANCH  30  33
ATOM     32  C   UNL     1      10.553   7.113   2.106  0.00  0.00    +0.025 C 
ATOM     33  C   UNL     1       9.461   7.406   1.075  0.00  0.00    +0.070 C 
ATOM     34  C   UNL     1       9.396   8.912   0.816  0.00  0.00    +0.025 C 
ENDBRANCH  30  33
ENDBRANCH  27  30
ENDBRANCH   1  27
TORSDOF 5
