REMARK  Name = ZINC19810632
REMARK  5 active torsions:
REMARK  status: ('A' for Active; 'I' for Inactive)
REMARK    1  A    between atoms: C_5  and  C_7
REMARK    2  A    between atoms: C_7  and  C_8
REMARK    3  A    between atoms: C_10  and  C_13
REMARK    4  A    between atoms: C_13  and  N_14
REMARK    5  A    between atoms: C_18  and  C_19
REMARK                            x       y       z     vdW  Elec       q    Type
REMARK                         _______ _______ _______ _____ _____    ______ ____
ROOT
ATOM      1  N   UNL     1       3.715  -2.568   5.033  0.00  0.00    +0.392 N 
ATOM      2  C   UNL     1       2.555  -2.141   5.844  0.00  0.00    -0.077 C 
ATOM      3  C   UNL     1       2.775  -2.802   7.228  0.00  0.00    -0.020 C 
ATOM      4  C   UNL     1       4.315  -2.697   7.385  0.00  0.00    -0.010 C 
ATOM      5  C   UNL     1       4.826  -2.905   5.943  0.00  0.00    -0.000 C 
ATOM      6  H   UNL     1       3.994  -1.816   4.421  0.00  0.00    -0.080 HD
ENDROOT
BRANCH   5   7
ATOM      7  C   UNL     1       5.998  -1.996   5.679  0.00  0.00    +0.095 A 
ATOM      8  N   UNL     1       5.917  -0.807   5.156  0.00  0.00    -0.234 NA
ATOM      9  H   UNL     1       7.622  -3.119   6.355  0.00  0.00    +0.167 HD
ATOM     10  C   UNL     1       7.159  -0.266   5.059  0.00  0.00    +0.090 A 
ATOM     11  C   UNL     1       7.642   0.956   4.583  0.00  0.00    +0.050 A 
ATOM     12  C   UNL     1       8.993   1.217   4.619  0.00  0.00    +0.043 A 
ATOM     13  C   UNL     1       9.880   0.275   5.123  0.00  0.00    +0.022 A 
ATOM     14  C   UNL     1       9.420  -0.935   5.596  0.00  0.00    +0.029 A 
ATOM     15  C   UNL     1       8.061  -1.215   5.568  0.00  0.00    +0.066 A 
ATOM     16  N   UNL     1       7.295  -2.297   5.958  0.00  0.00    -0.343 N 
ATOM     17 CL   UNL     1       9.593   2.735   4.028  0.00  0.00    -0.083 Cl
ENDBRANCH   5   7
BRANCH   1  18
ATOM     18  C   UNL     1       3.354  -3.748   4.237  0.00  0.00    +0.023 C 
BRANCH  18  21
ATOM     19  C   UNL     1       1.372  -2.695   1.389  0.00  0.00    +0.176 A 
ATOM     20  N   UNL     1       2.530  -2.937   2.014  0.00  0.00    -0.197 NA
ATOM     21  C   UNL     1       2.304  -3.368   3.224  0.00  0.00    +0.211 A 
ATOM     22  O   UNL     1       0.979  -3.415   3.412  0.00  0.00    -0.340 OA
ATOM     23  N   UNL     1       0.391  -2.965   2.201  0.00  0.00    -0.061 NA
BRANCH  19  24
ATOM     24  C   UNL     1       1.228  -2.186  -0.022  0.00  0.00    +0.117 C 
BRANCH  24  29
ATOM     25  C   UNL     1      -0.017   1.378   0.010  0.00  0.00    +0.000 A 
ATOM     26  C   UNL     1       1.171   2.087   0.002  0.00  0.00    +0.003 A 
ATOM     27  C   UNL     1       2.377   1.414  -0.013  0.00  0.00    +0.038 A 
ATOM     28  C   UNL     1       2.397   0.029  -0.021  0.00  0.00    +0.127 A 
ATOM     29  C   UNL     1       1.208  -0.679  -0.013  0.00  0.00    -0.005 A 
ATOM     30  C   UNL     1       0.002  -0.004   0.002  0.00  0.00    +0.007 A 
ATOM     31  F   UNL     1       3.577  -0.630  -0.036  0.00  0.00    -0.205 F 
ENDBRANCH  24  29
ENDBRANCH  19  24
ENDBRANCH  18  21
ENDBRANCH   1  18
TORSDOF 5
