REMARK  Name = ZINC42767400
REMARK  7 active torsions:
REMARK  status: ('A' for Active; 'I' for Inactive)
REMARK    1  A    between atoms: C_1  and  C_2
REMARK    2  A    between atoms: C_2  and  N_3
REMARK    3  A    between atoms: N_3  and  C_4
REMARK    4  A    between atoms: N_3  and  C_9
REMARK    5  A    between atoms: C_4  and  C_5
REMARK    6  A    between atoms: C_12  and  C_19
REMARK    7  A    between atoms: C_13  and  C_15
REMARK                            x       y       z     vdW  Elec       q    Type
REMARK                         _______ _______ _______ _____ _____    ______ ____
ROOT
ATOM      1  C   UNL     1      -0.001  -0.845  -2.446  0.00  0.00    +0.030 A 
ATOM      2  C   UNL     1      -1.359  -0.538  -2.414  0.00  0.00    +0.024 A 
ATOM      3  C   UNL     1      -2.099  -0.567  -3.574  0.00  0.00    +0.013 A 
ATOM      4  C   UNL     1      -1.486  -0.904  -4.784  0.00  0.00    +0.024 A 
ATOM      5  C   UNL     1      -0.124  -1.211  -4.813  0.00  0.00    +0.067 A 
ATOM      6  C   UNL     1       0.613  -1.176  -3.650  0.00  0.00    +0.036 A 
ENDROOT
BRANCH   4   7
ATOM      7  C   UNL     1      -2.278  -0.935  -6.030  0.00  0.00    +0.095 C 
ATOM      8  N   UNL     1      -2.346  -2.056  -6.748  0.00  0.00    -0.387 N 
ATOM      9  N   UNL     1      -2.924   0.157  -6.437  0.00  0.00    -0.345 N 
ATOM     10  H   UNL     1      -1.951  -2.874  -6.409  0.00  0.00    +0.157 HD
ATOM     11  H   UNL     1      -2.875   0.973  -5.915  0.00  0.00    +0.144 HD
ATOM     12  H   UNL     1      -3.445   0.137  -7.256  0.00  0.00    +0.144 HD
ATOM     13  H   UNL     1      -2.792  -2.054  -7.610  0.00  0.00    +0.157 HD
ENDBRANCH   4   7
BRANCH   5  14
ATOM     14  C   UNL     1       0.540  -1.576  -6.116  0.00  0.00    +0.418 C 
ATOM     15  F   UNL     1       1.919  -1.704  -5.917  0.00  0.00    -0.166 F 
ATOM     16  F   UNL     1       0.021  -2.789  -6.580  0.00  0.00    -0.166 F 
ATOM     17  F   UNL     1       0.297  -0.572  -7.060  0.00  0.00    -0.166 F 
ENDBRANCH   5  14
BRANCH   1  18
ATOM     18  N   UNL     1       0.745  -0.816  -1.272  0.00  0.00    -0.322 N 
BRANCH  18  20
ATOM     19  C   UNL     1       0.179   1.045   0.211  0.00  0.00    +0.024 C 
ATOM     20  C   UNL     1       0.100  -0.468  -0.003  0.00  0.00    +0.102 C 
ENDBRANCH  18  20
BRANCH  18  21
ATOM     21  C   UNL     1       2.175  -1.133  -1.304  0.00  0.00    +0.218 C 
BRANCH  21  22
ATOM     22  C   UNL     1       2.369  -2.635  -1.088  0.00  0.00    +0.405 C 
ATOM     23  F   UNL     1       1.712  -3.341  -2.101  0.00  0.00    -0.169 F 
ATOM     24  F   UNL     1       3.735  -2.937  -1.119  0.00  0.00    -0.169 F 
ATOM     25  F   UNL     1       1.839  -2.999   0.154  0.00  0.00    -0.169 F 
ENDBRANCH  21  22
ENDBRANCH  18  21
ENDBRANCH   1  18
TORSDOF 6
