REMARK  Name = ZINC18659670
REMARK  10 active torsions:
REMARK  status: ('A' for Active; 'I' for Inactive)
REMARK    1  A    between atoms: C_1  and  C_2
REMARK    2  A    between atoms: C_2  and  C_3
REMARK    3  A    between atoms: C_2  and  C_4
REMARK    4  A    between atoms: C_2  and  N_5
REMARK    5  A    between atoms: C_9  and  C_11
REMARK    6  A    between atoms: C_11  and  O_12
REMARK    7  A    between atoms: O_12  and  C_13
REMARK    8  A    between atoms: C_13  and  C_15
REMARK    9  A    between atoms: C_18  and  C_21
REMARK   10  A    between atoms: C_21  and  N_22
REMARK                            x       y       z     vdW  Elec       q    Type
REMARK                         _______ _______ _______ _____ _____    ______ ____
ROOT
ATOM      1  C   UNL     1       3.704  -1.685  -5.467  0.00  0.00    +0.340 C 
ATOM      2  O   UNL     1       4.751  -1.481  -6.049  0.00  0.00    -0.245 OA
ENDROOT
BRANCH   1   3
ATOM      3  C   UNL     1       3.536  -1.234  -4.070  0.00  0.00    +0.059 A 
ATOM      4  C   UNL     1       4.578  -0.575  -3.416  0.00  0.00    +0.015 A 
ATOM      5  C   UNL     1       4.414  -0.157  -2.111  0.00  0.00    +0.006 A 
ATOM      6  C   UNL     1       3.220  -0.390  -1.452  0.00  0.00    -0.026 A 
ATOM      7  C   UNL     1       2.185  -1.047  -2.093  0.00  0.00    +0.006 A 
ATOM      8  C   UNL     1       2.334  -1.466  -3.399  0.00  0.00    +0.015 A 
BRANCH   6   9
ATOM      9  C   UNL     1       3.048   0.070  -0.027  0.00  0.00    +0.181 C 
BRANCH   9  10
ATOM     10  N   UNL     1       2.508   1.431  -0.014  0.00  0.00    -0.240 N 
ATOM     11  C   UNL     1       1.181   1.790   0.000  0.00  0.00    +0.089 A 
ATOM     12  C   UNL     1      -0.013   1.076   0.008  0.00  0.00    +0.029 A 
ATOM     13  C   UNL     1      -1.204   1.745   0.017  0.00  0.00    +0.002 A 
ATOM     14  C   UNL     1      -1.235   3.134   0.030  0.00  0.00    +0.002 A 
ATOM     15  C   UNL     1      -0.078   3.857   0.023  0.00  0.00    +0.032 A 
ATOM     16  C   UNL     1       1.157   3.195   0.008  0.00  0.00    +0.113 A 
ATOM     17  N   UNL     1       2.434   3.626  -0.002  0.00  0.00    -0.129 NA
ATOM     18  N   UNL     1       3.243   2.626  -0.015  0.00  0.00    -0.064 NA
ENDBRANCH   9  10
ENDBRANCH   6   9
ENDBRANCH   1   3
BRANCH   1  19
ATOM     19  O   UNL     1       2.697  -2.321  -6.096  0.00  0.00    -0.452 OA
BRANCH  19  20
ATOM     20  C   UNL     1       2.933  -2.734  -7.468  0.00  0.00    +0.328 C 
BRANCH  20  25
ATOM     21  N   UNL     1       0.582  -4.985 -11.005  0.00  0.00    -0.294 N 
ATOM     22  C   UNL     1       0.594  -4.513  -9.743  0.00  0.00    +0.306 C 
ATOM     23  O   UNL     1      -0.387  -4.643  -9.036  0.00  0.00    -0.252 OA
ATOM     24  N   UNL     1       1.692  -3.896  -9.265  0.00  0.00    -0.237 N 
ATOM     25  C   UNL     1       1.704  -3.424  -8.002  0.00  0.00    +0.258 C 
ATOM     26  O   UNL     1       0.726  -3.554  -7.297  0.00  0.00    -0.272 OA
ATOM     27  H   UNL     1       1.364  -4.881 -11.569  0.00  0.00    +0.151 HD
ATOM     28  H   UNL     1       2.474  -3.792  -9.829  0.00  0.00    +0.159 HD
BRANCH  21  30
ATOM     29  C   UNL     1      -1.799  -4.691 -11.480  0.00  0.00    +0.031 C 
ATOM     30  C   UNL     1      -0.613  -5.656 -11.525  0.00  0.00    +0.028 C 
ATOM     31  C   UNL     1      -0.364  -6.092 -12.971  0.00  0.00    +0.031 C 
ATOM     32  C   UNL     1      -0.922  -6.885 -10.668  0.00  0.00    +0.031 C 
ENDBRANCH  21  30
ENDBRANCH  20  25
ENDBRANCH  19  20
ENDBRANCH   1  19
TORSDOF 7
