REMARK  Name = ZINC40794851
REMARK  9 active torsions:
REMARK  status: ('A' for Active; 'I' for Inactive)
REMARK    1  A    between atoms: C_1  and  C_2
REMARK    2  A    between atoms: C_2  and  O_3
REMARK    3  A    between atoms: O_3  and  C_4
REMARK    4  A    between atoms: C_5  and  N_27
REMARK    5  A    between atoms: C_6  and  N_10
REMARK    6  A    between atoms: N_10  and  N_11
REMARK    7  A    between atoms: C_12  and  C_14
REMARK    8  A    between atoms: C_14  and  C_15
REMARK    9  A    between atoms: C_14  and  C_21
REMARK                            x       y       z     vdW  Elec       q    Type
REMARK                         _______ _______ _______ _____ _____    ______ ____
ROOT
ATOM      1  N   UNL     1       2.307  -6.442  -2.946  0.00  0.00    -0.235 N 
ATOM      2  C   UNL     1       2.793  -6.459  -4.202  0.00  0.00    +0.241 C 
ATOM      3  O   UNL     1       3.143  -5.426  -4.731  0.00  0.00    -0.273 OA
ATOM      4  H   UNL     1       2.026  -7.268  -2.522  0.00  0.00    +0.173 HD
ENDROOT
BRANCH   1   5
ATOM      5  N   UNL     1       2.207  -5.230  -2.250  0.00  0.00    -0.247 N 
ATOM      6  H   UNL     1       2.488  -4.403  -2.673  0.00  0.00    +0.172 HD
BRANCH   5   9
ATOM      7  C   UNL     1       1.092  -4.047   1.046  0.00  0.00    +0.241 A 
ATOM      8  C   UNL     1       1.602  -4.009  -0.250  0.00  0.00    +0.129 A 
ATOM      9  C   UNL     1       1.706  -5.212  -0.954  0.00  0.00    +0.163 A 
ATOM     10  N   UNL     1       1.318  -6.339  -0.364  0.00  0.00    -0.217 NA
ATOM     11  C   UNL     1       0.842  -6.330   0.865  0.00  0.00    +0.227 A 
ATOM     12  N   UNL     1       0.732  -5.218   1.563  0.00  0.00    -0.200 NA
BRANCH   8  13
ATOM     13  N   UNL     1       1.999  -2.795  -0.834  0.00  0.00    -0.351 N 
ATOM     14  H   UNL     1       1.921  -1.968  -0.333  0.00  0.00    +0.143 HD
ATOM     15  H   UNL     1       2.352  -2.784  -1.737  0.00  0.00    +0.143 HD
ENDBRANCH   8  13
BRANCH   7  16
ATOM     16  O   UNL     1       0.971  -2.907   1.772  0.00  0.00    -0.475 OA
BRANCH  16  18
ATOM     17  C   UNL     1       0.384  -1.654   3.753  0.00  0.00    +0.048 C 
ATOM     18  C   UNL     1       0.446  -3.034   3.095  0.00  0.00    +0.227 C 
ENDBRANCH  16  18
ENDBRANCH   7  16
ENDBRANCH   5   9
ENDBRANCH   1   5
BRANCH   2  19
ATOM     19  C   UNL     1       2.900  -7.763  -4.951  0.00  0.00    +0.136 C 
BRANCH  19  20
ATOM     20  C   UNL     1       1.532  -8.382  -5.080  0.00  0.00    -0.031 A 
ATOM     21  C   UNL     1       0.479  -7.634  -5.574  0.00  0.00    +0.005 A 
ATOM     22  C   UNL     1      -0.776  -8.202  -5.693  0.00  0.00    +0.000 A 
ATOM     23  C   UNL     1      -0.978  -9.517  -5.319  0.00  0.00    +0.000 A 
ATOM     24  C   UNL     1       0.075 -10.265  -4.826  0.00  0.00    +0.000 A 
ATOM     25  C   UNL     1       1.331  -9.699  -4.711  0.00  0.00    +0.005 A 
ENDBRANCH  19  20
BRANCH  19  26
ATOM     26  C   UNL     1       3.469  -7.509  -6.323  0.00  0.00    -0.031 A 
ATOM     27  C   UNL     1       2.889  -6.563  -7.147  0.00  0.00    +0.005 A 
ATOM     28  C   UNL     1       3.410  -6.331  -8.406  0.00  0.00    +0.000 A 
ATOM     29  C   UNL     1       4.512  -7.044  -8.840  0.00  0.00    +0.000 A 
ATOM     30  C   UNL     1       5.093  -7.989  -8.016  0.00  0.00    +0.000 A 
ATOM     31  C   UNL     1       4.574  -8.219  -6.755  0.00  0.00    +0.005 A 
ENDBRANCH  19  26
ENDBRANCH   2  19
TORSDOF 8
