REMARK  Name = ZINC04158755
REMARK  3 active torsions:
REMARK  status: ('A' for Active; 'I' for Inactive)
REMARK    1  A    between atoms: C_4  and  C_7
REMARK    2  A    between atoms: N_14  and  N_15
REMARK    3  A    between atoms: C_16  and  C_17
REMARK                            x       y       z     vdW  Elec       q    Type
REMARK                         _______ _______ _______ _____ _____    ______ ____
ROOT
ATOM      1  C   UNL     1       1.169   2.990   0.007  0.00  0.00    +0.159 A 
ATOM      2  C   UNL     1      -0.137   3.671   0.023  0.00  0.00    +0.301 A 
ATOM      3  O   UNL     1      -0.197   4.890   0.031  0.00  0.00    -0.263 OA
ATOM      4  N   UNL     1      -1.257   2.940   0.030  0.00  0.00    -0.171 NA
ATOM      5  C   UNL     1      -1.200   1.622   0.017  0.00  0.00    +0.258 A 
ATOM      6  N   UNL     1      -0.011   0.966   0.007  0.00  0.00    -0.111 NA
ATOM      7  N   UNL     1       1.197   1.676  -0.000  0.00  0.00    -0.140 NA
ATOM      8  N   UNL     1      -2.365   0.900   0.018  0.00  0.00    -0.204 N 
ATOM      9  H   UNL     1      -2.331  -0.200   0.012  0.00  0.00    +0.177 HD
ENDROOT
BRANCH   1  13
ATOM     10  C   UNL     1       4.780   5.233  -0.018  0.00  0.00    +0.000 A 
ATOM     11  C   UNL     1       4.720   4.031   0.665  0.00  0.00    +0.001 A 
ATOM     12  C   UNL     1       3.550   3.299   0.677  0.00  0.00    +0.010 A 
ATOM     13  C   UNL     1       2.428   3.772  -0.001  0.00  0.00    +0.008 A 
ATOM     14  C   UNL     1       2.496   4.982  -0.692  0.00  0.00    +0.010 A 
ATOM     15  C   UNL     1       3.670   5.708  -0.692  0.00  0.00    +0.001 A 
ENDBRANCH   1  13
BRANCH   8  16
ATOM     16  N   UNL     1      -3.599   1.562   0.028  0.00  0.00    -0.187 NA
ATOM     17  C   UNL     1      -4.703   0.879   0.029  0.00  0.00    +0.138 C 
BRANCH  17  18
ATOM     18  C   UNL     1      -6.002   1.576   0.039  0.00  0.00    -0.005 A 
ATOM     19  C   UNL     1      -6.049   2.972   0.053  0.00  0.00    +0.010 A 
ATOM     20  C   UNL     1      -7.268   3.618   0.056  0.00  0.00    +0.016 A 
ATOM     21  C   UNL     1      -8.443   2.885   0.058  0.00  0.00    +0.018 A 
ATOM     22  C   UNL     1      -8.403   1.502   0.050  0.00  0.00    +0.016 A 
ATOM     23  C   UNL     1      -7.191   0.843   0.041  0.00  0.00    +0.010 A 
ATOM     24 BR   UNL     1     -10.109   3.780   0.070  0.00  0.00    -0.050 Br
ENDBRANCH  17  18
ENDBRANCH   8  16
TORSDOF 3
