REMARK  Name = ZINC65964143
REMARK  4 active torsions:
REMARK  status: ('A' for Active; 'I' for Inactive)
REMARK    1  A    between atoms: C_4  and  N_7
REMARK    2  A    between atoms: C_8  and  C_10
REMARK    3  A    between atoms: N_13  and  C_16
REMARK    4  A    between atoms: C_16  and  C_17
REMARK                            x       y       z     vdW  Elec       q    Type
REMARK                         _______ _______ _______ _____ _____    ______ ____
ROOT
ATOM      1  C   UNL     1       4.130  -2.140  -3.723  0.00  0.00    +0.071 C 
ATOM      2  C   UNL     1       3.134  -2.209  -4.885  0.00  0.00    -0.006 C 
ATOM      3  C   UNL     1       3.838  -2.778  -6.119  0.00  0.00    -0.077 C 
ATOM      4  N   UNL     1       4.340  -4.125  -5.823  0.00  0.00    +0.385 N 
ATOM      5  C   UNL     1       5.348  -4.058  -4.758  0.00  0.00    -0.077 C 
ATOM      6  C   UNL     1       4.703  -3.538  -3.472  0.00  0.00    -0.006 C 
ATOM      7  H   UNL     1       3.574  -4.710  -5.523  0.00  0.00    -0.081 HD
ENDROOT
BRANCH   1   9
ATOM      8  N   UNL     1       2.839  -0.440  -2.473  0.00  0.00    -0.312 N 
ATOM      9  C   UNL     1       3.424  -1.655  -2.483  0.00  0.00    +0.216 C 
ATOM     10  O   UNL     1       3.383  -2.356  -1.495  0.00  0.00    -0.276 OA
ATOM     11  H   UNL     1       2.872   0.121  -3.264  0.00  0.00    +0.149 HD
BRANCH   8  15
ATOM     12  C   UNL     1      -0.019   1.526   0.010  0.00  0.00    +0.000 C 
ATOM     13  C   UNL     1       1.417   2.055  -0.000  0.00  0.00    +0.002 C 
ATOM     14  C   UNL     1       2.133   1.562  -1.259  0.00  0.00    +0.022 C 
ATOM     15  C   UNL     1       2.154   0.032  -1.268  0.00  0.00    +0.073 C 
ATOM     16  C   UNL     1       0.718  -0.497  -1.257  0.00  0.00    +0.022 C 
ATOM     17  C   UNL     1       0.002  -0.004   0.002  0.00  0.00    +0.002 C 
ENDBRANCH   8  15
ENDBRANCH   1   9
BRANCH   4  18
ATOM     18  C   UNL     1       4.945  -4.698  -7.033  0.00  0.00    +0.019 C 
BRANCH  18  19
ATOM     19  C   UNL     1       5.351  -6.124  -6.765  0.00  0.00    +0.199 C 
ATOM     20  O   UNL     1       5.154  -6.616  -5.674  0.00  0.00    -0.278 OA
ATOM     21  N   UNL     1       5.931  -6.854  -7.738  0.00  0.00    -0.303 N 
ATOM     22  C   UNL     1       6.180  -6.270  -9.064  0.00  0.00    +0.113 C 
ATOM     23  C   UNL     1       5.551  -7.176 -10.127  0.00  0.00    +0.084 C 
ATOM     24  C   UNL     1       6.078  -8.602  -9.955  0.00  0.00    +0.173 C 
ATOM     25  C   UNL     1       5.696  -9.135  -8.573  0.00  0.00    +0.084 C 
ATOM     26  C   UNL     1       6.332  -8.246  -7.493  0.00  0.00    +0.113 C 
ATOM     27  O   UNL     1       5.518  -9.447 -10.968  0.00  0.00    -0.346 OA
ATOM     28  C   UNL     1       6.617  -9.988 -11.729  0.00  0.00    +0.191 C 
ATOM     29  C   UNL     1       7.817  -9.847 -10.761  0.00  0.00    +0.191 C 
ATOM     30  O   UNL     1       7.509  -8.602 -10.088  0.00  0.00    -0.346 OA
ENDBRANCH  18  19
ENDBRANCH   4  18
TORSDOF 4
