REMARK  Name = ZINC47389269
REMARK  8 active torsions:
REMARK  status: ('A' for Active; 'I' for Inactive)
REMARK    1  A    between atoms: C_1  and  C_2
REMARK    2  A    between atoms: C_2  and  C_3
REMARK    3  A    between atoms: C_2  and  C_4
REMARK    4  A    between atoms: C_2  and  C_5
REMARK    5  A    between atoms: C_8  and  C_11
REMARK    6  A    between atoms: N_19  and  C_20
REMARK    7  A    between atoms: C_23  and  C_26
REMARK    8  A    between atoms: N_28  and  C_29
REMARK                            x       y       z     vdW  Elec       q    Type
REMARK                         _______ _______ _______ _____ _____    ______ ____
ROOT
ATOM      1  C   UNL     1       2.708  -1.867  -4.749  0.00  0.00    +0.108 C 
ATOM      2  C   UNL     1       3.601  -3.075  -4.393  0.00  0.00    +0.029 C 
ATOM      3  C   UNL     1       4.866  -2.838  -5.260  0.00  0.00    +0.021 C 
ATOM      4  C   UNL     1       4.981  -1.294  -5.228  0.00  0.00    +0.110 C 
ATOM      5  N   UNL     1       3.586  -0.809  -5.270  0.00  0.00    -0.278 N 
ATOM      6  C   UNL     1       3.184   0.399  -5.713  0.00  0.00    +0.307 C 
ATOM      7  O   UNL     1       2.003   0.688  -5.700  0.00  0.00    -0.252 OA
ATOM      8  N   UNL     1       4.090   1.285  -6.169  0.00  0.00    -0.269 N 
ATOM      9  H   UNL     1       5.037   1.081  -6.117  0.00  0.00    +0.156 HD
ENDROOT
BRANCH   1  13
ATOM     10  C   UNL     1       0.682  -0.482  -1.252  0.00  0.00    -0.042 A 
ATOM     11  C   UNL     1       0.019  -1.282  -2.164  0.00  0.00    +0.004 A 
ATOM     12  C   UNL     1       0.674  -1.730  -3.296  0.00  0.00    +0.006 A 
ATOM     13  C   UNL     1       1.993  -1.377  -3.516  0.00  0.00    -0.027 A 
ATOM     14  C   UNL     1       2.656  -0.577  -2.604  0.00  0.00    +0.006 A 
ATOM     15  C   UNL     1       1.999  -0.125  -1.475  0.00  0.00    +0.004 A 
BRANCH  10  17
ATOM     16  C   UNL     1      -0.059   1.537  -0.017  0.00  0.00    +0.015 C 
ATOM     17  C   UNL     1      -0.033   0.007  -0.019  0.00  0.00    -0.013 C 
ATOM     18  C   UNL     1       0.701  -0.493   1.227  0.00  0.00    +0.015 C 
ATOM     19  C   UNL     1      -1.467  -0.527  -0.015  0.00  0.00    +0.015 C 
ENDBRANCH  10  17
ENDBRANCH   1  13
BRANCH   8  20
ATOM     20  C   UNL     1       3.667   2.496  -6.715  0.00  0.00    +0.035 A 
ATOM     21  C   UNL     1       2.550   3.141  -6.193  0.00  0.00    +0.024 A 
ATOM     22  C   UNL     1       2.129   4.336  -6.730  0.00  0.00    +0.015 A 
ATOM     23  C   UNL     1       2.826   4.903  -7.801  0.00  0.00    +0.037 A 
ATOM     24  C   UNL     1       3.948   4.254  -8.322  0.00  0.00    +0.015 A 
ATOM     25  C   UNL     1       4.366   3.061  -7.777  0.00  0.00    +0.024 A 
BRANCH  23  26
ATOM     26  C   UNL     1       2.378   6.185  -8.379  0.00  0.00    +0.244 C 
ATOM     27  O   UNL     1       1.401   6.749  -7.925  0.00  0.00    -0.270 OA
ATOM     28  N   UNL     1       3.051   6.730  -9.412  0.00  0.00    -0.314 N 
ATOM     29  C   UNL     1       2.607   8.002  -9.986  0.00  0.00    +0.128 C 
ATOM     30  H   UNL     1       3.830   6.280  -9.774  0.00  0.00    +0.149 HD
ENDBRANCH  23  26
ENDBRANCH   8  20
TORSDOF 4
