REMARK  Name = ZINC67419735
REMARK  4 active torsions:
REMARK  status: ('A' for Active; 'I' for Inactive)
REMARK    1  A    between atoms: C_10  and  N_12
REMARK    2  A    between atoms: N_12  and  S_13
REMARK    3  A    between atoms: S_13  and  C_16
REMARK    4  A    between atoms: C_20  and  N_22
REMARK                            x       y       z     vdW  Elec       q    Type
REMARK                         _______ _______ _______ _____ _____    ______ ____
ROOT
ATOM      1  S   UNL     1       5.754   1.098   0.265  0.00  0.00    +0.059 S 
ATOM      2  O   UNL     1       6.565   1.534   1.347  0.00  0.00    -0.153 OA
ATOM      3  O   UNL     1       6.297   0.480  -0.893  0.00  0.00    -0.153 OA
ENDROOT
BRANCH   1   4
ATOM      4  C   UNL     1       4.856   2.509  -0.291  0.00  0.00    +0.107 A 
ATOM      5  C   UNL     1       4.308   2.522  -1.561  0.00  0.00    +0.028 A 
ATOM      6  C   UNL     1       3.603   3.627  -2.001  0.00  0.00    +0.004 A 
ATOM      7  C   UNL     1       3.444   4.722  -1.173  0.00  0.00    +0.028 A 
ATOM      8  C   UNL     1       3.994   4.711   0.102  0.00  0.00    +0.071 A 
ATOM      9  C   UNL     1       4.696   3.598   0.543  0.00  0.00    +0.056 A 
BRANCH   8  10
ATOM     10  N   UNL     1       3.834   5.821   0.945  0.00  0.00    -0.200 N 
ATOM     11  C   UNL     1       3.099   6.929   0.712  0.00  0.00    +0.250 A 
ATOM     12  N   UNL     1       3.229   7.708   1.754  0.00  0.00    -0.116 NA
ATOM     13  N   UNL     1       3.996   7.167   2.630  0.00  0.00    -0.023 NA
ATOM     14  N   UNL     1       4.401   6.015   2.217  0.00  0.00    -0.039 NA
ENDBRANCH   8  10
ENDBRANCH   1   4
BRANCH   1  15
ATOM     15  N   UNL     1       4.652   0.035   0.897  0.00  0.00    -0.183 NA
ATOM     16  H   UNL     1       4.672  -0.178   1.843  0.00  0.00    +0.149 HD
BRANCH  15  26
ATOM     17  C   UNL     1      -0.021  -0.840   2.209  0.00  0.00    +0.000 A 
ATOM     18  C   UNL     1       0.774   0.289   2.291  0.00  0.00    +0.000 A 
ATOM     19  C   UNL     1       1.954   0.348   1.580  0.00  0.00    +0.005 A 
ATOM     20  C   UNL     1       2.352  -0.718   0.783  0.00  0.00    -0.026 A 
ATOM     21  C   UNL     1       1.564  -1.843   0.705  0.00  0.00    -0.043 A 
ATOM     22  C   UNL     1       0.373  -1.900   1.420  0.00  0.00    +0.004 A 
ATOM     23  C   UNL     1       1.941  -3.042  -0.125  0.00  0.00    +0.035 C 
ATOM     24  C   UNL     1       3.006  -2.669  -1.154  0.00  0.00    +0.007 C 
ATOM     25  C   UNL     1       4.150  -1.952  -0.427  0.00  0.00    +0.025 C 
ATOM     26  C   UNL     1       3.648  -0.583   0.027  0.00  0.00    +0.107 C 
ENDBRANCH  15  26
ENDBRANCH   1  15
TORSDOF 4
