REMARK  Name = ZINC28296996
REMARK  5 active torsions:
REMARK  status: ('A' for Active; 'I' for Inactive)
REMARK    1  A    between atoms: C_5  and  C_7
REMARK    2  A    between atoms: N_11  and  C_15
REMARK    3  A    between atoms: C_15  and  C_16
REMARK    4  A    between atoms: N_18  and  C_19
REMARK    5  A    between atoms: C_19  and  C_20
REMARK                            x       y       z     vdW  Elec       q    Type
REMARK                         _______ _______ _______ _____ _____    ______ ____
ROOT
ATOM      1  C   UNL     1     -11.345   6.559  -2.949  0.00  0.00    +0.029 C 
ATOM      2  C   UNL     1     -10.704   5.415  -3.294  0.00  0.00    +0.077 C 
ATOM      3  C   UNL     1      -9.310   5.214  -3.743  0.00  0.00    +0.259 C 
ATOM      4  O   UNL     1      -8.534   6.145  -3.856  0.00  0.00    -0.269 OA
ATOM      5  N   UNL     1      -8.950   3.971  -4.016  0.00  0.00    -0.246 N 
ATOM      6  C   UNL     1      -9.814   2.943  -3.894  0.00  0.00    +0.121 C 
ATOM      7  S   UNL     1      -9.540   1.282  -4.202  0.00  0.00    -0.027 S 
ATOM      8  S   UNL     1     -11.312   3.734  -3.330  0.00  0.00    -0.061 S 
ENDROOT
BRANCH   1  13
ATOM      9  C   UNL     1      -8.633   9.013  -2.128  0.00  0.00    +0.001 A 
ATOM     10  C   UNL     1      -9.176  10.188  -2.619  0.00  0.00    +0.001 A 
ATOM     11  C   UNL     1     -10.424  10.185  -3.217  0.00  0.00    +0.020 A 
ATOM     12  C   UNL     1     -11.134   9.008  -3.335  0.00  0.00    +0.048 A 
ATOM     13  C   UNL     1     -10.594   7.817  -2.835  0.00  0.00    -0.005 A 
ATOM     14  C   UNL     1      -9.331   7.829  -2.231  0.00  0.00    +0.009 A 
ATOM     15 CL   UNL     1     -12.696   9.005  -4.092  0.00  0.00    -0.083 Cl
ENDBRANCH   1  13
BRANCH   5  16
ATOM     16  C   UNL     1      -7.581   3.706  -4.466  0.00  0.00    +0.210 C 
BRANCH  16  17
ATOM     17  C   UNL     1      -6.702   3.438  -3.271  0.00  0.00    +0.231 C 
ATOM     18  O   UNL     1      -7.173   3.466  -2.154  0.00  0.00    -0.274 OA
ATOM     19  N   UNL     1      -5.393   3.167  -3.445  0.00  0.00    -0.308 N 
ATOM     20  H   UNL     1      -4.966   3.142  -4.458  0.00  0.00    +0.149 HD
BRANCH  19  21
ATOM     21  C   UNL     1      -4.539   2.907  -2.284  0.00  0.00    +0.169 C 
BRANCH  21  22
ATOM     22  C   UNL     1      -3.131   2.634  -2.747  0.00  0.00    +0.121 A 
ATOM     23  N   UNL     1      -2.128   3.465  -2.942  0.00  0.00    -0.143 NA
ATOM     24  N   UNL     1      -0.995   3.072  -3.331  0.00  0.00    -0.126 NA
ATOM     25  C   UNL     1      -0.746   1.793  -3.580  0.00  0.00    +0.179 A 
ATOM     26  S   UNL     1      -2.345   1.087  -3.188  0.00  0.00    -0.034 S 
ATOM     27  N   UNL     1       0.419   1.178  -4.013  0.00  0.00    -0.336 N 
ATOM     28  H   UNL     1       0.441   0.089  -4.168  0.00  0.00    +0.144 HD
ATOM     29  H   UNL     1       1.321   1.779  -4.202  0.00  0.00    +0.144 HD
ENDBRANCH  21  22
ENDBRANCH  19  21
ENDBRANCH  16  17
ENDBRANCH   5  16
TORSDOF 5
