REMARK  Name = ZINC39041333
REMARK  4 active torsions:
REMARK  status: ('A' for Active; 'I' for Inactive)
REMARK    1  A    between atoms: C_7  and  C_10
REMARK    2  A    between atoms: C_10  and  C_11
REMARK    3  A    between atoms: C_11  and  N_12
REMARK    4  A    between atoms: C_13  and  S_24
REMARK                            x       y       z     vdW  Elec       q    Type
REMARK                         _______ _______ _______ _____ _____    ______ ____
ROOT
ATOM      1  N   UNL     1      -4.962   5.047  -1.362  0.00  0.00    -0.289 N 
ATOM      2  C   UNL     1      -6.408   5.324  -1.450  0.00  0.00    +0.217 C 
ATOM      3  N   UNL     1      -6.776   6.208  -0.335  0.00  0.00    -0.317 N 
ATOM      4  C   UNL     1      -5.946   7.275  -0.003  0.00  0.00    +0.040 A 
ATOM      5  C   UNL     1      -6.424   8.332   0.758  0.00  0.00    +0.024 A 
ATOM      6  C   UNL     1      -5.585   9.380   1.083  0.00  0.00    +0.002 A 
ATOM      7  C   UNL     1      -4.267   9.386   0.655  0.00  0.00    +0.001 A 
ATOM      8  C   UNL     1      -3.776   8.343  -0.104  0.00  0.00    +0.013 A 
ATOM      9  C   UNL     1      -4.614   7.284  -0.439  0.00  0.00    +0.033 A 
ATOM     10  C   UNL     1      -4.123   6.155  -1.260  0.00  0.00    +0.103 C 
ATOM     11  N   UNL     1      -2.966   6.197  -1.859  0.00  0.00    -0.386 N 
ATOM     12  H   UNL     1      -7.591   6.048   0.166  0.00  0.00    +0.149 HD
ATOM     13  H   UNL     1      -2.668   5.444  -2.393  0.00  0.00    +0.157 HD
ATOM     14  H   UNL     1      -2.402   6.981  -1.770  0.00  0.00    +0.157 HD
ENDROOT
BRANCH   2  15
ATOM     15  S   UNL     1      -6.779   6.141  -3.027  0.00  0.00    -0.137 S 
ATOM     16  H   UNL     1      -8.109   6.337  -2.986  0.00  0.00    +0.105 HD
ENDBRANCH   2  15
BRANCH   1  17
ATOM     17  C   UNL     1      -4.437   3.680  -1.374  0.00  0.00    +0.114 C 
BRANCH  17  18
ATOM     18  C   UNL     1      -4.358   3.151   0.060  0.00  0.00    +0.056 C 
BRANCH  18  25
ATOM     19  C   UNL     1      -0.017   1.384   0.010  0.00  0.00    +0.001 A 
ATOM     20  C   UNL     1       0.002  -0.004   0.002  0.00  0.00    +0.002 A 
ATOM     21  C   UNL     1      -1.173  -0.723   0.009  0.00  0.00    +0.026 A 
ATOM     22  C   UNL     1      -2.392  -0.053   0.024  0.00  0.00    +0.047 A 
ATOM     23  N   UNL     1      -3.704  -0.472   0.034  0.00  0.00    -0.360 N 
ATOM     24  C   UNL     1      -4.539   0.612   0.047  0.00  0.00    +0.087 A 
ATOM     25  C   UNL     1      -3.818   1.744   0.047  0.00  0.00    -0.021 A 
ATOM     26  C   UNL     1      -2.406   1.353   0.032  0.00  0.00    +0.003 A 
ATOM     27  C   UNL     1      -1.203   2.062   0.030  0.00  0.00    +0.010 A 
ATOM     28  H   UNL     1      -3.993  -1.398   0.030  0.00  0.00    +0.165 HD
ENDBRANCH  18  25
ENDBRANCH  17  18
ENDBRANCH   1  17
TORSDOF 4
