REMARK  Name = ZINC41068862
REMARK  6 active torsions:
REMARK  status: ('A' for Active; 'I' for Inactive)
REMARK    1  A    between atoms: C_5  and  S_7
REMARK    2  A    between atoms: S_7  and  C_8
REMARK    3  A    between atoms: C_8  and  C_9
REMARK    4  A    between atoms: C_9  and  O_10
REMARK    5  A    between atoms: O_10  and  C_11
REMARK    6  A    between atoms: C_14  and  C_17
REMARK                            x       y       z     vdW  Elec       q    Type
REMARK                         _______ _______ _______ _____ _____    ______ ____
ROOT
ATOM      1  C   UNL     1      -2.294  -6.131  -0.009  0.00  0.00    +0.121 A 
ATOM      2  C   UNL     1      -1.261  -7.060  -0.018  0.00  0.00    +0.046 A 
ATOM      3  C   UNL     1      -1.545  -8.408  -0.023  0.00  0.00    +0.015 A 
ATOM      4  C   UNL     1      -2.873  -8.840  -0.017  0.00  0.00    +0.012 A 
ATOM      5  C   UNL     1      -3.909  -7.903  -0.007  0.00  0.00    +0.015 A 
ATOM      6  C   UNL     1      -3.617  -6.557   0.003  0.00  0.00    +0.046 A 
ENDROOT
BRANCH   4   7
ATOM      7  C   UNL     1      -3.182 -10.285  -0.022  0.00  0.00    +0.094 C 
ATOM      8  N   UNL     1      -4.450 -10.695  -0.017  0.00  0.00    -0.387 N 
ATOM      9  N   UNL     1      -2.193 -11.178  -0.032  0.00  0.00    -0.345 N 
ATOM     10  H   UNL     1      -5.170 -10.045  -0.009  0.00  0.00    +0.157 HD
ATOM     11  H   UNL     1      -1.270 -10.879  -0.036  0.00  0.00    +0.144 HD
ATOM     12  H   UNL     1      -2.396 -12.126  -0.035  0.00  0.00    +0.144 HD
ATOM     13  H   UNL     1      -4.653 -11.644  -0.020  0.00  0.00    +0.157 HD
ENDBRANCH   4   7
BRANCH   1  14
ATOM     14  O   UNL     1      -2.010  -4.803  -0.004  0.00  0.00    -0.491 OA
BRANCH  14  15
ATOM     15  C   UNL     1      -0.630  -4.435  -0.016  0.00  0.00    +0.240 C 
BRANCH  15  16
ATOM     16  C   UNL     1      -0.508  -2.910  -0.008  0.00  0.00    +0.115 C 
BRANCH  16  17
ATOM     17  S   UNL     1       1.244  -2.443  -0.023  0.00  0.00    -0.121 S 
BRANCH  17  22
ATOM     18  C   UNL     1      -0.017   1.377   0.010  0.00  0.00    +0.001 A 
ATOM     19  C   UNL     1       1.171   2.086   0.002  0.00  0.00    +0.001 A 
ATOM     20  C   UNL     1       2.380   1.417  -0.013  0.00  0.00    +0.016 A 
ATOM     21  C   UNL     1       2.407   0.035  -0.021  0.00  0.00    +0.031 A 
ATOM     22  C   UNL     1       1.216  -0.681  -0.013  0.00  0.00    +0.022 A 
ATOM     23  C   UNL     1       0.002  -0.004   0.002  0.00  0.00    +0.016 A 
ATOM     24 BR   UNL     1       4.062  -0.879  -0.043  0.00  0.00    -0.049 Br
ENDBRANCH  17  22
ENDBRANCH  16  17
ENDBRANCH  15  16
ENDBRANCH  14  15
ENDBRANCH   1  14
TORSDOF 6
