REMARK  Name = ZINC08961033
REMARK  5 active torsions:
REMARK  status: ('A' for Active; 'I' for Inactive)
REMARK    1  A    between atoms: C_1  and  C_2
REMARK    2  A    between atoms: C_5  and  S_8
REMARK    3  A    between atoms: S_8  and  N_11
REMARK    4  A    between atoms: N_11  and  C_12
REMARK    5  A    between atoms: N_20  and  C_28
REMARK                            x       y       z     vdW  Elec       q    Type
REMARK                         _______ _______ _______ _____ _____    ______ ____
ROOT
ATOM      1  C   UNL     1       2.903   5.258   3.416  0.00  0.00    +0.049 A 
ATOM      2  C   UNL     1       1.594   5.330   2.952  0.00  0.00    +0.028 A 
ATOM      3  C   UNL     1       1.227   4.664   1.800  0.00  0.00    +0.049 A 
ATOM      4  C   UNL     1       2.161   3.918   1.095  0.00  0.00    +0.141 A 
ATOM      5  C   UNL     1       3.485   3.860   1.542  0.00  0.00    +0.081 A 
ATOM      6  C   UNL     1       3.848   4.527   2.716  0.00  0.00    +0.041 A 
ATOM      7  C   UNL     1       4.505   3.135   0.771  0.00  0.00    +0.254 C 
ATOM      8  O   UNL     1       5.616   3.623   0.710  0.00  0.00    -0.270 OA
ATOM      9  N   UNL     1       4.303   1.987   0.137  0.00  0.00    -0.267 N 
ATOM     10  C   UNL     1       3.111   1.265   0.101  0.00  0.00    +0.079 A 
ATOM     11  C   UNL     1       3.166  -0.124   0.159  0.00  0.00    +0.027 A 
ATOM     12  C   UNL     1       2.008  -0.872   0.072  0.00  0.00    +0.002 A 
ATOM     13  C   UNL     1       0.786  -0.242  -0.073  0.00  0.00    +0.004 A 
ATOM     14  C   UNL     1       0.721   1.137  -0.120  0.00  0.00    +0.048 A 
ATOM     15  C   UNL     1       1.879   1.895  -0.022  0.00  0.00    +0.150 A 
ATOM     16  O   UNL     1       1.781   3.248  -0.018  0.00  0.00    -0.453 OA
ATOM     17  C   UNL     1       5.441   1.425  -0.595  0.00  0.00    +0.139 C 
ENDROOT
BRANCH   1  18
ATOM     18  N   UNL     1       3.266   5.925   4.591  0.00  0.00    -0.216 N 
ATOM     19  H   UNL     1       3.790   6.740   4.544  0.00  0.00    +0.174 HD
BRANCH  18  20
ATOM     20  S   UNL     1       2.801   5.324   6.062  0.00  0.00    +0.072 S 
ATOM     21  O   UNL     1       3.363   6.180   7.047  0.00  0.00    -0.150 OA
ATOM     22  O   UNL     1       1.405   5.074   5.976  0.00  0.00    -0.150 OA
BRANCH  20  27
ATOM     23  C   UNL     1       5.473  -0.046   6.720  0.00  0.00    +0.044 C 
ATOM     24  C   UNL     1       4.805   1.295   6.556  0.00  0.00    -0.050 A 
ATOM     25  C   UNL     1       5.416   2.435   7.043  0.00  0.00    +0.005 A 
ATOM     26  C   UNL     1       4.804   3.665   6.893  0.00  0.00    +0.029 A 
ATOM     27  C   UNL     1       3.581   3.755   6.254  0.00  0.00    +0.109 A 
ATOM     28  C   UNL     1       2.968   2.615   5.770  0.00  0.00    +0.029 A 
ATOM     29  C   UNL     1       3.583   1.385   5.917  0.00  0.00    +0.005 A 
ENDBRANCH  20  27
ENDBRANCH  18  20
ENDBRANCH   1  18
TORSDOF 3
