REMARK  Name = ZINC02390473
REMARK  12 active torsions:
REMARK  status: ('A' for Active; 'I' for Inactive)
REMARK    1  A    between atoms: C_1  and  C_2
REMARK    2  A    between atoms: C_2  and  C_4
REMARK    3  A    between atoms: C_2  and  N_10
REMARK    4  A    between atoms: C_4  and  C_5
REMARK    5  A    between atoms: C_5  and  C_6
REMARK    6  A    between atoms: C_6  and  C_7
REMARK    7  A    between atoms: C_7  and  C_8
REMARK    8  A    between atoms: C_7  and  C_9
REMARK    9  A    between atoms: C_11  and  C_13
REMARK   10  A    between atoms: N_24  and  C_27
REMARK   11  A    between atoms: C_25  and  N_26
REMARK   12  A    between atoms: C_27  and  C_28
REMARK                            x       y       z     vdW  Elec       q    Type
REMARK                         _______ _______ _______ _____ _____    ______ ____
ROOT
ATOM      1  C   UNL     1       0.690  -1.079  -3.561  0.00  0.00    +0.103 A 
ATOM      2  C   UNL     1       0.830  -2.476  -4.005  0.00  0.00    +0.122 A 
ATOM      3  C   UNL     1       1.592  -2.411  -5.255  0.00  0.00    +0.162 A 
ATOM      4  N   UNL     1       1.879  -3.524  -5.896  0.00  0.00    -0.226 NA
ATOM      5  C   UNL     1       1.473  -4.701  -5.404  0.00  0.00    +0.092 A 
ATOM      6  C   UNL     1       1.775  -5.896  -6.083  0.00  0.00    +0.030 A 
ATOM      7  C   UNL     1       1.359  -7.087  -5.575  0.00  0.00    +0.002 A 
ATOM      8  C   UNL     1       0.634  -7.146  -4.386  0.00  0.00    +0.002 A 
ATOM      9  C   UNL     1       0.323  -6.013  -3.701  0.00  0.00    +0.030 A 
ATOM     10  C   UNL     1       0.736  -4.761  -4.194  0.00  0.00    +0.090 A 
ATOM     11  N   UNL     1       0.435  -3.640  -3.529  0.00  0.00    -0.241 NA
ATOM     12  N   UNL     1       1.860  -1.079  -5.495  0.00  0.00    -0.308 N 
ATOM     13  C   UNL     1       1.332  -0.296  -4.514  0.00  0.00    +0.113 A 
ENDROOT
BRANCH   1  15
ATOM     14  N   UNL     1       0.688  -0.476  -1.203  0.00  0.00    -0.309 N 
ATOM     15  C   UNL     1       0.006  -0.608  -2.358  0.00  0.00    +0.250 C 
ATOM     16  O   UNL     1      -1.180  -0.334  -2.400  0.00  0.00    -0.270 OA
ATOM     17  H   UNL     1       1.632  -0.695  -1.170  0.00  0.00    +0.149 HD
BRANCH  14  19
ATOM     18  C   UNL     1      -0.019   1.526   0.010  0.00  0.00    +0.028 C 
ATOM     19  C   UNL     1       0.002  -0.004   0.002  0.00  0.00    +0.070 C 
BRANCH  19  20
ATOM     20  C   UNL     1       0.742  -0.511   1.242  0.00  0.00    +0.022 C 
BRANCH  20  21
ATOM     21  C   UNL     1       0.655  -2.037   1.299  0.00  0.00    +0.002 C 
BRANCH  21  22
ATOM     22  C   UNL     1       1.395  -2.544   2.538  0.00  0.00    +0.003 C 
BRANCH  22  23
ATOM     23  C   UNL     1       1.309  -4.071   2.595  0.00  0.00    -0.017 C 
ATOM     24  C   UNL     1       2.059  -4.669   1.403  0.00  0.00    +0.007 C 
ATOM     25  C   UNL     1       1.940  -4.569   3.897  0.00  0.00    +0.007 C 
ENDBRANCH  22  23
ENDBRANCH  21  22
ENDBRANCH  20  21
ENDBRANCH  19  20
ENDBRANCH  14  19
ENDBRANCH   1  15
BRANCH  13  26
ATOM     26  N   UNL     1       1.423   1.070  -4.471  0.00  0.00    -0.344 N 
ATOM     27  H   UNL     1       1.023   1.560  -3.735  0.00  0.00    +0.144 HD
ATOM     28  H   UNL     1       1.888   1.548  -5.175  0.00  0.00    +0.144 HD
ENDBRANCH  13  26
BRANCH  12  29
ATOM     29  C   UNL     1       2.607  -0.575  -6.650  0.00  0.00    +0.160 C 
BRANCH  29  30
ATOM     30  C   UNL     1       1.651  -0.290  -7.780  0.00  0.00    -0.027 A 
ATOM     31  C   UNL     1       1.347  -1.282  -8.694  0.00  0.00    +0.008 A 
ATOM     32  C   UNL     1       0.471  -1.023  -9.730  0.00  0.00    +0.038 A 
ATOM     33  C   UNL     1      -0.103   0.231  -9.854  0.00  0.00    +0.123 A 
ATOM     34  C   UNL     1       0.202   1.224  -8.938  0.00  0.00    +0.038 A 
ATOM     35  C   UNL     1       1.074   0.960  -7.899  0.00  0.00    +0.008 A 
ATOM     36  F   UNL     1      -0.960   0.486 -10.867  0.00  0.00    -0.205 F 
ENDBRANCH  29  30
ENDBRANCH  12  29
TORSDOF 9
