REMARK  Name = ZINC21264263
REMARK  17 active torsions:
REMARK  status: ('A' for Active; 'I' for Inactive)
REMARK    1  A    between atoms: C_1  and  C_2
REMARK    2  A    between atoms: C_2  and  N_3
REMARK    3  A    between atoms: C_7  and  C_9
REMARK    4  A    between atoms: C_9  and  N_10
REMARK    5  A    between atoms: N_10  and  C_11
REMARK    6  A    between atoms: N_10  and  C_22
REMARK    7  A    between atoms: C_11  and  C_12
REMARK    8  A    between atoms: C_16  and  O_20
REMARK    9  A    between atoms: C_17  and  O_18
REMARK   10  A    between atoms: O_18  and  C_19
REMARK   11  A    between atoms: O_20  and  C_21
REMARK   12  A    between atoms: C_22  and  N_24
REMARK   13  A    between atoms: N_24  and  C_25
REMARK   14  A    between atoms: C_27  and  C_33
REMARK   15  A    between atoms: C_27  and  C_34
REMARK   16  A    between atoms: C_29  and  C_31
REMARK   17  A    between atoms: C_29  and  C_32
REMARK                            x       y       z     vdW  Elec       q    Type
REMARK                         _______ _______ _______ _____ _____    ______ ____
ROOT
ATOM      1  N   UNL     1      -5.114   3.008   3.724  0.00  0.00    -0.310 N 
ENDROOT
BRANCH   1   2
ATOM      2  C   UNL     1      -4.525   4.126   4.192  0.00  0.00    +0.133 C 
ATOM      3  S   UNL     1      -5.440   5.560   4.384  0.00  0.00    -0.019 S 
BRANCH   2   4
ATOM      4  N   UNL     1      -3.215   4.115   4.509  0.00  0.00    -0.324 N 
ATOM      5  H   UNL     1      -2.608   3.221   4.307  0.00  0.00    +0.148 HD
BRANCH   4   6
ATOM      6  C   UNL     1      -2.599   5.298   5.123  0.00  0.00    +0.069 C 
ATOM      7  C   UNL     1      -2.209   6.290   4.027  0.00  0.00    +0.009 C 
ATOM      8  C   UNL     1      -1.546   7.522   4.636  0.00  0.00    -0.072 C 
ATOM      9  N   UNL     1      -0.491   7.191   5.572  0.00  0.00    +0.386 N 
ATOM     10  C   UNL     1      -0.657   6.091   6.499  0.00  0.00    -0.072 C 
ATOM     11  C   UNL     1      -1.333   4.876   5.868  0.00  0.00    +0.009 C 
ATOM     12  C   UNL     1      -1.442   6.527   7.741  0.00  0.00    -0.010 C 
ATOM     13  C   UNL     1       0.744   5.648   6.976  0.00  0.00    -0.010 C 
ATOM     14  C   UNL     1      -2.613   8.406   5.293  0.00  0.00    -0.010 C 
ATOM     15  C   UNL     1      -0.926   8.337   3.479  0.00  0.00    -0.010 C 
ATOM     16  H   UNL     1       0.423   6.933   5.017  0.00  0.00    -0.084 HD
ATOM     17  H   UNL     1      -0.294   8.056   6.222  0.00  0.00    -0.084 HD
ENDBRANCH   4   6
ENDBRANCH   2   4
ENDBRANCH   1   2
BRANCH   1  18
ATOM     18  C   UNL     1      -6.507   3.048   3.271  0.00  0.00    +0.092 C 
BRANCH  18  23
ATOM     19  N   UNL     1      -8.840   2.952   4.043  0.00  0.00    +0.382 N 
ATOM     20  C   UNL     1      -9.547   1.664   4.205  0.00  0.00    -0.078 C 
ATOM     21  C   UNL     1      -8.730   0.896   5.274  0.00  0.00    -0.020 C 
ATOM     22  C   UNL     1      -7.275   1.308   4.917  0.00  0.00    -0.016 C 
ATOM     23  C   UNL     1      -7.436   2.772   4.455  0.00  0.00    -0.051 C 
ATOM     24  H   UNL     1      -9.314   3.719   4.673  0.00  0.00    -0.081 HD
BRANCH  19  26
ATOM     25  C   UNL     1     -10.393   3.494   2.229  0.00  0.00    -0.017 C 
ATOM     26  C   UNL     1      -8.925   3.429   2.656  0.00  0.00    -0.082 C 
ENDBRANCH  19  26
ENDBRANCH  18  23
ENDBRANCH   1  18
BRANCH   1  27
ATOM     27  C   UNL     1      -4.362   1.752   3.667  0.00  0.00    +0.145 C 
BRANCH  27  28
ATOM     28  C   UNL     1      -3.602   1.680   2.368  0.00  0.00    +0.015 A 
ATOM     29  C   UNL     1      -2.248   1.961   2.341  0.00  0.00    +0.009 A 
ATOM     30  C   UNL     1      -1.548   1.895   1.151  0.00  0.00    +0.004 A 
ATOM     31  C   UNL     1      -2.198   1.542  -0.017  0.00  0.00    +0.049 A 
ATOM     32  C   UNL     1      -3.555   1.264   0.001  0.00  0.00    +0.162 A 
ATOM     33  C   UNL     1      -4.259   1.331   1.199  0.00  0.00    +0.166 A 
BRANCH  33  34
ATOM     34  O   UNL     1      -5.591   1.054   1.223  0.00  0.00    -0.491 OA
ATOM     35  C   UNL     1      -5.966  -0.320   1.337  0.00  0.00    +0.277 C 
ENDBRANCH  33  34
BRANCH  32  36
ATOM     36  O   UNL     1      -4.196   0.923  -1.149  0.00  0.00    -0.491 OA
ATOM     37  C   UNL     1      -3.409   0.875  -2.341  0.00  0.00    +0.277 C 
ENDBRANCH  32  36
ENDBRANCH  27  28
ENDBRANCH   1  27
TORSDOF 10
