REMARK  Name = ZINC33939983
REMARK  11 active torsions:
REMARK  status: ('A' for Active; 'I' for Inactive)
REMARK    1  A    between atoms: C_1  and  C_2
REMARK    2  A    between atoms: C_9  and  C_11
REMARK    3  A    between atoms: N_13  and  C_14
REMARK    4  A    between atoms: C_14  and  C_15
REMARK    5  A    between atoms: N_22  and  C_32
REMARK    6  A    between atoms: C_23  and  C_25
REMARK    7  A    between atoms: N_27  and  C_28
REMARK    8  A    between atoms: C_28  and  C_29
REMARK    9  A    between atoms: C_28  and  C_30
REMARK   10  A    between atoms: C_28  and  C_31
REMARK   11  A    between atoms: C_32  and  C_33
REMARK                            x       y       z     vdW  Elec       q    Type
REMARK                         _______ _______ _______ _____ _____    ______ ____
ROOT
ATOM      1  C   UNL     1      -0.149   1.654  -0.383  0.00  0.00    +0.047 C 
ATOM      2  C   UNL     1      -0.098   0.140  -0.164  0.00  0.00    +0.098 C 
ATOM      3  C   UNL     1      -1.459  -0.556  -0.056  0.00  0.00    +0.007 C 
ATOM      4  C   UNL     1      -1.271  -1.695   0.623  0.00  0.00    +0.009 C 
ATOM      5  C   UNL     1       0.192  -1.709   0.888  0.00  0.00    +0.128 C 
ATOM      6  O   UNL     1       0.530  -0.311   1.090  0.00  0.00    -0.355 OA
ATOM      7  C   UNL     1       0.909  -2.025  -0.476  0.00  0.00    +0.128 C 
ATOM      8  C   UNL     1       0.760  -0.660  -1.198  0.00  0.00    +0.125 C 
ATOM      9  C   UNL     1       2.299  -2.341  -0.001  0.00  0.00    +0.224 C 
ATOM     10  O   UNL     1       3.310  -2.225  -0.660  0.00  0.00    -0.275 OA
ATOM     11  N   UNL     1       2.245  -2.778   1.284  0.00  0.00    -0.282 N 
ATOM     12  C   UNL     1       0.878  -2.655   1.824  0.00  0.00    +0.199 C 
ENDROOT
BRANCH   8  13
ATOM     13  C   UNL     1       2.093   0.006  -1.422  0.00  0.00    +0.220 C 
ATOM     14  O   UNL     1       2.649   0.574  -0.506  0.00  0.00    -0.275 OA
ATOM     15  N   UNL     1       2.668  -0.030  -2.640  0.00  0.00    -0.310 N 
ATOM     16  H   UNL     1       2.223  -0.485  -3.373  0.00  0.00    +0.149 HD
BRANCH  15  17
ATOM     17  C   UNL     1       3.964   0.617  -2.858  0.00  0.00    +0.146 C 
BRANCH  17  18
ATOM     18  C   UNL     1       4.382   0.432  -4.294  0.00  0.00    +0.007 A 
ATOM     19  C   UNL     1       4.133   1.226  -5.365  0.00  0.00    +0.013 A 
ATOM     20  C   UNL     1       4.623   0.855  -6.603  0.00  0.00    +0.008 A 
ATOM     21  C   UNL     1       5.337  -0.292  -6.710  0.00  0.00    +0.045 A 
ATOM     22  S   UNL     1       5.341  -0.884  -5.026  0.00  0.00    -0.100 S 
ENDBRANCH  17  18
ENDBRANCH  15  17
ENDBRANCH   8  13
BRANCH  12  23
ATOM     23  C   UNL     1       0.202  -4.002   1.804  0.00  0.00    +0.237 C 
ATOM     24  O   UNL     1       0.676  -4.908   1.153  0.00  0.00    -0.274 OA
ATOM     25  N   UNL     1      -0.929  -4.198   2.510  0.00  0.00    -0.309 N 
ATOM     26  H   UNL     1      -1.308  -3.473   3.030  0.00  0.00    +0.149 HD
BRANCH  25  27
ATOM     27  C   UNL     1      -1.586  -5.507   2.491  0.00  0.00    +0.026 C 
ATOM     28  C   UNL     1      -0.625  -6.568   3.030  0.00  0.00    +0.031 C 
ATOM     29  C   UNL     1      -2.839  -5.462   3.367  0.00  0.00    +0.031 C 
ATOM     30  C   UNL     1      -1.980  -5.859   1.055  0.00  0.00    +0.031 C 
ENDBRANCH  25  27
ENDBRANCH  12  23
BRANCH  11  31
ATOM     31  C   UNL     1       3.392  -3.291   2.037  0.00  0.00    +0.143 C 
BRANCH  31  32
ATOM     32  C   UNL     1       4.071  -2.153   2.754  0.00  0.00    -0.030 A 
ATOM     33  C   UNL     1       5.083  -1.449   2.130  0.00  0.00    +0.006 A 
ATOM     34  C   UNL     1       5.707  -0.405   2.788  0.00  0.00    +0.020 A 
ATOM     35  C   UNL     1       5.317  -0.065   4.071  0.00  0.00    +0.041 A 
ATOM     36  C   UNL     1       4.304  -0.771   4.695  0.00  0.00    +0.020 A 
ATOM     37  C   UNL     1       3.678  -1.811   4.035  0.00  0.00    +0.006 A 
ATOM     38 CL   UNL     1       6.100   1.245   4.898  0.00  0.00    -0.084 Cl
ENDBRANCH  31  32
ENDBRANCH  11  31
TORSDOF 7
