REMARK  Name = ZINC42956184
REMARK  6 active torsions:
REMARK  status: ('A' for Active; 'I' for Inactive)
REMARK    1  A    between atoms: C_10  and  C_11
REMARK    2  A    between atoms: C_11  and  C_12
REMARK    3  A    between atoms: N_14  and  N_15
REMARK    4  A    between atoms: N_18  and  C_19
REMARK    5  A    between atoms: C_19  and  C_20
REMARK    6  A    between atoms: C_20  and  C_21
REMARK                            x       y       z     vdW  Elec       q    Type
REMARK                         _______ _______ _______ _____ _____    ______ ____
ROOT
ATOM      1  N   UNL     1       6.823   1.550   2.919  0.00  0.00    -0.218 N 
ATOM      2  C   UNL     1       7.951   2.249   3.156  0.00  0.00    +0.316 C 
ATOM      3  O   UNL     1       8.258   2.538   4.297  0.00  0.00    -0.251 OA
ATOM      4  N   UNL     1       8.738   2.628   2.130  0.00  0.00    -0.298 N 
ATOM      5  H   UNL     1       6.257   1.278   3.658  0.00  0.00    +0.174 HD
ATOM      6  H   UNL     1       8.493   2.398   1.220  0.00  0.00    +0.150 HD
ENDROOT
BRANCH   1   9
ATOM      7  C   UNL     1       5.341   0.519   1.367  0.00  0.00    +0.233 C 
ATOM      8  O   UNL     1       4.633   0.178   2.291  0.00  0.00    -0.274 OA
ATOM      9  N   UNL     1       6.469   1.218   1.605  0.00  0.00    -0.233 N 
ATOM     10  H   UNL     1       7.035   1.490   0.866  0.00  0.00    +0.173 HD
BRANCH   7  11
ATOM     11  C   UNL     1       4.960   0.161  -0.046  0.00  0.00    +0.133 C 
BRANCH  11  21
ATOM     12  C   UNL     1      -0.016   1.357   0.009  0.00  0.00    +0.001 A 
ATOM     13  C   UNL     1       1.169   2.091   0.002  0.00  0.00    +0.001 A 
ATOM     14  C   UNL     1       2.378   1.468  -0.013  0.00  0.00    +0.009 A 
ATOM     15  C   UNL     1       2.438   0.064  -0.021  0.00  0.00    -0.014 A 
ATOM     16  C   UNL     1       1.233  -0.683  -0.013  0.00  0.00    -0.018 A 
ATOM     17  C   UNL     1       0.002  -0.004   0.002  0.00  0.00    +0.008 A 
ATOM     18  C   UNL     1       1.292  -2.087  -0.021  0.00  0.00    +0.008 A 
ATOM     19  C   UNL     1       2.502  -2.709  -0.036  0.00  0.00    +0.001 A 
ATOM     20  C   UNL     1       3.687  -1.976  -0.043  0.00  0.00    +0.005 A 
ATOM     21  C   UNL     1       3.668  -0.615  -0.037  0.00  0.00    -0.031 A 
ENDBRANCH  11  21
ENDBRANCH   7  11
ENDBRANCH   1   9
BRANCH   4  22
ATOM     22  C   UNL     1       9.964   3.388   2.388  0.00  0.00    +0.110 C 
BRANCH  22  23
ATOM     23  C   UNL     1      10.666   3.688   1.062  0.00  0.00    +0.056 C 
BRANCH  23  24
ATOM     24  C   UNL     1      11.927   4.470   1.328  0.00  0.00    -0.021 A 
ATOM     25  C   UNL     1      12.060   5.805   1.298  0.00  0.00    +0.087 A 
ATOM     26  N   UNL     1      13.351   6.152   1.591  0.00  0.00    -0.360 N 
ATOM     27  H   UNL     1      13.688   7.061   1.629  0.00  0.00    +0.165 HD
ATOM     28  C   UNL     1      14.099   5.020   1.822  0.00  0.00    +0.047 A 
ATOM     29  C   UNL     1      13.238   3.917   1.674  0.00  0.00    +0.003 A 
ATOM     30  C   UNL     1      13.727   2.622   1.858  0.00  0.00    +0.010 A 
ATOM     31  C   UNL     1      15.041   2.433   2.185  0.00  0.00    +0.001 A 
ATOM     32  C   UNL     1      15.893   3.518   2.336  0.00  0.00    +0.002 A 
ATOM     33  C   UNL     1      15.433   4.804   2.150  0.00  0.00    +0.026 A 
ENDBRANCH  23  24
ENDBRANCH  22  23
ENDBRANCH   4  22
TORSDOF 6
