REMARK  Name = ZINC15956651
REMARK  8 active torsions:
REMARK  status: ('A' for Active; 'I' for Inactive)
REMARK    1  A    between atoms: C_1  and  C_2
REMARK    2  A    between atoms: C_16  and  C_19
REMARK    3  A    between atoms: C_19  and  C_21
REMARK    4  A    between atoms: C_19  and  O_22
REMARK    5  A    between atoms: N_25  and  C_28
REMARK    6  A    between atoms: C_28  and  C_29
REMARK    7  A    between atoms: C_34  and  O_35
REMARK    8  A    between atoms: O_35  and  C_36
REMARK                            x       y       z     vdW  Elec       q    Type
REMARK                         _______ _______ _______ _____ _____    ______ ____
ROOT
ATOM      1  C   UNL     1      -0.018   1.503   0.010  0.00  0.00    +0.045 C 
ATOM      2  C   UNL     1       0.002  -0.004   0.002  0.00  0.00    -0.029 A 
ATOM      3  C   UNL     1       0.006  -0.685  -1.198  0.00  0.00    +0.005 A 
ATOM      4  C   UNL     1       0.026  -2.067  -1.216  0.00  0.00    +0.001 A 
ATOM      5  C   UNL     1       0.043  -2.772  -0.025  0.00  0.00    +0.008 A 
ATOM      6  C   UNL     1       0.039  -2.096   1.175  0.00  0.00    +0.004 A 
ATOM      7  C   UNL     1       0.023  -0.705   1.206  0.00  0.00    +0.042 A 
ATOM      8  N   UNL     1       0.026  -0.250   2.526  0.00  0.00    -0.283 N 
ATOM      9  C   UNL     1       0.052  -1.265   3.412  0.00  0.00    +0.243 C 
ATOM     10  O   UNL     1       0.060  -1.170   4.621  0.00  0.00    -0.273 OA
ATOM     11  C   UNL     1       0.056  -2.538   2.611  0.00  0.00    +0.136 C 
ATOM     12  C   UNL     1      -1.146  -3.429   2.942  0.00  0.00    +0.123 C 
ATOM     13  C   UNL     1      -0.593  -4.880   2.862  0.00  0.00    +0.109 C 
ATOM     14  C   UNL     1       0.895  -4.715   2.485  0.00  0.00    +0.096 C 
ATOM     15  N   UNL     1       1.254  -3.344   2.914  0.00  0.00    -0.293 NA
ATOM     16  C   UNL     1      -1.351  -5.479   1.700  0.00  0.00    +0.228 C 
ATOM     17  O   UNL     1      -1.225  -6.613   1.291  0.00  0.00    -0.275 OA
ATOM     18  N   UNL     1      -2.184  -4.563   1.193  0.00  0.00    -0.237 N 
ATOM     19  C   UNL     1      -2.157  -3.365   1.819  0.00  0.00    +0.229 C 
ATOM     20  O   UNL     1      -2.825  -2.394   1.534  0.00  0.00    -0.275 OA
ATOM     21  H   UNL     1       0.012   0.687   2.776  0.00  0.00    +0.155 HD
ATOM     22  H   UNL     1       2.058  -3.001   2.410  0.00  0.00    +0.124 HD
ENDROOT
BRANCH  14  23
ATOM     23  C   UNL     1       1.747  -5.759   3.208  0.00  0.00    +0.129 C 
ATOM     24  C   UNL     1       3.227  -5.500   2.918  0.00  0.00    +0.039 C 
BRANCH  23  25
ATOM     25  O   UNL     1       1.515  -5.671   4.615  0.00  0.00    -0.390 OA
ATOM     26  H   UNL     1       1.734  -4.810   4.997  0.00  0.00    +0.210 HD
ENDBRANCH  23  25
ENDBRANCH  14  23
BRANCH  18  27
ATOM     27  C   UNL     1      -3.062  -4.835   0.052  0.00  0.00    +0.155 C 
BRANCH  27  28
ATOM     28  C   UNL     1      -4.383  -5.363   0.550  0.00  0.00    +0.012 A 
ATOM     29  C   UNL     1      -4.637  -6.721   0.529  0.00  0.00    +0.009 A 
ATOM     30  C   UNL     1      -5.849  -7.206   0.985  0.00  0.00    +0.001 A 
ATOM     31  C   UNL     1      -6.809  -6.333   1.464  0.00  0.00    +0.004 A 
ATOM     32  C   UNL     1      -6.560  -4.975   1.487  0.00  0.00    +0.046 A 
ATOM     33  C   UNL     1      -5.343  -4.487   1.034  0.00  0.00    +0.125 A 
BRANCH  33  34
ATOM     34  O   UNL     1      -5.093  -3.151   1.061  0.00  0.00    -0.495 OA
ATOM     35  C   UNL     1      -6.127  -2.308   1.573  0.00  0.00    +0.277 C 
ENDBRANCH  33  34
ENDBRANCH  27  28
ENDBRANCH  18  27
TORSDOF 5
