REMARK  Name = ZINC15707403
REMARK  9 active torsions:
REMARK  status: ('A' for Active; 'I' for Inactive)
REMARK    1  A    between atoms: C_1  and  C_2
REMARK    2  A    between atoms: C_2  and  C_3
REMARK    3  A    between atoms: C_2  and  N_4
REMARK    4  A    between atoms: C_5  and  C_7
REMARK    5  A    between atoms: C_7  and  C_8
REMARK    6  A    between atoms: C_8  and  C_9
REMARK    7  A    between atoms: C_18  and  N_21
REMARK    8  A    between atoms: N_21  and  S_22
REMARK    9  A    between atoms: S_22  and  C_25
REMARK                            x       y       z     vdW  Elec       q    Type
REMARK                         _______ _______ _______ _____ _____    ______ ____
ROOT
ATOM      1  C   UNL     1      -0.043   1.166   2.571  0.00  0.00    -0.050 C 
ATOM      2  C   UNL     1      -0.918   1.562   3.769  0.00  0.00    +0.089 C 
ATOM      3  N   UNL     1      -0.156   1.621   5.010  0.00  0.00    -0.318 N 
ATOM      4  C   UNL     1       1.188   1.555   5.086  0.00  0.00    +0.200 C 
ATOM      5  O   UNL     1       1.751   1.720   6.147  0.00  0.00    -0.278 OA
ATOM      6  C   UNL     1       1.973   1.276   3.848  0.00  0.00    +0.021 C 
ATOM      7  C   UNL     1       2.188   1.809   1.599  0.00  0.00    -0.057 C 
ATOM      8  C   UNL     1       3.525   2.252   2.258  0.00  0.00    +0.059 C 
ATOM      9  C   UNL     1       3.348   1.941   3.768  0.00  0.00    +0.012 C 
ATOM     10  H   UNL     1      -0.651   1.715   5.838  0.00  0.00    +0.149 HD
ATOM     11  N   UNL     1       1.272   1.883   2.759  0.00  0.00    +0.391 N 
ATOM     12  H   UNL     1       1.078   2.869   2.968  0.00  0.00    -0.080 HD
ENDROOT
BRANCH   8  13
ATOM     13  N   UNL     1       3.741   3.686   2.055  0.00  0.00    -0.188 NA
ATOM     14  H   UNL     1       3.292   4.330   2.624  0.00  0.00    +0.148 HD
BRANCH  13  15
ATOM     15  S   UNL     1       4.754   4.209   0.853  0.00  0.00    +0.065 S 
ATOM     16  O   UNL     1       4.734   5.629   0.894  0.00  0.00    -0.153 OA
ATOM     17  O   UNL     1       5.955   3.460   0.980  0.00  0.00    -0.153 OA
BRANCH  15  18
ATOM     18  C   UNL     1       4.027   3.739  -0.682  0.00  0.00    +0.142 A 
ATOM     19  C   UNL     1       3.159   4.428  -1.462  0.00  0.00    +0.036 A 
ATOM     20  C   UNL     1       2.716   3.855  -2.639  0.00  0.00    +0.010 A 
ATOM     21  C   UNL     1       3.163   2.622  -2.979  0.00  0.00    +0.047 A 
ATOM     22  S   UNL     1       4.250   2.234  -1.617  0.00  0.00    -0.077 S 
ENDBRANCH  15  18
ENDBRANCH  13  15
ENDBRANCH   8  13
BRANCH   1  23
ATOM     23  C   UNL     1      -0.729   1.579   1.267  0.00  0.00    -0.005 C 
BRANCH  23  24
ATOM     24  C   UNL     1      -2.020   0.776   1.093  0.00  0.00    +0.094 C 
BRANCH  24  26
ATOM     25  N   UNL     1      -3.782   0.497  -0.620  0.00  0.00    -0.313 N 
ATOM     26  C   UNL     1      -2.631   1.092  -0.247  0.00  0.00    +0.213 C 
ATOM     27  O   UNL     1      -2.088   1.882  -0.991  0.00  0.00    -0.276 OA
ATOM     28  H   UNL     1      -4.216  -0.134  -0.026  0.00  0.00    +0.149 HD
BRANCH  25  30
ATOM     29  C   UNL     1      -3.741  -0.083  -2.996  0.00  0.00    +0.027 C 
ATOM     30  C   UNL     1      -4.376   0.804  -1.924  0.00  0.00    +0.067 C 
ATOM     31  C   UNL     1      -5.883   0.542  -1.871  0.00  0.00    +0.027 C 
ENDBRANCH  25  30
ENDBRANCH  24  26
ENDBRANCH  23  24
ENDBRANCH   1  23
TORSDOF 7
