REMARK  Name = ZINC23483433
REMARK  12 active torsions:
REMARK  status: ('A' for Active; 'I' for Inactive)
REMARK    1  A    between atoms: C_1  and  C_2
REMARK    2  A    between atoms: C_4  and  N_13
REMARK    3  A    between atoms: N_5  and  C_7
REMARK    4  A    between atoms: C_14  and  C_16
REMARK    5  A    between atoms: C_16  and  S_17
REMARK    6  A    between atoms: S_17  and  C_18
REMARK    7  A    between atoms: C_21  and  C_30
REMARK    8  A    between atoms: N_22  and  C_23
REMARK    9  A    between atoms: C_30  and  C_32
REMARK   10  A    between atoms: C_30  and  N_33
REMARK   11  A    between atoms: N_33  and  C_34
REMARK   12  A    between atoms: N_33  and  C_35
REMARK                            x       y       z     vdW  Elec       q    Type
REMARK                         _______ _______ _______ _____ _____    ______ ____
ROOT
ATOM      1  S   UNL     1       1.768  -2.116  -0.026  0.00  0.00    -0.076 S 
ENDROOT
BRANCH   1   2
ATOM      2  C   UNL     1       1.242  -0.434  -0.012  0.00  0.00    +0.197 A 
ATOM      3  N   UNL     1       0.002  -0.004   0.002  0.00  0.00    -0.122 NA
ATOM      4  N   UNL     1      -0.015   1.281   0.009  0.00  0.00    -0.135 NA
ATOM      5  C   UNL     1       1.202   1.746   0.000  0.00  0.00    +0.125 A 
ATOM      6  N   UNL     1       2.049   0.670  -0.014  0.00  0.00    -0.275 N 
BRANCH   6   7
ATOM      7  C   UNL     1       3.452   0.696  -0.027  0.00  0.00    +0.050 A 
ATOM      8  C   UNL     1       4.147   1.216   1.056  0.00  0.00    +0.028 A 
ATOM      9  C   UNL     1       5.528   1.236   1.043  0.00  0.00    +0.022 A 
ATOM     10  C   UNL     1       6.218   0.747  -0.053  0.00  0.00    +0.041 A 
ATOM     11  C   UNL     1       5.527   0.232  -1.135  0.00  0.00    +0.022 A 
ATOM     12  C   UNL     1       4.146   0.206  -1.125  0.00  0.00    +0.028 A 
ATOM     13 CL   UNL     1       7.954   0.779  -0.069  0.00  0.00    -0.084 Cl
ENDBRANCH   6   7
BRANCH   5  14
ATOM     14  C   UNL     1       1.603   3.199   0.004  0.00  0.00    -0.003 C 
ATOM     15  C   UNL     1       1.365   3.797  -1.385  0.00  0.00    -0.005 C 
BRANCH  14  16
ATOM     16  N   UNL     1       0.799   3.926   0.995  0.00  0.00    +0.382 N 
ATOM     17  C   UNL     1       1.243   5.322   1.111  0.00  0.00    -0.096 C 
ATOM     18  C   UNL     1      -0.632   3.855   0.667  0.00  0.00    -0.096 C 
ATOM     19  H   UNL     1       0.947   3.442   1.971  0.00  0.00    -0.082 HD
ENDBRANCH  14  16
ENDBRANCH   5  14
ENDBRANCH   1   2
BRANCH   1  20
ATOM     20  C   UNL     1       0.161  -2.948  -0.015  0.00  0.00    +0.173 C 
BRANCH  20  22
ATOM     21  N   UNL     1      -0.696  -5.269  -0.019  0.00  0.00    -0.270 N 
ATOM     22  C   UNL     1       0.367  -4.441  -0.025  0.00  0.00    +0.229 C 
ATOM     23  O   UNL     1       1.491  -4.897  -0.037  0.00  0.00    -0.275 OA
ATOM     24  H   UNL     1      -1.715  -4.855  -0.007  0.00  0.00    +0.156 HD
BRANCH  21  28
ATOM     25  C   UNL     1       1.480  -9.760  -0.061  0.00  0.00    +0.067 C 
ATOM     26  C   UNL     1       0.438  -8.671  -0.047  0.00  0.00    +0.062 A 
ATOM     27  C   UNL     1       0.693  -7.297  -0.042  0.00  0.00    +0.068 A 
ATOM     28  C   UNL     1      -0.505  -6.650  -0.028  0.00  0.00    +0.129 A 
ATOM     29  N   UNL     1      -1.481  -7.598  -0.018  0.00  0.00    -0.218 N 
ATOM     30  N   UNL     1      -0.858  -8.853  -0.036  0.00  0.00    -0.170 NA
BRANCH  29  31
ATOM     31  C   UNL     1      -2.862  -7.362   0.003  0.00  0.00    +0.067 A 
ATOM     32  C   UNL     1      -3.372  -6.281   0.709  0.00  0.00    +0.028 A 
ATOM     33  C   UNL     1      -4.733  -6.047   0.723  0.00  0.00    +0.002 A 
ATOM     34  C   UNL     1      -5.589  -6.895   0.044  0.00  0.00    +0.000 A 
ATOM     35  C   UNL     1      -5.085  -7.975  -0.655  0.00  0.00    +0.002 A 
ATOM     36  C   UNL     1      -3.724  -8.211  -0.678  0.00  0.00    +0.028 A 
ENDBRANCH  29  31
ENDBRANCH  21  28
ENDBRANCH  20  22
ENDBRANCH   1  20
TORSDOF 8
