REMARK  Name = ZINC04741643
REMARK  2 active torsions:
REMARK  status: ('A' for Active; 'I' for Inactive)
REMARK    1  A    between atoms: C_10  and  C_15
REMARK    2  A    between atoms: C_17  and  N_22
REMARK                            x       y       z     vdW  Elec       q    Type
REMARK                         _______ _______ _______ _____ _____    ______ ____
ROOT
ATOM      1  C   UNL     1      -1.063   3.378   0.170  0.00  0.00    +0.002 A 
ATOM      2  C   UNL     1      -1.113   1.992   0.146  0.00  0.00    +0.002 A 
ATOM      3  C   UNL     1       0.050   1.252   0.100  0.00  0.00    +0.028 A 
ATOM      4  C   UNL     1       1.279   1.893   0.065  0.00  0.00    +0.072 A 
ATOM      5  C   UNL     1       1.334   3.300   0.082  0.00  0.00    +0.091 A 
ATOM      6  C   UNL     1       0.147   4.034   0.136  0.00  0.00    +0.030 A 
ATOM      7  N   UNL     1       2.648   3.654   0.040  0.00  0.00    -0.214 NA
ATOM      8  C   UNL     1       3.384   2.585  -0.004  0.00  0.00    +0.205 A 
ATOM      9  N   UNL     1       2.586   1.466   0.013  0.00  0.00    -0.287 N 
ATOM     10  C   UNL     1       3.123   0.107  -0.018  0.00  0.00    +0.219 C 
ATOM     11  C   UNL     1       5.270   1.212  -0.361  0.00  0.00    +0.159 C 
ATOM     12  N   UNL     1       4.767   2.465  -0.064  0.00  0.00    -0.259 N 
ATOM     13  N   UNL     1       6.603   1.099  -0.681  0.00  0.00    -0.332 N 
ATOM     14  H   UNL     1       5.351   3.223   0.095  0.00  0.00    +0.158 HD
ATOM     15  H   UNL     1       6.978   0.230  -0.893  0.00  0.00    +0.145 HD
ATOM     16  H   UNL     1       7.167   1.887  -0.694  0.00  0.00    +0.145 HD
ATOM     17  N   UNL     1       4.594   0.056  -0.377  0.00  0.00    -0.337 N 
ATOM     18  H   UNL     1       5.053  -0.828  -0.623  0.00  0.00    +0.164 HD
ENDROOT
BRANCH  10  19
ATOM     19  C   UNL     1       2.943  -0.534   1.334  0.00  0.00    +0.016 A 
ATOM     20  C   UNL     1       2.666   0.249   2.439  0.00  0.00    +0.041 A 
ATOM     21  C   UNL     1       2.496  -0.338   3.678  0.00  0.00    +0.127 A 
ATOM     22  C   UNL     1       2.613  -1.709   3.816  0.00  0.00    +0.034 A 
ATOM     23  C   UNL     1       2.896  -2.493   2.713  0.00  0.00    +0.022 A 
ATOM     24  C   UNL     1       3.061  -1.905   1.471  0.00  0.00    +0.048 A 
ATOM     25 CL   UNL     1       3.416  -2.889   0.086  0.00  0.00    -0.083 Cl
BRANCH  21  26
ATOM     26  N   UNL     1       2.194   0.501   4.860  0.00  0.00    +0.056 N 
ATOM     27  O   UNL     1       2.048  -0.017   5.953  0.00  0.00    -0.126 OA
ATOM     28  O   UNL     1       2.090   1.708   4.739  0.00  0.00    -0.126 OA
ENDBRANCH  21  26
ENDBRANCH  10  19
TORSDOF 2
