REMARK  Name = ZINC13266832
REMARK  8 active torsions:
REMARK  status: ('A' for Active; 'I' for Inactive)
REMARK    1  A    between atoms: C_1  and  C_2
REMARK    2  A    between atoms: C_3  and  C_30
REMARK    3  A    between atoms: N_9  and  C_29
REMARK    4  A    between atoms: C_10  and  S_12
REMARK    5  A    between atoms: S_12  and  C_13
REMARK    6  A    between atoms: C_13  and  C_14
REMARK    7  A    between atoms: C_20  and  C_28
REMARK    8  A    between atoms: C_21  and  C_25
REMARK                            x       y       z     vdW  Elec       q    Type
REMARK                         _______ _______ _______ _____ _____    ______ ____
ROOT
ATOM      1  C   UNL     1       0.110  -5.234   3.983  0.00  0.00    +0.151 C 
ENDROOT
BRANCH   1   2
ATOM      2  C   UNL     1       0.134  -6.293   5.056  0.00  0.00    +0.121 A 
ATOM      3  N   UNL     1       0.154  -7.598   4.691  0.00  0.00    -0.310 N 
ATOM      4  H   UNL     1       0.152  -7.829   3.749  0.00  0.00    +0.170 HD
ATOM      5  C   UNL     1       0.177  -8.582   5.611  0.00  0.00    +0.260 A 
ATOM      6  O   UNL     1       0.196  -9.752   5.274  0.00  0.00    -0.267 OA
ATOM      7  C   UNL     1       0.179  -8.204   7.044  0.00  0.00    +0.076 A 
ATOM      8  C   UNL     1       0.201  -9.026   8.170  0.00  0.00    -0.015 A 
ATOM      9  C   UNL     1       0.200  -8.460   9.425  0.00  0.00    +0.106 A 
ATOM     10  S   UNL     1       0.167  -6.712   9.066  0.00  0.00    -0.062 S 
ATOM     11  C   UNL     1       0.157  -6.812   7.294  0.00  0.00    +0.116 A 
ATOM     12  N   UNL     1       0.141  -5.925   6.308  0.00  0.00    -0.226 NA
ATOM     13  C   UNL     1       0.226 -10.525   8.015  0.00  0.00    +0.046 C 
BRANCH   9  14
ATOM     14  C   UNL     1       0.219  -9.104  10.688  0.00  0.00    +0.393 C 
ATOM     15  O   UNL     1       0.240 -10.328  10.751  0.00  0.00    -0.240 OA
ATOM     16  O   UNL     1       0.214  -8.438  11.716  0.00  0.00    -0.240 OA
ENDBRANCH   9  14
ENDBRANCH   1   2
BRANCH   1  17
ATOM     17  S   UNL     1       0.095  -3.592   4.753  0.00  0.00    -0.080 S 
BRANCH  17  27
ATOM     18  C   UNL     1      -0.018   1.503   0.010  0.00  0.00    +0.045 C 
ATOM     19  C   UNL     1       0.002  -0.004   0.002  0.00  0.00    -0.026 A 
ATOM     20  C   UNL     1       0.006  -0.676  -1.159  0.00  0.00    -0.008 A 
ATOM     21  S   UNL     1       0.031  -2.384  -0.648  0.00  0.00    -0.073 S 
ATOM     22  C   UNL     1       0.036  -2.146   1.110  0.00  0.00    +0.117 A 
ATOM     23  C   UNL     1       0.024  -0.746   1.251  0.00  0.00    +0.075 A 
ATOM     24  C   UNL     1       0.030  -0.255   2.595  0.00  0.00    +0.263 A 
ATOM     25  O   UNL     1       0.015   0.944   2.815  0.00  0.00    -0.267 OA
ATOM     26  N   UNL     1       0.051  -1.135   3.613  0.00  0.00    -0.290 N 
ATOM     27  C   UNL     1       0.067  -2.481   3.386  0.00  0.00    +0.173 A 
ATOM     28  N   UNL     1       0.052  -2.960   2.159  0.00  0.00    -0.216 NA
ATOM     29  C   UNL     1       0.057  -0.638   4.992  0.00  0.00    +0.154 C 
ATOM     30  C   UNL     1      -0.009  -0.120  -2.559  0.00  0.00    +0.052 C 
ENDBRANCH  17  27
ENDBRANCH   1  17
TORSDOF 4
