REMARK  Name = ZINC20713013
REMARK  2 active torsions:
REMARK  status: ('A' for Active; 'I' for Inactive)
REMARK    1  A    between atoms: C_4  and  N_25
REMARK    2  A    between atoms: C_5  and  C_7
REMARK                            x       y       z     vdW  Elec       q    Type
REMARK                         _______ _______ _______ _____ _____    ______ ____
ROOT
ATOM      1  C   UNL     1       2.451   3.937  -0.001  0.00  0.00    +0.107 C 
ATOM      2  C   UNL     1       2.994   4.066   1.411  0.00  0.00    +0.029 C 
ATOM      3  C   UNL     1       3.163   2.771   2.217  0.00  0.00    +0.033 C 
ATOM      4  C   UNL     1       2.969   3.273   3.649  0.00  0.00    -0.030 C 
ATOM      5  C   UNL     1       2.246   4.373   3.642  0.00  0.00    -0.023 C 
ATOM      6  C   UNL     1       1.831   4.678   2.248  0.00  0.00    +0.050 C 
ATOM      7  C   UNL     1       1.617   6.064   1.782  0.00  0.00    -0.001 A 
ATOM      8  C   UNL     1       1.803   6.323   0.419  0.00  0.00    +0.034 A 
ATOM      9  C   UNL     1       1.573   7.605  -0.066  0.00  0.00    +0.043 A 
ATOM     10  C   UNL     1       1.178   8.614   0.791  0.00  0.00    +0.044 A 
ATOM     11  C   UNL     1       1.008   8.355   2.139  0.00  0.00    +0.040 A 
ATOM     12  C   UNL     1       1.229   7.080   2.630  0.00  0.00    +0.048 A 
ATOM     13 CL   UNL     1       1.016   6.757   4.323  0.00  0.00    -0.083 Cl
ATOM     14 CL   UNL     1       0.894  10.212   0.174  0.00  0.00    -0.083 Cl
ATOM     15  N   UNL     1       2.218   5.321  -0.467  0.00  0.00    -0.336 N 
ATOM     16  H   UNL     1       2.371   5.579  -1.525  0.00  0.00    +0.147 HD
ENDROOT
BRANCH   1  21
ATOM     17  C   UNL     1      -1.238   3.133   0.030  0.00  0.00    +0.000 A 
ATOM     18  C   UNL     1      -1.219   1.750   0.017  0.00  0.00    +0.002 A 
ATOM     19  C   UNL     1      -0.013   1.076   0.008  0.00  0.00    +0.033 A 
ATOM     20  C   UNL     1       1.175   1.783   0.000  0.00  0.00    +0.131 A 
ATOM     21  C   UNL     1       1.157   3.165   0.008  0.00  0.00    +0.003 A 
ATOM     22  C   UNL     1      -0.050   3.840   0.022  0.00  0.00    +0.008 A 
BRANCH  20  23
ATOM     23  N   UNL     1       2.467   1.061  -0.016  0.00  0.00    +0.057 N 
ATOM     24  O   UNL     1       2.483  -0.157  -0.023  0.00  0.00    -0.126 OA
ATOM     25  O   UNL     1       3.513   1.684  -0.022  0.00  0.00    -0.126 OA
ENDBRANCH  20  23
ENDBRANCH   1  21
TORSDOF 2
