REMARK  Name = ZINC09239631
REMARK  8 active torsions:
REMARK  status: ('A' for Active; 'I' for Inactive)
REMARK    1  A    between atoms: C_1  and  C_2
REMARK    2  A    between atoms: C_2  and  C_3
REMARK    3  A    between atoms: C_3  and  C_4
REMARK    4  A    between atoms: C_10  and  C_28
REMARK    5  A    between atoms: C_12  and  C_15
REMARK    6  A    between atoms: N_17  and  C_18
REMARK    7  A    between atoms: C_23  and  C_24
REMARK    8  A    between atoms: C_31  and  C_34
REMARK                            x       y       z     vdW  Elec       q    Type
REMARK                         _______ _______ _______ _____ _____    ______ ____
ROOT
ATOM      1  C   UNL     1       4.950   7.154   1.885  0.00  0.00    +0.151 A 
ATOM      2  N   UNL     1       4.739   7.255   3.169  0.00  0.00    -0.132 NA
ATOM      3  N   UNL     1       3.496   7.506   3.396  0.00  0.00    -0.121 NA
ATOM      4  C   UNL     1       2.854   7.579   2.264  0.00  0.00    +0.209 A 
ATOM      5  N   UNL     1       3.752   7.351   1.260  0.00  0.00    -0.225 N 
ATOM      6  N   UNL     1       3.498   7.317  -0.074  0.00  0.00    -0.272 N 
ATOM      7  C   UNL     1       2.280   8.033  -0.459  0.00  0.00    +0.140 C 
ATOM      8  C   UNL     1       1.058   7.432   0.248  0.00  0.00    +0.166 C 
ATOM      9  S   UNL     1       1.140   7.909   2.002  0.00  0.00    -0.069 S 
ATOM     10  H   UNL     1       4.293   7.645  -0.602  0.00  0.00    +0.167 HD
ENDROOT
BRANCH   7  11
ATOM     11  C   UNL     1       2.093   7.930  -1.951  0.00  0.00    -0.024 A 
ATOM     12  C   UNL     1       2.351   6.737  -2.599  0.00  0.00    +0.006 A 
ATOM     13  C   UNL     1       2.174   6.641  -3.967  0.00  0.00    +0.004 A 
ATOM     14  C   UNL     1       1.749   7.741  -4.687  0.00  0.00    -0.050 A 
ATOM     15  C   UNL     1       1.496   8.936  -4.040  0.00  0.00    +0.004 A 
ATOM     16  C   UNL     1       1.668   9.030  -2.671  0.00  0.00    +0.006 A 
ATOM     17  C   UNL     1       1.561   7.638  -6.179  0.00  0.00    +0.044 C 
ENDBRANCH   7  11
BRANCH   8  18
ATOM     18  C   UNL     1       1.085   5.931   0.126  0.00  0.00    +0.233 C 
ATOM     19  O   UNL     1       2.146   5.342   0.114  0.00  0.00    -0.274 OA
ATOM     20  N   UNL     1      -0.069   5.242   0.031  0.00  0.00    -0.284 N 
ATOM     21  H   UNL     1      -0.912   5.715  -0.040  0.00  0.00    +0.155 HD
BRANCH  20  22
ATOM     22  C   UNL     1      -0.051   3.842   0.034  0.00  0.00    +0.045 A 
ATOM     23  C   UNL     1       1.003   3.161   0.629  0.00  0.00    +0.024 A 
ATOM     24  C   UNL     1       1.018   1.780   0.630  0.00  0.00    +0.002 A 
ATOM     25  C   UNL     1      -0.016   1.076   0.041  0.00  0.00    +0.001 A 
ATOM     26  C   UNL     1      -1.064   1.751  -0.557  0.00  0.00    +0.014 A 
ATOM     27  C   UNL     1      -1.087   3.132  -0.558  0.00  0.00    +0.076 A 
BRANCH  27  28
ATOM     28  C   UNL     1      -2.233   3.867  -1.204  0.00  0.00    +0.419 C 
ATOM     29  F   UNL     1      -3.144   2.943  -1.726  0.00  0.00    -0.166 F 
ATOM     30  F   UNL     1      -2.873   4.665  -0.250  0.00  0.00    -0.166 F 
ATOM     31  F   UNL     1      -1.745   4.675  -2.237  0.00  0.00    -0.166 F 
ENDBRANCH  27  28
ENDBRANCH  20  22
ENDBRANCH   8  18
BRANCH   1  32
ATOM     32  C   UNL     1       6.271   6.872   1.216  0.00  0.00    +0.078 C 
BRANCH  32  34
ATOM     33  C   UNL     1       7.791   5.074   0.379  0.00  0.00    +0.004 C 
ATOM     34  C   UNL     1       6.450   5.361   1.058  0.00  0.00    +0.004 C 
ENDBRANCH  32  34
ENDBRANCH   1  32
TORSDOF 6
