REMARK  Name = ZINC49610871
REMARK  6 active torsions:
REMARK  status: ('A' for Active; 'I' for Inactive)
REMARK    1  A    between atoms: C_3  and  C_11
REMARK    2  A    between atoms: C_5  and  C_7
REMARK    3  A    between atoms: C_8  and  C_9
REMARK    4  A    between atoms: C_9  and  N_10
REMARK    5  A    between atoms: C_11  and  O_12
REMARK    6  A    between atoms: O_12  and  C_13
REMARK                            x       y       z     vdW  Elec       q    Type
REMARK                         _______ _______ _______ _____ _____    ______ ____
ROOT
ATOM      1  C   UNL     1      -0.017   1.375   0.010  0.00  0.00    +0.002 A 
ATOM      2  C   UNL     1       1.170   2.086   0.002  0.00  0.00    +0.007 A 
ATOM      3  C   UNL     1       2.382   1.420  -0.013  0.00  0.00    -0.009 A 
ATOM      4  C   UNL     1       2.415   0.041  -0.021  0.00  0.00    +0.023 A 
ATOM      5  C   UNL     1       1.222  -0.682  -0.013  0.00  0.00    +0.025 A 
ATOM      6  C   UNL     1       0.002  -0.004   0.002  0.00  0.00    +0.017 A 
ENDROOT
BRANCH   5   7
ATOM      7  C   UNL     1       1.248  -2.114  -0.022  0.00  0.00    -0.068 C 
ATOM      8  C   UNL     1       1.270  -3.288  -0.029  0.00  0.00    -0.117 C 
BRANCH   8   9
ATOM      9  C   UNL     1       1.297  -4.760  -0.037  0.00  0.00    +0.005 C 
BRANCH   9  10
ATOM     10  N   UNL     1      -0.078  -5.275  -0.026  0.00  0.00    +0.385 N 
ATOM     11  H   UNL     1      -0.552  -4.952   0.804  0.00  0.00    -0.089 HD
ATOM     12  H   UNL     1      -0.569  -4.943  -0.843  0.00  0.00    -0.089 HD
ATOM     13  H   UNL     1      -0.060  -6.284  -0.032  0.00  0.00    -0.089 HD
ENDBRANCH   9  10
ENDBRANCH   8   9
ENDBRANCH   5   7
BRANCH   3  14
ATOM     14  C   UNL     1       3.670   2.203  -0.023  0.00  0.00    +0.264 C 
BRANCH  14  15
ATOM     15  O   UNL     1       4.091   2.443   1.322  0.00  0.00    -0.484 OA
BRANCH  15  16
ATOM     16  C   UNL     1       5.245   3.142   1.492  0.00  0.00    +0.158 A 
ATOM     17  C   UNL     1       6.459   2.473   1.561  0.00  0.00    +0.085 A 
ATOM     18  C   UNL     1       7.631   3.186   1.734  0.00  0.00    +0.043 A 
ATOM     19  C   UNL     1       7.594   4.565   1.838  0.00  0.00    +0.044 A 
ATOM     20  C   UNL     1       6.385   5.234   1.770  0.00  0.00    +0.043 A 
ATOM     21  C   UNL     1       5.211   4.526   1.590  0.00  0.00    +0.085 A 
ATOM     22 CL   UNL     1       3.695   5.367   1.496  0.00  0.00    -0.080 Cl
ATOM     23 CL   UNL     1       9.067   5.458   2.056  0.00  0.00    -0.083 Cl
ATOM     24 CL   UNL     1       6.506   0.743   1.432  0.00  0.00    -0.080 Cl
ENDBRANCH  15  16
ENDBRANCH  14  15
ENDBRANCH   3  14
TORSDOF 6
