REMARK  Name = ZINC63817340
REMARK  8 active torsions:
REMARK  status: ('A' for Active; 'I' for Inactive)
REMARK    1  A    between atoms: C_1  and  C_2
REMARK    2  A    between atoms: C_6  and  S_8
REMARK    3  A    between atoms: S_8  and  N_11
REMARK    4  A    between atoms: N_11  and  C_12
REMARK    5  A    between atoms: C_12  and  C_14
REMARK    6  A    between atoms: C_12  and  C_24
REMARK    7  A    between atoms: C_14  and  C_15
REMARK    8  A    between atoms: C_29  and  C_32
REMARK                            x       y       z     vdW  Elec       q    Type
REMARK                         _______ _______ _______ _____ _____    ______ ____
ROOT
ATOM      1  C   UNL     1       2.736  -1.641   3.548  0.00  0.00    +0.166 C 
ENDROOT
BRANCH   1   2
ATOM      2  C   UNL     1       3.842  -2.297   4.333  0.00  0.00    +0.235 C 
ATOM      3  O   UNL     1       3.871  -3.504   4.448  0.00  0.00    -0.274 OA
ATOM      4  N   UNL     1       4.800  -1.543   4.908  0.00  0.00    -0.296 N 
ATOM      5  C   UNL     1       5.951  -2.156   5.592  0.00  0.00    +0.113 C 
ATOM      6  C   UNL     1       7.222  -1.732   4.851  0.00  0.00    +0.054 C 
ATOM      7  C   UNL     1       7.190  -0.261   4.559  0.00  0.00    -0.041 C 
ATOM      8  C   UNL     1       6.102   0.471   4.562  0.00  0.00    -0.004 C 
ATOM      9  C   UNL     1       4.740  -0.074   4.873  0.00  0.00    +0.135 C 
BRANCH   7  10
ATOM     10  C   UNL     1       8.471   0.408   4.248  0.00  0.00    -0.022 A 
ATOM     11  C   UNL     1       9.174   0.071   3.091  0.00  0.00    +0.008 A 
ATOM     12  C   UNL     1      10.369   0.700   2.806  0.00  0.00    +0.001 A 
ATOM     13  C   UNL     1      10.870   1.662   3.665  0.00  0.00    +0.000 A 
ATOM     14  C   UNL     1      10.177   2.000   4.814  0.00  0.00    +0.001 A 
ATOM     15  C   UNL     1       8.979   1.383   5.107  0.00  0.00    +0.008 A 
ENDBRANCH   7  10
ENDBRANCH   1   2
BRANCH   1  16
ATOM     16  N   UNL     1       1.615  -2.574   3.410  0.00  0.00    -0.178 NA
ATOM     17  H   UNL     1       1.610  -3.223   2.689  0.00  0.00    +0.149 HD
BRANCH  16  18
ATOM     18  S   UNL     1       0.357  -2.520   4.486  0.00  0.00    +0.059 S 
ATOM     19  O   UNL     1       0.934  -2.483   5.784  0.00  0.00    -0.153 OA
ATOM     20  O   UNL     1      -0.560  -3.530   4.088  0.00  0.00    -0.153 OA
BRANCH  18  26
ATOM     21  C   UNL     1      -0.151   2.594   5.441  0.00  0.00    +0.044 C 
ATOM     22  C   UNL     1      -0.648   1.363   4.728  0.00  0.00    -0.049 A 
ATOM     23  C   UNL     1      -1.746   1.444   3.891  0.00  0.00    +0.003 A 
ATOM     24  C   UNL     1      -2.201   0.316   3.237  0.00  0.00    +0.002 A 
ATOM     25  C   UNL     1      -1.559  -0.895   3.418  0.00  0.00    +0.028 A 
ATOM     26  C   UNL     1      -0.461  -0.977   4.254  0.00  0.00    +0.106 A 
ATOM     27  C   UNL     1      -0.003   0.153   4.905  0.00  0.00    +0.032 A 
ENDBRANCH  18  26
ENDBRANCH  16  18
ENDBRANCH   1  16
BRANCH   1  28
ATOM     28  C   UNL     1       3.255  -1.258   2.160  0.00  0.00    +0.063 C 
BRANCH  28  29
ATOM     29  C   UNL     1       2.195  -0.476   1.426  0.00  0.00    -0.040 C 
ATOM     30  C   UNL     1       2.089   0.869   1.343  0.00  0.00    -0.001 A 
ATOM     31  C   UNL     1       2.896   1.966   1.890  0.00  0.00    +0.010 A 
ATOM     32  C   UNL     1       2.531   3.242   1.629  0.00  0.00    +0.001 A 
ATOM     33  C   UNL     1       1.404   3.543   0.853  0.00  0.00    +0.002 A 
ATOM     34  C   UNL     1       0.613   2.589   0.316  0.00  0.00    +0.026 A 
ATOM     35  C   UNL     1       0.904   1.213   0.525  0.00  0.00    +0.043 A 
ATOM     36  N   UNL     1       0.300   0.122   0.119  0.00  0.00    -0.380 N 
ATOM     37  C   UNL     1       1.039  -1.038   0.629  0.00  0.00    +0.144 C 
ATOM     38  H   UNL     1      -0.499   0.088  -0.429  0.00  0.00    +0.160 HD
ENDBRANCH  28  29
ENDBRANCH   1  28
TORSDOF 7
