REMARK  Name = ZINC05890496
REMARK  7 active torsions:
REMARK  status: ('A' for Active; 'I' for Inactive)
REMARK    1  A    between atoms: C_1  and  C_2
REMARK    2  A    between atoms: C_2  and  C_4
REMARK    3  A    between atoms: C_2  and  N_11
REMARK    4  A    between atoms: C_4  and  N_47
REMARK    5  A    between atoms: C_5  and  N_47
REMARK    6  A    between atoms: N_18  and  C_23
REMARK    7  A    between atoms: N_21  and  C_22
REMARK                            x       y       z     vdW  Elec       q    Type
REMARK                         _______ _______ _______ _____ _____    ______ ____
ROOT
ATOM      1  N   UNL     1       0.060  -2.509   2.480  0.00  0.00    -0.324 N 
ATOM      2  C   UNL     1       0.052  -1.401   3.246  0.00  0.00    +0.202 A 
ATOM      3  N   UNL     1       0.030  -0.338   2.483  0.00  0.00    -0.218 NA
ATOM      4  C   UNL     1       0.023  -0.702   1.199  0.00  0.00    +0.168 A 
ATOM      5  C   UNL     1       0.042  -2.091   1.165  0.00  0.00    +0.152 A 
ATOM      6  C   UNL     1       0.038  -2.748  -0.085  0.00  0.00    +0.282 A 
ATOM      7  O   UNL     1       0.055  -3.965  -0.141  0.00  0.00    -0.265 OA
ATOM      8  N   UNL     1       0.017  -2.013  -1.216  0.00  0.00    -0.262 N 
ATOM      9  C   UNL     1      -0.005  -0.670  -1.168  0.00  0.00    +0.333 A 
ATOM     10  O   UNL     1      -0.029  -0.040  -2.208  0.00  0.00    -0.246 OA
ATOM     11  N   UNL     1       0.002  -0.004   0.002  0.00  0.00    -0.280 N 
ATOM     12  C   UNL     1      -0.018   1.461   0.010  0.00  0.00    +0.155 C 
ATOM     13  C   UNL     1       0.013  -2.689  -2.516  0.00  0.00    +0.157 C 
ENDROOT
BRANCH   1  15
ATOM     14  C   UNL     1      -1.154  -4.162   3.813  0.00  0.00    +0.029 C 
ATOM     15  C   UNL     1       0.083  -3.896   2.953  0.00  0.00    +0.069 C 
BRANCH  15  16
ATOM     16  C   UNL     1       1.345  -4.128   3.788  0.00  0.00    -0.057 C 
BRANCH  16  17
ATOM     17  N   UNL     1       1.422  -5.554   4.159  0.00  0.00    +0.382 N 
ATOM     18  H   UNL     1       1.458  -6.124   3.306  0.00  0.00    -0.085 HD
ATOM     19  H   UNL     1       0.591  -5.807   4.705  0.00  0.00    -0.085 HD
BRANCH  17  20
ATOM     20  C   UNL     1       2.631  -5.807   4.966  0.00  0.00    -0.072 C 
ATOM     21  C   UNL     1       3.823  -6.048   4.038  0.00  0.00    -0.016 C 
ATOM     22  C   UNL     1       5.075  -6.320   4.875  0.00  0.00    -0.002 C 
ATOM     23  C   UNL     1       4.847  -7.558   5.745  0.00  0.00    -0.000 C 
ATOM     24  C   UNL     1       3.655  -7.317   6.673  0.00  0.00    -0.002 C 
ATOM     25  C   UNL     1       2.403  -7.045   5.836  0.00  0.00    -0.016 C 
ENDBRANCH  17  20
ENDBRANCH  16  17
ENDBRANCH  15  16
ENDBRANCH   1  15
TORSDOF 4
