REMARK  Name = ZINC13175839
REMARK  5 active torsions:
REMARK  status: ('A' for Active; 'I' for Inactive)
REMARK    1  A    between atoms: C_6  and  C_7
REMARK    2  A    between atoms: C_7  and  C_9
REMARK    3  A    between atoms: C_7  and  N_12
REMARK    4  A    between atoms: C_9  and  C_10
REMARK    5  A    between atoms: C_13  and  C_15
REMARK                            x       y       z     vdW  Elec       q    Type
REMARK                         _______ _______ _______ _____ _____    ______ ____
ROOT
ATOM      1  N   UNL     1       1.554  -0.707  -0.009  0.00  0.00    -0.304 N 
ATOM      2  C   UNL     1       0.427   0.023   0.107  0.00  0.00    +0.245 C 
ATOM      3  O   UNL     1      -0.652  -0.533   0.183  0.00  0.00    -0.270 OA
ATOM      4  H   UNL     1       2.407  -0.264  -0.142  0.00  0.00    +0.150 HD
ENDROOT
BRANCH   2   5
ATOM      5  C   UNL     1       0.502   1.497   0.143  0.00  0.00    +0.042 A 
ATOM      6  C   UNL     1      -0.666   2.255   0.258  0.00  0.00    +0.062 A 
ATOM      7  C   UNL     1      -0.592   3.634   0.296  0.00  0.00    +0.168 A 
ATOM      8  C   UNL     1       0.648   4.268   0.209  0.00  0.00    +0.184 A 
ATOM      9  C   UNL     1       1.808   3.514   0.089  0.00  0.00    +0.087 A 
ATOM     10  C   UNL     1       1.740   2.137   0.056  0.00  0.00    +0.037 A 
ATOM     11 CL   UNL     1       3.349   4.307  -0.018  0.00  0.00    -0.080 Cl
ATOM     12  O   UNL     1       0.451   5.616   0.264  0.00  0.00    -0.451 OA
ATOM     13  C   UNL     1      -0.875   5.791   0.797  0.00  0.00    +0.466 C 
ATOM     14  O   UNL     1      -1.562   4.588   0.406  0.00  0.00    -0.453 OA
ENDBRANCH   2   5
BRANCH   1  15
ATOM     15  C   UNL     1       1.491  -2.168   0.065  0.00  0.00    +0.114 C 
BRANCH  15  21
ATOM     16  C   UNL     1       3.993  -2.150  -0.000  0.00  0.00    +0.007 A 
ATOM     17  C   UNL     1       5.222  -2.641   0.400  0.00  0.00    +0.020 A 
ATOM     18  C   UNL     1       5.287  -3.697   1.291  0.00  0.00    +0.041 A 
ATOM     19  C   UNL     1       4.123  -4.258   1.785  0.00  0.00    +0.020 A 
ATOM     20  C   UNL     1       2.895  -3.763   1.388  0.00  0.00    +0.007 A 
ATOM     21  C   UNL     1       2.830  -2.708   0.498  0.00  0.00    -0.027 A 
ATOM     22 CL   UNL     1       6.830  -4.319   1.789  0.00  0.00    -0.084 Cl
ENDBRANCH  15  21
BRANCH  15  23
ATOM     23  C   UNL     1       1.135  -2.734  -1.312  0.00  0.00    +0.152 C 
BRANCH  23  24
ATOM     24  C   UNL     1       0.911  -4.220  -1.202  0.00  0.00    +0.358 C 
ATOM     25  O   UNL     1       0.906  -4.752  -0.116  0.00  0.00    -0.246 OA
ATOM     26  O   UNL     1       0.719  -4.954  -2.309  0.00  0.00    -0.246 OA
ENDBRANCH  23  24
ENDBRANCH  15  23
ENDBRANCH   1  15
TORSDOF 5
