REMARK  Name = ZINC24875517
REMARK  12 active torsions:
REMARK  status: ('A' for Active; 'I' for Inactive)
REMARK    1  A    between atoms: C_1  and  C_2
REMARK    2  A    between atoms: C_2  and  C_3
REMARK    3  A    between atoms: C_2  and  C_4
REMARK    4  A    between atoms: C_4  and  N_5
REMARK    5  A    between atoms: C_6  and  N_36
REMARK    6  A    between atoms: C_7  and  C_14
REMARK    7  A    between atoms: C_14  and  C_16
REMARK    8  A    between atoms: C_16  and  S_17
REMARK    9  A    between atoms: S_17  and  C_18
REMARK   10  A    between atoms: C_21  and  C_29
REMARK   11  A    between atoms: N_22  and  C_23
REMARK   12  A    between atoms: C_29  and  N_30
REMARK                            x       y       z     vdW  Elec       q    Type
REMARK                         _______ _______ _______ _____ _____    ______ ____
ROOT
ATOM      1  S   UNL     1      -2.689   0.752   0.037  0.00  0.00    -0.078 S 
ENDROOT
BRANCH   1   2
ATOM      2  C   UNL     1      -4.064   1.853   0.073  0.00  0.00    +0.196 A 
ATOM      3  N   UNL     1      -4.013   3.165   0.100  0.00  0.00    -0.122 NA
ATOM      4  N   UNL     1      -5.204   3.649   0.117  0.00  0.00    -0.135 NA
ATOM      5  C   UNL     1      -6.080   2.684   0.112  0.00  0.00    +0.122 A 
ATOM      6  N   UNL     1      -5.387   1.504   0.084  0.00  0.00    -0.276 N 
BRANCH   6   7
ATOM      7  C   UNL     1      -5.921   0.207   0.070  0.00  0.00    +0.050 A 
ATOM      8  C   UNL     1      -6.674  -0.223  -1.014  0.00  0.00    +0.026 A 
ATOM      9  C   UNL     1      -7.195  -1.502  -1.028  0.00  0.00    +0.002 A 
ATOM     10  C   UNL     1      -6.975  -2.351   0.042  0.00  0.00    +0.000 A 
ATOM     11  C   UNL     1      -6.230  -1.923   1.125  0.00  0.00    +0.002 A 
ATOM     12  C   UNL     1      -5.702  -0.647   1.142  0.00  0.00    +0.026 A 
ENDBRANCH   6   7
BRANCH   5  13
ATOM     13  C   UNL     1      -7.579   2.840   0.134  0.00  0.00    -0.001 C 
BRANCH  13  14
ATOM     14  N   UNL     1      -8.048   2.867   1.526  0.00  0.00    +0.384 N 
ATOM     15  C   UNL     1      -7.816   1.576   2.185  0.00  0.00    -0.078 C 
ATOM     16  C   UNL     1      -8.181   1.685   3.667  0.00  0.00    -0.019 C 
ATOM     17  C   UNL     1      -9.652   2.088   3.797  0.00  0.00    -0.004 C 
ATOM     18  C   UNL     1      -9.878   3.412   3.061  0.00  0.00    -0.019 C 
ATOM     19  C   UNL     1      -9.464   3.252   1.597  0.00  0.00    -0.078 C 
ATOM     20  H   UNL     1      -7.466   3.629   2.066  0.00  0.00    -0.081 HD
ENDBRANCH  13  14
ENDBRANCH   5  13
ENDBRANCH   1   2
BRANCH   1  21
ATOM     21  C   UNL     1      -1.329   1.946   0.040  0.00  0.00    +0.157 C 
BRANCH  21  22
ATOM     22  C   UNL     1      -0.015   1.211   0.011  0.00  0.00    +0.182 C 
ATOM     23  O   UNL     1       0.002  -0.004  -0.009  0.00  0.00    -0.291 OA
BRANCH  22  26
ATOM     24  N   UNL     1       3.583   2.014   0.074  0.00  0.00    -0.281 N 
ATOM     25  C   UNL     1       2.436   1.273   0.091  0.00  0.00    +0.116 A 
ATOM     26  C   UNL     1       1.198   1.933   0.002  0.00  0.00    +0.120 A 
ATOM     27  C   UNL     1       1.207   3.398  -0.093  0.00  0.00    +0.266 A 
ATOM     28  O   UNL     1       0.164   4.022  -0.168  0.00  0.00    -0.267 OA
ATOM     29  N   UNL     1       2.394   4.038  -0.097  0.00  0.00    -0.274 N 
ATOM     30  H   UNL     1       2.427   5.136  -0.169  0.00  0.00    +0.173 HD
ATOM     31  C   UNL     1       3.546   3.353  -0.015  0.00  0.00    +0.331 A 
ATOM     32  O   UNL     1       4.595   3.968  -0.022  0.00  0.00    -0.246 OA
BRANCH  25  33
ATOM     33  N   UNL     1       2.491  -0.083   0.187  0.00  0.00    -0.344 N 
ATOM     34  H   UNL     1       1.562  -0.672   0.200  0.00  0.00    +0.144 HD
ATOM     35  H   UNL     1       3.465  -0.591   0.252  0.00  0.00    +0.144 HD
ENDBRANCH  25  33
BRANCH  24  36
ATOM     36  C   UNL     1       4.878   1.336   0.160  0.00  0.00    +0.131 C 
BRANCH  36  38
ATOM     37  C   UNL     1       4.293   0.271   2.343  0.00  0.00    +0.009 C 
ATOM     38  C   UNL     1       5.282   1.194   1.629  0.00  0.00    +0.003 C 
ATOM     39  C   UNL     1       6.689   0.599   1.716  0.00  0.00    +0.009 C 
ENDBRANCH  36  38
ENDBRANCH  24  36
ENDBRANCH  22  26
ENDBRANCH  21  22
ENDBRANCH   1  21
TORSDOF 10
