REMARK  Name = ZINC36498352
REMARK  13 active torsions:
REMARK  status: ('A' for Active; 'I' for Inactive)
REMARK    1  A    between atoms: C_1  and  C_2
REMARK    2  A    between atoms: C_2  and  C_3
REMARK    3  A    between atoms: C_2  and  C_4
REMARK    4  A    between atoms: C_2  and  N_5
REMARK    5  A    between atoms: C_6  and  C_8
REMARK    6  A    between atoms: C_8  and  C_10
REMARK    7  A    between atoms: C_8  and  N_19
REMARK    8  A    between atoms: C_11  and  O_18
REMARK    9  A    between atoms: C_13  and  O_17
REMARK   10  A    between atoms: C_15  and  O_16
REMARK   11  A    between atoms: N_19  and  C_20
REMARK   12  A    between atoms: C_20  and  C_21
REMARK   13  A    between atoms: C_26  and  C_28
REMARK                            x       y       z     vdW  Elec       q    Type
REMARK                         _______ _______ _______ _____ _____    ______ ____
ROOT
ATOM      1  C   UNL     1       3.246  -0.671  -3.931  0.00  0.00    +0.200 C 
ENDROOT
BRANCH   1   2
ATOM      2  C   UNL     1       3.643  -2.115  -3.761  0.00  0.00    +0.065 A 
ATOM      3  C   UNL     1       4.133  -2.561  -2.542  0.00  0.00    +0.129 A 
ATOM      4  C   UNL     1       4.497  -3.889  -2.386  0.00  0.00    +0.091 A 
ATOM      5  C   UNL     1       4.372  -4.772  -3.448  0.00  0.00    +0.124 A 
ATOM      6  C   UNL     1       3.881  -4.327  -4.666  0.00  0.00    +0.091 A 
ATOM      7  C   UNL     1       3.512  -2.999  -4.821  0.00  0.00    +0.129 A 
BRANCH   7   8
ATOM      8  O   UNL     1       3.027  -2.564  -6.013  0.00  0.00    -0.506 OA
ATOM      9  H   UNL     1       3.707  -2.243  -6.621  0.00  0.00    +0.292 HD
ENDBRANCH   7   8
BRANCH   5  10
ATOM     10  O   UNL     1       4.731  -6.074  -3.295  0.00  0.00    -0.507 OA
ATOM     11  H   UNL     1       4.013  -6.647  -2.990  0.00  0.00    +0.292 HD
ENDBRANCH   5  10
BRANCH   3  12
ATOM     12  O   UNL     1       4.255  -1.695  -1.502  0.00  0.00    -0.506 OA
ATOM     13  H   UNL     1       3.506  -1.706  -0.891  0.00  0.00    +0.292 HD
ENDBRANCH   3  12
ENDBRANCH   1   2
BRANCH   1  15
ATOM     14  N   UNL     1       0.882  -1.173  -3.405  0.00  0.00    -0.309 N 
ATOM     15  C   UNL     1       1.968  -0.409  -3.176  0.00  0.00    +0.239 C 
ATOM     16  O   UNL     1       1.917   0.490  -2.364  0.00  0.00    -0.273 OA
ATOM     17  H   UNL     1       0.944  -1.940  -3.996  0.00  0.00    +0.149 HD
BRANCH  14  19
ATOM     18  C   UNL     1      -0.874   0.522  -3.251  0.00  0.00    +0.031 C 
ATOM     19  C   UNL     1      -0.393  -0.845  -2.762  0.00  0.00    +0.026 C 
ATOM     20  C   UNL     1      -0.203  -0.806  -1.244  0.00  0.00    +0.031 C 
ATOM     21  C   UNL     1      -1.433  -1.909  -3.118  0.00  0.00    +0.031 C 
ENDBRANCH  14  19
ENDBRANCH   1  15
BRANCH   1  22
ATOM     22  N   UNL     1       4.308   0.192  -3.408  0.00  0.00    -0.272 N 
ATOM     23  C   UNL     1       5.324   0.571  -4.208  0.00  0.00    +0.283 C 
ATOM     24  O   UNL     1       5.315   0.270  -5.387  0.00  0.00    -0.267 OA
BRANCH  23  25
ATOM     25  C   UNL     1       6.441   1.347  -3.658  0.00  0.00    +0.189 A 
ATOM     26  C   UNL     1       7.462   1.901  -4.374  0.00  0.00    +0.054 A 
ATOM     27  C   UNL     1       8.298   2.548  -3.450  0.00  0.00    +0.042 A 
ATOM     28  C   UNL     1       7.757   2.362  -2.226  0.00  0.00    +0.196 A 
ATOM     29  O   UNL     1       6.635   1.642  -2.356  0.00  0.00    -0.458 OA
ENDBRANCH  23  25
BRANCH  22  30
ATOM     30  C   UNL     1       4.265   0.643  -2.014  0.00  0.00    +0.183 C 
BRANCH  30  31
ATOM     31  C   UNL     1       3.883   2.100  -1.969  0.00  0.00    +0.122 A 
ATOM     32  C   UNL     1       2.838   2.619  -1.300  0.00  0.00    +0.046 A 
ATOM     33  C   UNL     1       2.855   4.013  -1.532  0.00  0.00    +0.041 A 
ATOM     34  C   UNL     1       3.909   4.263  -2.329  0.00  0.00    +0.195 A 
ATOM     35  O   UNL     1       4.532   3.101  -2.586  0.00  0.00    -0.466 OA
ENDBRANCH  30  31
ENDBRANCH  22  30
ENDBRANCH   1  22
TORSDOF 10
