REMARK  Name = ZINC00635804
REMARK  4 active torsions:
REMARK  status: ('A' for Active; 'I' for Inactive)
REMARK    1  A    between atoms: C_1  and  O_2
REMARK    2  A    between atoms: O_2  and  C_3
REMARK    3  A    between atoms: C_7  and  C_9
REMARK    4  A    between atoms: C_20  and  C_22
REMARK                            x       y       z     vdW  Elec       q    Type
REMARK                         _______ _______ _______ _____ _____    ______ ____
ROOT
ATOM      1  C   UNL     1      -2.540  -4.171   0.015  0.00  0.00    +0.159 C 
ATOM      2  C   UNL     1      -2.741  -4.634  -1.411  0.00  0.00    +0.028 C 
ATOM      3  C   UNL     1      -3.827  -5.385  -1.686  0.00  0.00    +0.083 C 
ATOM      4  C   UNL     1      -4.007  -5.841  -3.088  0.00  0.00    +0.042 A 
ATOM      5  C   UNL     1      -5.223  -6.333  -3.540  0.00  0.00    +0.013 A 
ATOM      6  C   UNL     1      -5.348  -6.744  -4.853  0.00  0.00    +0.001 A 
ATOM      7  C   UNL     1      -4.266  -6.665  -5.713  0.00  0.00    +0.004 A 
ATOM      8  C   UNL     1      -3.050  -6.177  -5.270  0.00  0.00    +0.046 A 
ATOM      9  C   UNL     1      -2.911  -5.763  -3.957  0.00  0.00    +0.131 A 
ATOM     10  O   UNL     1      -1.728  -5.286  -3.494  0.00  0.00    -0.479 OA
ATOM     11  C   UNL     1      -1.772  -4.265  -2.495  0.00  0.00    +0.241 C 
ATOM     12  N   UNL     1      -4.723  -5.716  -0.724  0.00  0.00    -0.213 NA
ATOM     13  C   UNL     1      -4.624  -5.356   0.535  0.00  0.00    +0.237 C 
ATOM     14  N   UNL     1      -3.569  -4.589   0.975  0.00  0.00    -0.208 N 
ATOM     15  N   UNL     1      -3.767  -4.388   2.343  0.00  0.00    -0.251 N 
ATOM     16  C   UNL     1      -4.922  -5.033   2.664  0.00  0.00    +0.203 C 
ATOM     17  N   UNL     1      -5.413  -5.596   1.606  0.00  0.00    -0.205 NA
ATOM     18  H   UNL     1      -3.193  -3.889   2.945  0.00  0.00    +0.171 HD
ENDROOT
BRANCH   1  23
ATOM     19  C   UNL     1      -1.200  -0.637   0.010  0.00  0.00    +0.120 A 
ATOM     20  C   UNL     1      -2.375   0.101   0.019  0.00  0.00    +0.045 A 
ATOM     21  C   UNL     1      -3.596  -0.545   0.027  0.00  0.00    +0.004 A 
ATOM     22  C   UNL     1      -3.648  -1.927   0.026  0.00  0.00    +0.006 A 
ATOM     23  C   UNL     1      -2.479  -2.665   0.017  0.00  0.00    -0.018 A 
ATOM     24  C   UNL     1      -1.255  -2.023   0.003  0.00  0.00    +0.051 A 
BRANCH  19  26
ATOM     25  C   UNL     1      -0.017   1.425   0.010  0.00  0.00    +0.277 C 
ATOM     26  O   UNL     1       0.002  -0.004   0.002  0.00  0.00    -0.495 OA
ENDBRANCH  19  26
ENDBRANCH   1  23
BRANCH  11  27
ATOM     27  C   UNL     1      -2.202  -2.966  -3.127  0.00  0.00    +0.034 A 
ATOM     28  C   UNL     1      -1.728  -1.715  -2.914  0.00  0.00    +0.015 A 
ATOM     29  C   UNL     1      -2.280  -0.660  -3.616  0.00  0.00    +0.008 A 
ATOM     30  C   UNL     1      -3.279  -0.909  -4.498  0.00  0.00    +0.045 A 
ATOM     31  S   UNL     1      -3.463  -2.679  -4.358  0.00  0.00    -0.098 S 
ENDBRANCH  11  27
TORSDOF 3
