REMARK  Name = ZINC40123479
REMARK  10 active torsions:
REMARK  status: ('A' for Active; 'I' for Inactive)
REMARK    1  A    between atoms: C_1  and  C_2
REMARK    2  A    between atoms: C_4  and  C_10
REMARK    3  A    between atoms: C_7  and  O_8
REMARK    4  A    between atoms: O_8  and  C_9
REMARK    5  A    between atoms: C_10  and  C_12
REMARK    6  A    between atoms: C_17  and  C_19
REMARK    7  A    between atoms: C_23  and  O_27
REMARK    8  A    between atoms: C_24  and  O_25
REMARK    9  A    between atoms: O_25  and  C_26
REMARK   10  A    between atoms: O_27  and  C_28
REMARK                            x       y       z     vdW  Elec       q    Type
REMARK                         _______ _______ _______ _____ _____    ______ ____
ROOT
ATOM      1  C   UNL     1       0.147  -4.042  -2.406  0.00  0.00    +0.076 C 
ATOM      2  C   UNL     1       0.281  -4.797  -3.521  0.00  0.00    +0.249 C 
ATOM      3  C   UNL     1       0.366  -6.221  -3.137  0.00  0.00    +0.285 C 
ATOM      4  O   UNL     1       0.490  -7.147  -3.914  0.00  0.00    -0.267 OA
ATOM      5  N   UNL     1       0.286  -6.341  -1.799  0.00  0.00    -0.297 N 
ATOM      6  C   UNL     1       0.149  -4.994  -1.233  0.00  0.00    +0.145 C 
ATOM      7  O   UNL     1       0.328  -4.322  -4.788  0.00  0.00    -0.282 OA
ATOM      8  H   UNL     1       0.317  -7.171  -1.298  0.00  0.00    +0.150 HD
ENDROOT
BRANCH   6   9
ATOM      9  C   UNL     1       1.311  -4.691  -0.322  0.00  0.00    +0.023 A 
ATOM     10  C   UNL     1       2.509  -5.364  -0.482  0.00  0.00    +0.009 A 
ATOM     11  C   UNL     1       3.577  -5.088   0.351  0.00  0.00    +0.004 A 
ATOM     12  C   UNL     1       3.452  -4.140   1.349  0.00  0.00    +0.049 A 
ATOM     13  C   UNL     1       2.255  -3.462   1.515  0.00  0.00    +0.162 A 
ATOM     14  C   UNL     1       1.181  -3.735   0.672  0.00  0.00    +0.167 A 
BRANCH  14  15
ATOM     15  O   UNL     1       0.006  -3.069   0.827  0.00  0.00    -0.491 OA
ATOM     16  C   UNL     1      -0.968  -3.663   1.688  0.00  0.00    +0.277 C 
ENDBRANCH  14  15
BRANCH  13  17
ATOM     17  O   UNL     1       2.130  -2.529   2.496  0.00  0.00    -0.491 OA
ATOM     18  C   UNL     1       3.275  -2.297   3.320  0.00  0.00    +0.277 C 
ENDBRANCH  13  17
ENDBRANCH   6   9
BRANCH   1  19
ATOM     19  C   UNL     1       0.029  -2.582  -2.347  0.00  0.00    +0.195 C 
ATOM     20  O   UNL     1       0.969  -1.882  -2.674  0.00  0.00    -0.287 OA
BRANCH  19  24
ATOM     21  C   UNL     1      -2.582   1.497  -1.157  0.00  0.00    +0.047 C 
ATOM     22  C   UNL     1      -2.491   0.002  -1.317  0.00  0.00    -0.008 A 
ATOM     23  C   UNL     1      -1.314  -0.573  -1.742  0.00  0.00    +0.018 A 
ATOM     24  C   UNL     1      -1.230  -1.961  -1.891  0.00  0.00    +0.023 A 
ATOM     25  C   UNL     1      -2.343  -2.759  -1.607  0.00  0.00    +0.015 A 
ATOM     26  C   UNL     1      -3.515  -2.176  -1.183  0.00  0.00    +0.046 A 
ATOM     27  C   UNL     1      -3.593  -0.796  -1.030  0.00  0.00    +0.123 A 
BRANCH  27  28
ATOM     28  O   UNL     1      -4.749  -0.226  -0.607  0.00  0.00    -0.495 OA
ATOM     29  C   UNL     1      -5.842  -1.103  -0.330  0.00  0.00    +0.277 C 
ENDBRANCH  27  28
ENDBRANCH  19  24
ENDBRANCH   1  19
TORSDOF 6
