REMARK  Name = ZINC40757974
REMARK  6 active torsions:
REMARK  status: ('A' for Active; 'I' for Inactive)
REMARK    1  A    between atoms: C_1  and  C_2
REMARK    2  A    between atoms: C_7  and  N_8
REMARK    3  A    between atoms: C_10  and  N_27
REMARK    4  A    between atoms: C_11  and  N_15
REMARK    5  A    between atoms: N_15  and  C_16
REMARK    6  A    between atoms: C_23  and  C_26
REMARK                            x       y       z     vdW  Elec       q    Type
REMARK                         _______ _______ _______ _____ _____    ______ ____
ROOT
ATOM      1  N   UNL     1      -0.028  -0.028   2.408  0.00  0.00    -0.283 N 
ATOM      2  C   UNL     1       0.014  -0.734   3.607  0.00  0.00    +0.150 A 
ATOM      3  C   UNL     1       0.017  -0.057   4.828  0.00  0.00    +0.106 A 
ATOM      4  C   UNL     1       0.059  -0.813   6.001  0.00  0.00    +0.149 A 
ATOM      5  N   UNL     1       0.095  -2.141   5.910  0.00  0.00    -0.219 NA
ATOM      6  C   UNL     1       0.090  -2.740   4.737  0.00  0.00    +0.225 A 
ATOM      7  N   UNL     1       0.045  -2.064   3.607  0.00  0.00    -0.219 NA
ATOM      8  H   UNL     1      -0.051   0.941   2.417  0.00  0.00    +0.155 HD
ENDROOT
BRANCH   1  15
ATOM      9  C   UNL     1      -0.114   1.504   0.012  0.00  0.00    +0.047 C 
ATOM     10  C   UNL     1      -0.077  -0.003   0.003  0.00  0.00    -0.010 A 
ATOM     11  C   UNL     1      -0.079  -0.697  -1.194  0.00  0.00    +0.008 A 
ATOM     12  C   UNL     1      -0.045  -2.084  -1.155  0.00  0.00    +0.020 A 
ATOM     13  C   UNL     1      -0.010  -2.726   0.067  0.00  0.00    +0.113 A 
ATOM     14  N   UNL     1      -0.010  -2.038   1.193  0.00  0.00    -0.240 NA
ATOM     15  C   UNL     1      -0.036  -0.714   1.198  0.00  0.00    +0.127 A 
ENDBRANCH   1  15
BRANCH   3  16
ATOM     16  N   UNL     1      -0.022   1.345   4.875  0.00  0.00    -0.353 N 
ATOM     17  H   UNL     1      -0.051   1.858   4.052  0.00  0.00    +0.143 HD
ATOM     18  H   UNL     1      -0.019   1.802   5.731  0.00  0.00    +0.143 HD
ENDBRANCH   3  16
BRANCH   4  19
ATOM     19  N   UNL     1       0.064  -0.190   7.243  0.00  0.00    -0.296 N 
ATOM     20  H   UNL     1       0.126   0.777   7.301  0.00  0.00    +0.154 HD
BRANCH  19  21
ATOM     21  C   UNL     1      -0.019  -0.954   8.407  0.00  0.00    +0.059 A 
ATOM     22  C   UNL     1      -0.599  -2.204   8.377  0.00  0.00    +0.025 A 
ATOM     23  C   UNL     1      -0.688  -2.976   9.531  0.00  0.00    +0.003 A 
ATOM     24  C   UNL     1      -0.206  -2.518  10.720  0.00  0.00    +0.010 A 
ATOM     25  C   UNL     1       0.392  -1.250  10.792  0.00  0.00    +0.002 A 
ATOM     26  C   UNL     1       0.494  -0.455   9.624  0.00  0.00    +0.092 A 
ATOM     27  N   UNL     1       1.067   0.750   9.688  0.00  0.00    -0.250 NA
ATOM     28  C   UNL     1       1.545   1.219  10.815  0.00  0.00    +0.039 A 
ATOM     29  C   UNL     1       1.482   0.487  11.999  0.00  0.00    +0.023 A 
ATOM     30  C   UNL     1       0.900  -0.748  12.005  0.00  0.00    +0.012 A 
ATOM     31  C   UNL     1       2.180   2.586  10.830  0.00  0.00    +0.065 C 
ENDBRANCH  19  21
ENDBRANCH   4  19
TORSDOF 4
