REMARK  Name = ZINC23372429
REMARK  8 active torsions:
REMARK  status: ('A' for Active; 'I' for Inactive)
REMARK    1  A    between atoms: C_1  and  C_2
REMARK    2  A    between atoms: C_5  and  C_35
REMARK    3  A    between atoms: C_10  and  C_12
REMARK    4  A    between atoms: C_12  and  N_13
REMARK    5  A    between atoms: N_16  and  C_19
REMARK    6  A    between atoms: C_19  and  C_20
REMARK    7  A    between atoms: N_22  and  C_23
REMARK    8  A    between atoms: C_24  and  C_32
REMARK                            x       y       z     vdW  Elec       q    Type
REMARK                         _______ _______ _______ _____ _____    ______ ____
ROOT
ATOM      1  C   UNL     1       4.458   7.708   4.329  0.00  0.00    +0.180 C 
ENDROOT
BRANCH   1   5
ATOM      2  N   UNL     1       3.427   4.321   2.024  0.00  0.00    +0.387 N 
ATOM      3  C   UNL     1       2.632   5.544   1.845  0.00  0.00    -0.063 C 
ATOM      4  C   UNL     1       2.819   6.454   3.062  0.00  0.00    +0.066 C 
ATOM      5  N   UNL     1       4.245   6.774   3.215  0.00  0.00    -0.298 NA
ATOM      6  C   UNL     1       5.041   5.552   3.394  0.00  0.00    +0.066 C 
ATOM      7  C   UNL     1       4.853   4.642   2.178  0.00  0.00    -0.063 C 
ATOM      8  H   UNL     1       3.089   3.828   2.947  0.00  0.00    -0.081 HD
BRANCH   2   9
ATOM      9  C   UNL     1       3.215   3.388   0.910  0.00  0.00    +0.019 C 
BRANCH   9  17
ATOM     10  C   UNL     1      -1.428  -0.533  -0.122  0.00  0.00    +0.009 C 
ATOM     11  C   UNL     1       0.002  -0.004   0.002  0.00  0.00    +0.004 C 
ATOM     12  C   UNL     1       0.834  -0.492  -1.186  0.00  0.00    +0.009 C 
ATOM     13  C   UNL     1       2.272   0.009  -1.045  0.00  0.00    +0.004 C 
ATOM     14  C   UNL     1       2.277   1.541  -1.048  0.00  0.00    +0.111 C 
ATOM     15  N   UNL     1       1.366   2.019  -0.000  0.00  0.00    -0.303 N 
ATOM     16  C   UNL     1      -0.019   1.528   0.010  0.00  0.00    +0.111 C 
ATOM     17  C   UNL     1       1.792   2.892   0.934  0.00  0.00    +0.199 C 
ATOM     18  O   UNL     1       1.030   3.279   1.795  0.00  0.00    -0.278 OA
ATOM     19  C   UNL     1       3.111  -0.507  -2.216  0.00  0.00    +0.009 C 
ENDBRANCH   9  17
ENDBRANCH   2   9
ENDBRANCH   1   5
BRANCH   1  20
ATOM     20  C   UNL     1       3.829   9.037   3.998  0.00  0.00    +0.232 C 
ATOM     21  O   UNL     1       3.260   9.191   2.938  0.00  0.00    -0.274 OA
ATOM     22  N   UNL     1       3.899  10.054   4.879  0.00  0.00    -0.278 N 
ATOM     23  H   UNL     1       4.415   9.915   5.840  0.00  0.00    +0.155 HD
BRANCH  22  24
ATOM     24  C   UNL     1       3.320  11.277   4.574  0.00  0.00    +0.084 A 
ATOM     25  C   UNL     1       3.283  12.430   5.346  0.00  0.00    +0.068 A 
ATOM     26  C   UNL     1       2.610  13.590   4.787  0.00  0.00    -0.023 A 
ATOM     27  C   UNL     1       2.076  13.410   3.560  0.00  0.00    -0.004 A 
ATOM     28  S   UNL     1       2.462  11.734   3.140  0.00  0.00    -0.077 S 
ATOM     29  C   UNL     1       1.324  14.417   2.745  0.00  0.00    +0.043 C 
ATOM     30  C   UNL     1       0.921  15.579   3.664  0.00  0.00    +0.005 C 
ATOM     31  C   UNL     1       2.143  16.009   4.481  0.00  0.00    +0.005 C 
ATOM     32  C   UNL     1       2.490  14.928   5.506  0.00  0.00    +0.037 C 
BRANCH  25  33
ATOM     33  C   UNL     1       3.903  12.476   6.673  0.00  0.00    +0.244 C 
ATOM     34  O   UNL     1       5.066  12.816   6.790  0.00  0.00    -0.270 OA
ATOM     35  N   UNL     1       3.186  12.143   7.764  0.00  0.00    -0.325 N 
ATOM     36  H   UNL     1       3.651  12.178   8.760  0.00  0.00    +0.145 HD
ATOM     37  H   UNL     1       2.135  11.835   7.659  0.00  0.00    +0.145 HD
ENDBRANCH  25  33
ENDBRANCH  22  24
ENDBRANCH   1  20
TORSDOF 6
