REMARK  Name = ZINC38827465
REMARK  7 active torsions:
REMARK  status: ('A' for Active; 'I' for Inactive)
REMARK    1  A    between atoms: C_1  and  C_2
REMARK    2  A    between atoms: C_2  and  O_3
REMARK    3  A    between atoms: O_3  and  C_4
REMARK    4  A    between atoms: C_6  and  C_11
REMARK    5  A    between atoms: C_9  and  O_10
REMARK    6  A    between atoms: N_12  and  N_13
REMARK    7  A    between atoms: C_14  and  C_20
REMARK                            x       y       z     vdW  Elec       q    Type
REMARK                         _______ _______ _______ _____ _____    ______ ____
ROOT
ATOM      1  N   UNL     1       1.574  -7.081  -0.140  0.00  0.00    -0.172 N 
ATOM      2  C   UNL     1       1.585  -8.550  -0.273  0.00  0.00    +0.264 C 
ATOM      3  N   UNL     1       3.015  -8.885  -0.355  0.00  0.00    -0.189 NA
ATOM      4  N   UNL     1       3.660  -7.835  -0.284  0.00  0.00    -0.219 N 
ATOM      5  C   UNL     1       2.878  -6.729  -0.161  0.00  0.00    +0.174 C 
ATOM      6  S   UNL     1       3.462  -5.124  -0.047  0.00  0.00    -0.015 S 
ATOM      7  H   UNL     1       4.629  -7.802  -0.317  0.00  0.00    +0.176 HD
ENDROOT
BRANCH   2   8
ATOM      8  C   UNL     1       0.867  -8.974  -1.528  0.00  0.00    -0.002 A 
ATOM      9  C   UNL     1      -0.167  -8.203  -2.025  0.00  0.00    +0.009 A 
ATOM     10  C   UNL     1      -0.827  -8.591  -3.176  0.00  0.00    +0.020 A 
ATOM     11  C   UNL     1      -0.452  -9.751  -3.830  0.00  0.00    +0.041 A 
ATOM     12  C   UNL     1       0.583 -10.522  -3.332  0.00  0.00    +0.020 A 
ATOM     13  C   UNL     1       1.245 -10.130  -2.184  0.00  0.00    +0.009 A 
ATOM     14 CL   UNL     1      -1.280 -10.239  -5.276  0.00  0.00    -0.084 Cl
ENDBRANCH   2   8
BRANCH   1  16
ATOM     15  C   UNL     1       0.625  -4.970   0.192  0.00  0.00    +0.138 C 
ATOM     16  N   UNL     1       0.460  -6.239  -0.025  0.00  0.00    -0.183 NA
BRANCH  15  19
ATOM     17  C   UNL     1      -1.459  -1.858   0.454  0.00  0.00    +0.162 A 
ATOM     18  C   UNL     1      -0.363  -2.700   0.441  0.00  0.00    +0.059 A 
ATOM     19  C   UNL     1      -0.539  -4.067   0.208  0.00  0.00    -0.002 A 
ATOM     20  C   UNL     1      -1.823  -4.575  -0.011  0.00  0.00    +0.013 A 
ATOM     21  C   UNL     1      -2.911  -3.728   0.003  0.00  0.00    +0.050 A 
ATOM     22  C   UNL     1      -2.736  -2.373   0.240  0.00  0.00    +0.158 A 
BRANCH  22  23
ATOM     23  O   UNL     1      -3.813  -1.543   0.259  0.00  0.00    -0.503 OA
ATOM     24  H   UNL     1      -4.035  -1.167  -0.604  0.00  0.00    +0.292 HD
ENDBRANCH  22  23
BRANCH  17  25
ATOM     25  O   UNL     1      -1.292  -0.527   0.680  0.00  0.00    -0.489 OA
BRANCH  25  27
ATOM     26  C   UNL     1       0.034   1.443   1.127  0.00  0.00    +0.048 C 
ATOM     27  C   UNL     1       0.045  -0.069   0.891  0.00  0.00    +0.226 C 
ENDBRANCH  25  27
ENDBRANCH  17  25
ENDBRANCH  15  19
ENDBRANCH   1  16
TORSDOF 6
