REMARK  Name = ZINC38756879
REMARK  5 active torsions:
REMARK  status: ('A' for Active; 'I' for Inactive)
REMARK    1  A    between atoms: C_1  and  C_2
REMARK    2  A    between atoms: N_4  and  C_5
REMARK    3  A    between atoms: C_8  and  N_11
REMARK    4  A    between atoms: C_12  and  C_14
REMARK    5  A    between atoms: C_14  and  C_15
REMARK                            x       y       z     vdW  Elec       q    Type
REMARK                         _______ _______ _______ _____ _____    ______ ____
ROOT
ATOM      1  N   UNL     1       0.091  -8.359   1.351  0.00  0.00    -0.285 N 
ATOM      2  C   UNL     1      -1.215  -8.572   1.096  0.00  0.00    +0.219 C 
ATOM      3  O   UNL     1      -1.931  -9.046   1.953  0.00  0.00    -0.275 OA
ATOM      4  H   UNL     1       0.678  -8.045   0.646  0.00  0.00    +0.155 HD
ENDROOT
BRANCH   1   8
ATOM      5  C   UNL     1       1.608  -9.052   5.173  0.00  0.00    +0.033 A 
ATOM      6  C   UNL     1       2.106  -8.006   4.408  0.00  0.00    +0.025 A 
ATOM      7  C   UNL     1       1.604  -7.777   3.142  0.00  0.00    +0.025 A 
ATOM      8  C   UNL     1       0.601  -8.592   2.635  0.00  0.00    +0.033 A 
ATOM      9  C   UNL     1       0.103  -9.638   3.401  0.00  0.00    +0.025 A 
ATOM     10  C   UNL     1       0.609  -9.871   4.664  0.00  0.00    +0.025 A 
BRANCH   5  14
ATOM     11  C   UNL     1       2.887 -10.802   8.252  0.00  0.00    +0.109 C 
ATOM     12  C   UNL     1       2.240 -10.546   6.915  0.00  0.00    +0.214 C 
ATOM     13  O   UNL     1       1.830 -11.474   6.252  0.00  0.00    -0.276 OA
ATOM     14  N   UNL     1       2.117  -9.284   6.457  0.00  0.00    -0.286 N 
ATOM     15  H   UNL     1       2.381  -8.537   7.017  0.00  0.00    +0.155 HD
ENDBRANCH   5  14
ENDBRANCH   1   8
BRANCH   2  16
ATOM     16  C   UNL     1      -1.786  -8.220  -0.253  0.00  0.00    +0.122 C 
BRANCH  16  17
ATOM     17  C   UNL     1      -3.296  -8.468  -0.249  0.00  0.00    +0.112 C 
ATOM     18  C   UNL     1      -3.558  -9.966   0.033  0.00  0.00    +0.103 C 
ATOM     19  S   UNL     1      -5.075 -10.187  -0.987  0.00  0.00    -0.086 S 
ATOM     20  C   UNL     1      -4.841  -8.805  -2.088  0.00  0.00    +0.172 A 
ATOM     21  N   UNL     1      -3.852  -8.043  -1.538  0.00  0.00    -0.283 N 
ATOM     22  C   UNL     1      -3.474  -6.936  -2.242  0.00  0.00    +0.258 A 
ATOM     23  O   UNL     1      -2.578  -6.225  -1.817  0.00  0.00    -0.267 OA
ATOM     24  C   UNL     1      -4.109  -6.609  -3.453  0.00  0.00    +0.038 A 
ATOM     25  C   UNL     1      -5.096  -7.415  -3.921  0.00  0.00    +0.052 A 
ATOM     26  N   UNL     1      -5.435  -8.492  -3.214  0.00  0.00    -0.228 NA
ATOM     27  C   UNL     1      -5.828  -7.151  -5.209  0.00  0.00    +0.056 C 
ATOM     28  C   UNL     1      -5.626  -5.703  -5.654  0.00  0.00    +0.006 C 
ATOM     29  C   UNL     1      -4.123  -5.397  -5.632  0.00  0.00    +0.005 C 
ATOM     30  C   UNL     1      -3.660  -5.368  -4.177  0.00  0.00    +0.042 C 
ENDBRANCH  16  17
ENDBRANCH   2  16
TORSDOF 4
