REMARK  Name = ZINC59292020
REMARK  4 active torsions:
REMARK  status: ('A' for Active; 'I' for Inactive)
REMARK    1  A    between atoms: C_7  and  C_11
REMARK    2  A    between atoms: C_11  and  C_12
REMARK    3  A    between atoms: C_12  and  N_13
REMARK    4  A    between atoms: C_20  and  N_23
REMARK                            x       y       z     vdW  Elec       q    Type
REMARK                         _______ _______ _______ _____ _____    ______ ____
ROOT
ATOM      1  N   UNL     1       2.506  -2.888   5.045  0.00  0.00    -0.299 N 
ATOM      2  C   UNL     1       2.566  -2.559   6.351  0.00  0.00    +0.302 C 
ATOM      3  O   UNL     1       2.970  -1.461   6.683  0.00  0.00    -0.253 OA
ATOM      4  N   UNL     1       2.178  -3.446   7.288  0.00  0.00    -0.287 N 
ATOM      5  C   UNL     1       1.802  -4.816   6.911  0.00  0.00    +0.109 C 
ATOM      6  C   UNL     1       2.626  -5.801   7.746  0.00  0.00    +0.017 C 
ATOM      7  C   UNL     1       2.441  -5.484   9.232  0.00  0.00    -0.012 C 
ATOM      8  C   UNL     1       2.944  -4.067   9.520  0.00  0.00    -0.051 C 
ATOM      9  C   UNL     1       2.129  -3.065   8.706  0.00  0.00    +0.094 C 
ATOM     10  H   UNL     1       2.253  -3.786   4.782  0.00  0.00    +0.150 HD
ENDROOT
BRANCH   8  11
ATOM     11  N   UNL     1       2.795  -3.776  10.952  0.00  0.00    +0.383 N 
ATOM     12  C   UNL     1       3.651  -4.689  11.752  0.00  0.00    -0.078 C 
ATOM     13  C   UNL     1       3.828  -3.928  13.090  0.00  0.00    -0.020 C 
ATOM     14  C   UNL     1       3.938  -2.454  12.637  0.00  0.00    -0.020 C 
ATOM     15  C   UNL     1       3.277  -2.409  11.247  0.00  0.00    -0.078 C 
ATOM     16  H   UNL     1       1.829  -3.871  11.228  0.00  0.00    -0.081 HD
ENDBRANCH   8  11
BRANCH   1  17
ATOM     17  C   UNL     1       2.824  -1.888   4.022  0.00  0.00    +0.113 C 
BRANCH  17  18
ATOM     18  C   UNL     1       2.679  -2.514   2.634  0.00  0.00    +0.095 C 
BRANCH  18  25
ATOM     19  C   UNL     1      -0.022   1.539   0.022  0.00  0.00    +0.002 C 
ATOM     20  C   UNL     1       1.401   2.089   0.008  0.00  0.00    +0.008 C 
ATOM     21  C   UNL     1       2.304   1.155  -0.804  0.00  0.00    +0.076 C 
ATOM     22  C   UNL     1       2.857   0.089   0.107  0.00  0.00    +0.133 A 
ATOM     23  N   UNL     1       4.093  -0.309   0.192  0.00  0.00    -0.134 NA
ATOM     24  N   UNL     1       4.184  -1.249   1.068  0.00  0.00    -0.134 NA
ATOM     25  C   UNL     1       3.006  -1.486   1.582  0.00  0.00    +0.135 A 
ATOM     26  N   UNL     1       2.136  -0.635   0.994  0.00  0.00    -0.315 N 
ATOM     27  C   UNL     1       0.704  -0.506   1.266  0.00  0.00    +0.125 C 
ATOM     28  C   UNL     1      -0.006   0.012   0.012  0.00  0.00    +0.022 C 
ENDBRANCH  18  25
ENDBRANCH  17  18
ENDBRANCH   1  17
TORSDOF 4
