REMARK  Name = ZINC06812707
REMARK  8 active torsions:
REMARK  status: ('A' for Active; 'I' for Inactive)
REMARK    1  A    between atoms: C_1  and  N_50
REMARK    2  A    between atoms: C_2  and  N_50
REMARK    3  A    between atoms: C_3  and  C_4
REMARK    4  A    between atoms: C_3  and  N_50
REMARK    5  A    between atoms: C_4  and  N_5
REMARK    6  A    between atoms: C_6  and  C_24
REMARK    7  A    between atoms: C_9  and  C_10
REMARK    8  A    between atoms: C_9  and  O_19
REMARK                            x       y       z     vdW  Elec       q    Type
REMARK                         _______ _______ _______ _____ _____    ______ ____
ROOT
ATOM      1  N   UNL     1      -0.017   1.337  -0.002  0.00  0.00    -0.285 N 
ATOM      2  C   UNL     1       1.358   1.815  -0.172  0.00  0.00    +0.145 C 
ATOM      3  C   UNL     1       2.260   0.620   0.035  0.00  0.00    +0.074 C 
ATOM      4  C   UNL     1       3.644   0.601  -0.030  0.00  0.00    +0.168 C 
ATOM      5  C   UNL     1       1.415  -0.464   0.307  0.00  0.00    +0.249 C 
ATOM      6  O   UNL     1       1.770  -1.607   0.531  0.00  0.00    -0.282 OA
ATOM      7  C   UNL     1       0.010   0.022   0.274  0.00  0.00    +0.288 C 
ATOM      8  O   UNL     1      -0.969  -0.668   0.470  0.00  0.00    -0.266 OA
ENDROOT
BRANCH   4   9
ATOM      9  C   UNL     1       4.362  -0.669   0.066  0.00  0.00    +0.171 A 
ATOM     10  C   UNL     1       5.443  -0.904   0.863  0.00  0.00    +0.061 A 
ATOM     11  C   UNL     1       5.822  -2.253   0.653  0.00  0.00    +0.021 A 
ATOM     12  C   UNL     1       6.836  -3.066   1.174  0.00  0.00    +0.011 A 
ATOM     13  C   UNL     1       6.948  -4.362   0.756  0.00  0.00    +0.001 A 
ATOM     14  C   UNL     1       6.064  -4.878  -0.181  0.00  0.00    +0.004 A 
ATOM     15  C   UNL     1       5.058  -4.096  -0.706  0.00  0.00    +0.047 A 
ATOM     16  C   UNL     1       4.924  -2.775  -0.297  0.00  0.00    +0.136 A 
ATOM     17  O   UNL     1       4.062  -1.790  -0.625  0.00  0.00    -0.452 OA
ENDBRANCH   4   9
BRANCH   2  18
ATOM     18  C   UNL     1       1.665   2.878   0.852  0.00  0.00    -0.020 A 
ATOM     19  C   UNL     1       1.209   2.760   2.156  0.00  0.00    +0.025 A 
ATOM     20  C   UNL     1       1.515   3.752   3.068  0.00  0.00    +0.111 A 
ATOM     21  N   UNL     1       2.222   4.805   2.708  0.00  0.00    -0.263 NA
ATOM     22  C   UNL     1       2.667   4.953   1.476  0.00  0.00    +0.111 A 
ATOM     23  C   UNL     1       2.406   3.999   0.510  0.00  0.00    +0.025 A 
ENDBRANCH   2  18
BRANCH   4  24
ATOM     24  O   UNL     1       4.329   1.755  -0.183  0.00  0.00    -0.503 OA
ATOM     25  H   UNL     1       5.310   1.560  -0.211  0.00  0.00    +0.292 HD
ENDBRANCH   4  24
BRANCH   1  26
ATOM     26  C   UNL     1      -1.225   2.157  -0.121  0.00  0.00    +0.090 C 
BRANCH  26  27
ATOM     27  C   UNL     1      -1.581   2.741   1.248  0.00  0.00    -0.060 C 
BRANCH  27  30
ATOM     28  C   UNL     1      -3.301   3.947   2.452  0.00  0.00    -0.097 C 
ATOM     29  C   UNL     1      -2.544   4.749   0.296  0.00  0.00    -0.097 C 
ATOM     30  N   UNL     1      -2.812   3.548   1.115  0.00  0.00    +0.377 N 
ATOM     31  H   UNL     1      -3.534   2.983   0.652  0.00  0.00    -0.083 HD
ENDBRANCH  27  30
ENDBRANCH  26  27
ENDBRANCH   1  26
TORSDOF 6
