REMARK  Name = ZINC23157168
REMARK  5 active torsions:
REMARK  status: ('A' for Active; 'I' for Inactive)
REMARK    1  A    between atoms: C_8  and  C_20
REMARK    2  A    between atoms: N_10  and  C_12
REMARK    3  A    between atoms: C_12  and  C_13
REMARK    4  A    between atoms: C_16  and  O_19
REMARK    5  A    between atoms: C_25  and  C_28
REMARK                            x       y       z     vdW  Elec       q    Type
REMARK                         _______ _______ _______ _____ _____    ______ ____
ROOT
ATOM      1  C   UNL     1       3.632   3.490  -0.121  0.00  0.00    +0.000 A 
ATOM      2  C   UNL     1       2.433   4.160  -0.275  0.00  0.00    +0.000 A 
ATOM      3  C   UNL     1       1.242   3.466  -0.194  0.00  0.00    +0.002 A 
ATOM      4  C   UNL     1       1.242   2.099   0.042  0.00  0.00    -0.061 A 
ATOM      5  C   UNL     1       2.438   1.431   0.193  0.00  0.00    -0.047 A 
ATOM      6  C   UNL     1       3.633   2.130   0.112  0.00  0.00    +0.004 A 
ATOM      7  C   UNL     1       2.489  -0.053   0.446  0.00  0.00    +0.029 C 
ATOM      8  C   UNL     1       1.119  -0.551   0.908  0.00  0.00    +0.025 C 
ATOM      9  N   UNL     1       0.101  -0.059  -0.034  0.00  0.00    +0.393 N 
ATOM     10  C   UNL     1      -0.083   1.387   0.127  0.00  0.00    -0.041 C 
ATOM     11  H   UNL     1       0.451  -0.250  -1.059  0.00  0.00    -0.080 HD
ENDROOT
BRANCH   8  12
ATOM     12  C   UNL     1       1.107  -2.058   0.925  0.00  0.00    +0.202 C 
ATOM     13  O   UNL     1       0.634  -2.671  -0.009  0.00  0.00    -0.277 OA
ATOM     14  N   UNL     1       1.621  -2.724   1.977  0.00  0.00    -0.303 N 
ATOM     15  C   UNL     1       2.115  -1.998   3.155  0.00  0.00    +0.108 C 
ATOM     16  C   UNL     1       1.423  -2.565   4.404  0.00  0.00    +0.032 C 
ATOM     17  C   UNL     1       1.646  -4.078   4.460  0.00  0.00    +0.078 C 
ATOM     18  C   UNL     1       1.023  -4.734   3.226  0.00  0.00    +0.032 C 
ATOM     19  C   UNL     1       1.704  -4.191   1.966  0.00  0.00    +0.108 C 
BRANCH  17  20
ATOM     20  C   UNL     1       1.001  -4.634   5.704  0.00  0.00    +0.214 C 
ATOM     21  O   UNL     1       0.129  -5.472   5.612  0.00  0.00    -0.276 OA
ATOM     22  N   UNL     1       1.393  -4.200   6.918  0.00  0.00    -0.329 N 
ATOM     23  H   UNL     1       0.922  -4.606   7.826  0.00  0.00    +0.145 HD
ATOM     24  H   UNL     1       2.184  -3.440   7.002  0.00  0.00    +0.145 HD
ENDBRANCH  17  20
ENDBRANCH   8  12
BRANCH   9  25
ATOM     25  C   UNL     1      -1.170  -0.774   0.142  0.00  0.00    -0.041 C 
BRANCH  25  26
ATOM     26  C   UNL     1      -1.675  -0.561   1.546  0.00  0.00    -0.064 A 
ATOM     27  C   UNL     1      -1.313  -1.440   2.551  0.00  0.00    +0.005 A 
ATOM     28  C   UNL     1      -1.770  -1.244   3.839  0.00  0.00    +0.045 A 
ATOM     29  C   UNL     1      -2.602  -0.171   4.123  0.00  0.00    +0.117 A 
ATOM     30  C   UNL     1      -2.968   0.707   3.113  0.00  0.00    +0.045 A 
ATOM     31  C   UNL     1      -2.504   0.509   1.827  0.00  0.00    +0.005 A 
BRANCH  29  32
ATOM     32  O   UNL     1      -3.057   0.021   5.389  0.00  0.00    -0.507 OA
ATOM     33  H   UNL     1      -3.717   0.873   5.614  0.00  0.00    +0.292 HD
ENDBRANCH  29  32
ENDBRANCH  25  26
ENDBRANCH   9  25
TORSDOF 5
