REMARK  Name = ZINC16935888
REMARK  8 active torsions:
REMARK  status: ('A' for Active; 'I' for Inactive)
REMARK    1  A    between atoms: C_1  and  C_2
REMARK    2  A    between atoms: C_2  and  N_3
REMARK    3  A    between atoms: C_7  and  C_8
REMARK    4  A    between atoms: C_13  and  O_14
REMARK    5  A    between atoms: O_14  and  C_15
REMARK    6  A    between atoms: C_15  and  C_16
REMARK    7  A    between atoms: N_20  and  C_21
REMARK    8  A    between atoms: C_25  and  O_27
REMARK                            x       y       z     vdW  Elec       q    Type
REMARK                         _______ _______ _______ _____ _____    ______ ____
ROOT
ATOM      1  N   UNL     1      -5.023   1.507   0.397  0.00  0.00    -0.246 N 
ATOM      2  C   UNL     1      -5.763   1.787   1.456  0.00  0.00    +0.259 C 
ATOM      3  O   UNL     1      -6.861   1.286   1.616  0.00  0.00    -0.269 OA
ATOM      4  C   UNL     1      -5.199   2.735   2.435  0.00  0.00    +0.078 C 
ATOM      5  C   UNL     1      -5.732   3.194   3.596  0.00  0.00    +0.032 C 
ATOM      6  S   UNL     1      -3.620   3.110   1.687  0.00  0.00    -0.049 S 
ATOM      7  C   UNL     1      -3.783   2.086   0.233  0.00  0.00    +0.168 C 
ATOM      8  N   UNL     1      -2.927   1.920  -0.750  0.00  0.00    -0.225 NA
ENDROOT
BRANCH   5   9
ATOM      9  C   UNL     1      -5.059   4.266   4.340  0.00  0.00    +0.018 A 
ATOM     10  C   UNL     1      -4.108   5.074   3.706  0.00  0.00    +0.011 A 
ATOM     11  C   UNL     1      -3.483   6.080   4.410  0.00  0.00    +0.001 A 
ATOM     12  C   UNL     1      -3.785   6.290   5.746  0.00  0.00    +0.004 A 
ATOM     13  C   UNL     1      -4.718   5.497   6.386  0.00  0.00    +0.046 A 
ATOM     14  C   UNL     1      -5.360   4.483   5.695  0.00  0.00    +0.128 A 
BRANCH  14  15
ATOM     15  O   UNL     1      -6.276   3.703   6.323  0.00  0.00    -0.480 OA
BRANCH  15  16
ATOM     16  C   UNL     1      -6.531   3.983   7.701  0.00  0.00    +0.353 C 
BRANCH  16  17
ATOM     17  C   UNL     1      -7.568   3.023   8.225  0.00  0.00    +0.393 C 
ATOM     18  O   UNL     1      -8.040   2.185   7.494  0.00  0.00    -0.243 OA
ATOM     19  O   UNL     1      -7.966   3.099   9.505  0.00  0.00    -0.243 OA
ENDBRANCH  16  17
ENDBRANCH  15  16
ENDBRANCH  14  15
ENDBRANCH   5   9
BRANCH   8  20
ATOM     20  C   UNL     1      -1.733   2.587  -0.737  0.00  0.00    +0.070 A 
ATOM     21  C   UNL     1      -1.691   3.944  -0.406  0.00  0.00    +0.028 A 
ATOM     22  C   UNL     1      -0.486   4.615  -0.399  0.00  0.00    +0.006 A 
ATOM     23  C   UNL     1       0.684   3.948  -0.715  0.00  0.00    +0.045 A 
ATOM     24  C   UNL     1       0.653   2.598  -1.040  0.00  0.00    +0.119 A 
ATOM     25  C   UNL     1      -0.551   1.915  -1.050  0.00  0.00    +0.073 A 
BRANCH  24  26
ATOM     26  O   UNL     1       1.806   1.948  -1.350  0.00  0.00    -0.507 OA
ATOM     27  H   UNL     1       2.028   1.968  -2.291  0.00  0.00    +0.292 HD
ENDBRANCH  24  26
ENDBRANCH   8  20
BRANCH   1  29
ATOM     28  C   UNL     1      -5.096  -0.849  -0.253  0.00  0.00    +0.025 C 
ATOM     29  C   UNL     1      -5.527   0.574  -0.614  0.00  0.00    +0.112 C 
ENDBRANCH   1  29
TORSDOF 7
