REMARK  Name = ZINC12483614
REMARK  12 active torsions:
REMARK  status: ('A' for Active; 'I' for Inactive)
REMARK    1  A    between atoms: C_1  and  C_2
REMARK    2  A    between atoms: C_5  and  C_8
REMARK    3  A    between atoms: C_8  and  C_10
REMARK    4  A    between atoms: C_8  and  N_19
REMARK    5  A    between atoms: N_12  and  C_13
REMARK    6  A    between atoms: C_13  and  C_14
REMARK    7  A    between atoms: N_19  and  C_20
REMARK    8  A    between atoms: C_23  and  C_26
REMARK    9  A    between atoms: C_26  and  C_28
REMARK   10  A    between atoms: C_29  and  C_31
REMARK   11  A    between atoms: C_31  and  N_32
REMARK   12  A    between atoms: C_33  and  C_35
REMARK                            x       y       z     vdW  Elec       q    Type
REMARK                         _______ _______ _______ _____ _____    ______ ____
ROOT
ATOM      1  N   UNL     1       2.581   1.642  -0.210  0.00  0.00    -0.254 N 
ATOM      2  C   UNL     1       3.329   1.911   0.878  0.00  0.00    +0.238 C 
ATOM      3  O   UNL     1       2.828   2.453   1.840  0.00  0.00    -0.274 OA
ENDROOT
BRANCH   1   4
ATOM      4  C   UNL     1       3.177   1.111  -1.352  0.00  0.00    +0.038 A 
ATOM      5  C   UNL     1       3.663  -0.193  -1.339  0.00  0.00    +0.024 A 
ATOM      6  C   UNL     1       4.246  -0.721  -2.461  0.00  0.00    +0.013 A 
ATOM      7  C   UNL     1       4.361   0.057  -3.620  0.00  0.00    +0.017 A 
ATOM      8  C   UNL     1       3.876   1.371  -3.627  0.00  0.00    +0.013 A 
ATOM      9  C   UNL     1       3.290   1.889  -2.501  0.00  0.00    +0.024 A 
BRANCH   7  10
ATOM     10  C   UNL     1       4.989  -0.502  -4.824  0.00  0.00    +0.160 C 
ATOM     11  O   UNL     1       5.186   0.205  -5.789  0.00  0.00    -0.292 OA
ATOM     12  C   UNL     1       5.389  -1.955  -4.859  0.00  0.00    +0.091 C 
ENDBRANCH   7  10
ENDBRANCH   1   4
BRANCH   1  13
ATOM     13  C   UNL     1       1.140   1.908  -0.192  0.00  0.00    +0.197 C 
BRANCH  13  18
ATOM     14  C   UNL     1      -1.070   0.895  -5.434  0.00  0.00    +0.044 C 
ATOM     15  C   UNL     1      -0.494   1.159  -4.067  0.00  0.00    -0.050 A 
ATOM     16  C   UNL     1      -0.640   2.404  -3.484  0.00  0.00    +0.004 A 
ATOM     17  C   UNL     1      -0.111   2.647  -2.230  0.00  0.00    +0.006 A 
ATOM     18  C   UNL     1       0.564   1.644  -1.559  0.00  0.00    -0.018 A 
ATOM     19  C   UNL     1       0.714   0.401  -2.144  0.00  0.00    +0.006 A 
ATOM     20  C   UNL     1       0.181   0.157  -3.396  0.00  0.00    +0.004 A 
ENDBRANCH  13  18
BRANCH  13  21
ATOM     21  C   UNL     1       0.476   1.007   0.816  0.00  0.00    +0.239 C 
ATOM     22  O   UNL     1       1.140   0.220   1.457  0.00  0.00    -0.273 OA
ATOM     23  N   UNL     1      -0.858   1.072   1.002  0.00  0.00    -0.306 N 
ATOM     24  H   UNL     1      -1.389   1.701   0.490  0.00  0.00    +0.149 HD
BRANCH  23  25
ATOM     25  C   UNL     1      -1.505   0.192   1.978  0.00  0.00    +0.178 C 
BRANCH  25  26
ATOM     26  C   UNL     1      -2.987   0.461   1.993  0.00  0.00    +0.122 A 
ATOM     27  C   UNL     1      -3.906  -0.151   1.225  0.00  0.00    +0.046 A 
ATOM     28  C   UNL     1      -5.160   0.405   1.564  0.00  0.00    +0.041 A 
ATOM     29  C   UNL     1      -4.933   1.325   2.519  0.00  0.00    +0.195 A 
ATOM     30  O   UNL     1      -3.616   1.350   2.779  0.00  0.00    -0.466 OA
ENDBRANCH  25  26
ENDBRANCH  23  25
ENDBRANCH  13  21
ENDBRANCH   1  13
BRANCH   2  31
ATOM     31  C   UNL     1       4.789   1.537   0.899  0.00  0.00    +0.201 C 
BRANCH  31  32
ATOM     32  N   UNL     1       5.353   1.844   2.216  0.00  0.00    -0.300 N 
ATOM     33  C   UNL     1       6.652   1.592   2.468  0.00  0.00    +0.280 C 
ATOM     34  O   UNL     1       7.358   1.110   1.602  0.00  0.00    -0.267 OA
ATOM     35  H   UNL     1       4.790   2.229   2.907  0.00  0.00    +0.150 HD
BRANCH  33  36
ATOM     36  C   UNL     1       7.217   1.899   3.787  0.00  0.00    +0.189 A 
ATOM     37  C   UNL     1       8.510   1.695   4.173  0.00  0.00    +0.054 A 
ATOM     38  C   UNL     1       8.607   2.129   5.505  0.00  0.00    +0.042 A 
ATOM     39  C   UNL     1       7.383   2.574   5.868  0.00  0.00    +0.196 A 
ATOM     40  O   UNL     1       6.550   2.438   4.829  0.00  0.00    -0.458 OA
ENDBRANCH  33  36
ENDBRANCH  31  32
ENDBRANCH   2  31
TORSDOF 10
