REMARK  Name = ZINC00521886
REMARK  6 active torsions:
REMARK  status: ('A' for Active; 'I' for Inactive)
REMARK    1  A    between atoms: C_1  and  C_2
REMARK    2  A    between atoms: C_2  and  C_3
REMARK    3  A    between atoms: C_2  and  C_4
REMARK    4  A    between atoms: C_4  and  C_5
REMARK    5  A    between atoms: N_7  and  C_8
REMARK    6  A    between atoms: C_9  and  C_17
REMARK                            x       y       z     vdW  Elec       q    Type
REMARK                         _______ _______ _______ _____ _____    ______ ____
ROOT
ATOM      1  C   UNL     1       0.659  -2.056  -0.936  0.00  0.00    +0.137 A 
ATOM      2  C   UNL     1       1.286  -2.900  -1.830  0.00  0.00    +0.112 A 
ATOM      3  N   UNL     1       1.131  -4.161  -1.389  0.00  0.00    -0.226 NA
ATOM      4  C   UNL     1       0.430  -4.149  -0.266  0.00  0.00    +0.140 A 
ATOM      5  N   UNL     1       0.120  -2.845   0.043  0.00  0.00    -0.287 N 
ATOM      6  C   UNL     1      -0.606  -2.554   1.165  0.00  0.00    +0.094 A 
ATOM      7  C   UNL     1      -1.028  -3.538   1.984  0.00  0.00    +0.018 A 
ATOM      8  C   UNL     1      -0.727  -4.880   1.695  0.00  0.00    +0.005 A 
ATOM      9  C   UNL     1      -0.006  -5.187   0.584  0.00  0.00    +0.047 A 
ENDROOT
BRANCH   2  10
ATOM     10  C   UNL     1       2.005  -2.489  -3.058  0.00  0.00    +0.004 A 
ATOM     11  C   UNL     1       1.540  -1.392  -3.803  0.00  0.00    +0.011 A 
ATOM     12  C   UNL     1       2.181  -0.996  -4.933  0.00  0.00    +0.009 A 
ATOM     13  C   UNL     1       3.326  -1.686  -5.370  0.00  0.00    -0.018 A 
ATOM     14  C   UNL     1       4.008  -1.295  -6.535  0.00  0.00    +0.008 A 
ATOM     15  C   UNL     1       5.113  -1.983  -6.934  0.00  0.00    +0.001 A 
ATOM     16  C   UNL     1       5.583  -3.072  -6.202  0.00  0.00    +0.001 A 
ATOM     17  C   UNL     1       4.950  -3.480  -5.069  0.00  0.00    +0.008 A 
ATOM     18  C   UNL     1       3.804  -2.795  -4.626  0.00  0.00    -0.017 A 
ATOM     19  C   UNL     1       3.131  -3.185  -3.459  0.00  0.00    +0.018 A 
ENDBRANCH   2  10
BRANCH   1  22
ATOM     20  C   UNL     1      -0.488  -0.017  -0.524  0.00  0.00    +0.219 C 
ATOM     21  O   UNL     1      -1.440  -0.646  -0.111  0.00  0.00    -0.275 OA
ATOM     22  N   UNL     1       0.585  -0.664  -1.018  0.00  0.00    -0.270 N 
ATOM     23  H   UNL     1       1.306  -0.164  -1.431  0.00  0.00    +0.156 HD
BRANCH  20  24
ATOM     24  C   UNL     1      -0.508   1.490  -0.484  0.00  0.00    +0.099 C 
BRANCH  24  26
ATOM     25  C   UNL     1      -1.800   3.489   0.273  0.00  0.00    +0.008 C 
ATOM     26  C   UNL     1      -1.830   1.967   0.118  0.00  0.00    -0.008 C 
ATOM     27  C   UNL     1      -2.984   1.572  -0.806  0.00  0.00    +0.008 C 
ENDBRANCH  24  26
ENDBRANCH  20  24
ENDBRANCH   1  22
TORSDOF 4
