REMARK  Name = ZINC02240664
REMARK  11 active torsions:
REMARK  status: ('A' for Active; 'I' for Inactive)
REMARK    1  A    between atoms: C_1  and  C_2
REMARK    2  A    between atoms: C_6  and  O_9
REMARK    3  A    between atoms: C_7  and  C_8
REMARK    4  A    between atoms: O_9  and  C_10
REMARK    5  A    between atoms: C_10  and  C_11
REMARK    6  A    between atoms: N_13  and  N_14
REMARK    7  A    between atoms: N_22  and  C_25
REMARK    8  A    between atoms: C_25  and  N_72
REMARK    9  A    between atoms: C_27  and  C_36
REMARK   10  A    between atoms: C_32  and  C_34
REMARK   11  A    between atoms: C_32  and  C_35
REMARK                            x       y       z     vdW  Elec       q    Type
REMARK                         _______ _______ _______ _____ _____    ______ ____
ROOT
ATOM      1  N   UNL     1       1.807   3.052   0.001  0.00  0.00    -0.174 NA
ATOM      2  C   UNL     1       1.383   1.812  -0.001  0.00  0.00    +0.153 C 
ATOM      3  C   UNL     1       2.203   0.578  -0.016  0.00  0.00    +0.028 A 
ATOM      4  C   UNL     1       3.574   0.346  -0.030  0.00  0.00    +0.012 A 
ATOM      5  C   UNL     1       4.049  -0.950  -0.041  0.00  0.00    +0.001 A 
ATOM      6  C   UNL     1       3.163  -2.014  -0.038  0.00  0.00    +0.002 A 
ATOM      7  C   UNL     1       1.800  -1.794  -0.025  0.00  0.00    +0.024 A 
ATOM      8  C   UNL     1       1.303  -0.495  -0.013  0.00  0.00    +0.044 A 
ATOM      9  N   UNL     1       0.002  -0.004   0.002  0.00  0.00    -0.282 N 
ATOM     10  C   UNL     1      -0.016   1.340   0.009  0.00  0.00    +0.270 C 
ATOM     11  O   UNL     1      -1.009   2.043   0.018  0.00  0.00    -0.268 OA
ENDROOT
BRANCH   1  14
ATOM     12  C   UNL     1       1.322   5.383   0.019  0.00  0.00    +0.270 C 
ATOM     13  O   UNL     1       2.512   5.617   0.008  0.00  0.00    -0.270 OA
ATOM     14  N   UNL     1       0.886   4.108   0.016  0.00  0.00    -0.203 N 
ATOM     15  H   UNL     1      -0.066   3.920   0.025  0.00  0.00    +0.177 HD
BRANCH  12  16
ATOM     16  C   UNL     1       0.331   6.518   0.035  0.00  0.00    +0.326 C 
BRANCH  16  17
ATOM     17  O   UNL     1       1.032   7.763   0.035  0.00  0.00    -0.482 OA
BRANCH  17  23
ATOM     18  C   UNL     1       0.798  12.638   0.065  0.00  0.00    +0.044 C 
ATOM     19  C   UNL     1       0.130  11.287   0.064  0.00  0.00    -0.044 A 
ATOM     20  C   UNL     1      -1.250  11.199   0.076  0.00  0.00    +0.004 A 
ATOM     21  C   UNL     1      -1.866   9.961   0.076  0.00  0.00    +0.004 A 
ATOM     22  C   UNL     1      -1.104   8.809   0.062  0.00  0.00    +0.046 A 
ATOM     23  C   UNL     1       0.281   8.895   0.049  0.00  0.00    +0.124 A 
ATOM     24  C   UNL     1       0.896  10.138   0.055  0.00  0.00    -0.006 A 
ATOM     25  C   UNL     1       2.400  10.235   0.047  0.00  0.00    +0.048 C 
ENDBRANCH  17  23
ENDBRANCH  16  17
ENDBRANCH  12  16
ENDBRANCH   1  14
BRANCH   9  26
ATOM     26  C   UNL     1      -1.197  -0.846   0.009  0.00  0.00    +0.039 C 
BRANCH  26  37
ATOM     27  C   UNL     1      -0.916  -2.256  -1.977  0.00  0.00    -0.070 C 
ATOM     28  C   UNL     1      -1.979  -3.002  -2.818  0.00  0.00    -0.048 C 
ATOM     29  C   UNL     1      -3.123  -1.962  -2.971  0.00  0.00    -0.011 C 
ATOM     30  C   UNL     1      -3.052  -1.296  -1.568  0.00  0.00    -0.065 C 
ATOM     31  C   UNL     1      -3.654  -2.273  -0.573  0.00  0.00    -0.009 C 
ATOM     32  C   UNL     1      -3.243  -3.723  -0.709  0.00  0.00    -0.036 C 
ATOM     33  C   UNL     1      -2.535  -4.150  -1.978  0.00  0.00    +0.011 C 
ATOM     34  C   UNL     1      -2.373  -4.115   0.502  0.00  0.00    +0.011 C 
ATOM     35  C   UNL     1      -4.534  -4.576  -0.599  0.00  0.00    +0.011 C 
ATOM     36  C   UNL     1      -1.428  -3.469  -4.173  0.00  0.00    +0.009 C 
ATOM     37  N   UNL     1      -1.595  -1.086  -1.421  0.00  0.00    +0.393 N 
ATOM     38  H   UNL     1      -1.326  -0.259  -1.967  0.00  0.00    -0.079 HD
ENDBRANCH  26  37
ENDBRANCH   9  26
TORSDOF 6
