REMARK  Name = ZINC11450518
REMARK  5 active torsions:
REMARK  status: ('A' for Active; 'I' for Inactive)
REMARK    1  A    between atoms: C_6  and  O_28
REMARK    2  A    between atoms: C_7  and  C_11
REMARK    3  A    between atoms: C_16  and  N_19
REMARK    4  A    between atoms: N_19  and  S_20
REMARK    5  A    between atoms: S_20  and  C_23
REMARK                            x       y       z     vdW  Elec       q    Type
REMARK                         _______ _______ _______ _____ _____    ______ ____
ROOT
ATOM      1  C   UNL     1      -3.529   6.133  -3.340  0.00  0.00    +0.250 C 
ATOM      2  O   UNL     1      -2.929   6.983  -3.969  0.00  0.00    -0.270 OA
ATOM      3  N   UNL     1      -3.039   4.880  -3.262  0.00  0.00    -0.297 N 
ATOM      4  C   UNL     1      -1.829   4.502  -4.006  0.00  0.00    +0.109 C 
ATOM      5  C   UNL     1      -2.138   3.262  -4.851  0.00  0.00    +0.039 C 
ATOM      6  C   UNL     1      -2.690   2.158  -3.947  0.00  0.00    +0.080 C 
ATOM      7  C   UNL     1      -3.991   2.633  -3.294  0.00  0.00    +0.039 C 
ATOM      8  C   UNL     1      -3.703   3.866  -2.432  0.00  0.00    +0.109 C 
ENDROOT
BRANCH   1  15
ATOM      9  C   UNL     1      -7.504   6.639   1.299  0.00  0.00    +0.001 A 
ATOM     10  C   UNL     1      -8.542   7.207   0.563  0.00  0.00    +0.001 A 
ATOM     11  C   UNL     1      -8.405   7.452  -0.769  0.00  0.00    +0.008 A 
ATOM     12  C   UNL     1      -7.200   7.129  -1.417  0.00  0.00    -0.014 A 
ATOM     13  C   UNL     1      -7.030   7.370  -2.791  0.00  0.00    +0.054 A 
ATOM     14  C   UNL     1      -5.852   7.048  -3.398  0.00  0.00    +0.130 A 
ATOM     15  C   UNL     1      -4.795   6.473  -2.662  0.00  0.00    +0.079 A 
ATOM     16  C   UNL     1      -4.939   6.221  -1.307  0.00  0.00    +0.025 A 
ATOM     17  C   UNL     1      -6.143   6.551  -0.667  0.00  0.00    -0.017 A 
ATOM     18  C   UNL     1      -6.322   6.313   0.708  0.00  0.00    +0.008 A 
BRANCH  14  19
ATOM     19  O   UNL     1      -5.696   7.283  -4.726  0.00  0.00    -0.506 OA
ATOM     20  H   UNL     1      -5.964   6.545  -5.290  0.00  0.00    +0.292 HD
ENDBRANCH  14  19
ENDBRANCH   1  15
BRANCH   6  21
ATOM     21  N   UNL     1      -2.955   0.959  -4.746  0.00  0.00    -0.186 NA
ATOM     22  H   UNL     1      -3.272   1.045  -5.659  0.00  0.00    +0.148 HD
BRANCH  21  23
ATOM     23  S   UNL     1      -2.715  -0.543  -4.091  0.00  0.00    +0.065 S 
ATOM     24  O   UNL     1      -3.080  -1.485  -5.090  0.00  0.00    -0.153 OA
ATOM     25  O   UNL     1      -1.424  -0.525  -3.497  0.00  0.00    -0.153 OA
BRANCH  23  26
ATOM     26  C   UNL     1      -3.872  -0.730  -2.776  0.00  0.00    +0.142 A 
ATOM     27  C   UNL     1      -5.133  -1.226  -2.813  0.00  0.00    +0.036 A 
ATOM     28  C   UNL     1      -5.867  -1.278  -1.643  0.00  0.00    +0.010 A 
ATOM     29  C   UNL     1      -5.305  -0.831  -0.493  0.00  0.00    +0.047 A 
ATOM     30  S   UNL     1      -3.686  -0.321  -1.048  0.00  0.00    -0.077 S 
ENDBRANCH  23  26
ENDBRANCH  21  23
ENDBRANCH   6  21
TORSDOF 5
