REMARK  Name = ZINC43740709
REMARK  9 active torsions:
REMARK  status: ('A' for Active; 'I' for Inactive)
REMARK    1  A    between atoms: C_1  and  C_2
REMARK    2  A    between atoms: C_5  and  O_44
REMARK    3  A    between atoms: C_17  and  C_43
REMARK    4  A    between atoms: C_22  and  C_23
REMARK    5  A    between atoms: C_23  and  C_25
REMARK    6  A    between atoms: C_25  and  C_26
REMARK    7  A    between atoms: C_33  and  O_34
REMARK    8  A    between atoms: O_34  and  C_35
REMARK    9  A    between atoms: N_41  and  C_42
REMARK                            x       y       z     vdW  Elec       q    Type
REMARK                         _______ _______ _______ _____ _____    ______ ____
ROOT
ATOM      1  C   UNL     1      -0.329   1.977  -2.384  0.00  0.00    +0.016 C 
ATOM      2  C   UNL     1      -0.268   0.489  -2.000  0.00  0.00    -0.008 C 
ATOM      3  C   UNL     1       0.341  -0.265  -3.183  0.00  0.00    +0.014 C 
ATOM      4  C   UNL     1       1.790   0.163  -3.409  0.00  0.00    +0.032 C 
ATOM      5  C   UNL     1       2.637  -0.106  -2.167  0.00  0.00    +0.119 C 
ATOM      6  C   UNL     1       2.102   0.712  -0.988  0.00  0.00    +0.062 C 
ATOM      7  C   UNL     1       0.632   0.371  -0.812  0.00  0.00    -0.065 C 
ATOM      8  C   UNL     1       0.229  -0.033   0.354  0.00  0.00    -0.027 C 
ATOM      9  C   UNL     1      -1.172  -0.468   0.629  0.00  0.00    +0.031 C 
ATOM     10  C   UNL     1      -2.173   0.211  -0.324  0.00  0.00    +0.001 C 
ATOM     11  C   UNL     1      -1.703   0.062  -1.762  0.00  0.00    +0.003 C 
ATOM     12  C   UNL     1      -2.031  -1.287  -2.368  0.00  0.00    +0.005 C 
ATOM     13  C   UNL     1      -3.533  -1.608  -2.364  0.00  0.00    +0.012 C 
ATOM     14  C   UNL     1      -4.279  -0.691  -1.435  0.00  0.00    -0.001 C 
ATOM     15  C   UNL     1      -3.478  -0.524  -0.128  0.00  0.00    +0.007 C 
ATOM     16  C   UNL     1      -4.564   0.154   0.722  0.00  0.00    +0.032 C 
ATOM     17  C   UNL     1      -5.775  -0.704   0.343  0.00  0.00    -0.019 C 
ATOM     18  C   UNL     1      -5.599  -1.203  -0.898  0.00  0.00    -0.003 C 
ATOM     19  C   UNL     1      -4.608   0.638  -2.114  0.00  0.00    +0.016 C 
ENDROOT
BRANCH  18  20
ATOM     20  C   UNL     1      -6.512  -2.086  -1.615  0.00  0.00    +0.158 C 
ATOM     21  O   UNL     1      -7.548  -2.440  -1.093  0.00  0.00    -0.292 OA
BRANCH  20  22
ATOM     22  C   UNL     1      -6.168  -2.559  -3.003  0.00  0.00    +0.069 C 
BRANCH  22  23
ATOM     23  C   UNL     1      -7.342  -3.355  -3.576  0.00  0.00    -0.027 C 
ATOM     24  C   UNL     1      -8.594  -2.523  -3.493  0.00  0.00    -0.012 A 
ATOM     25  C   UNL     1      -9.805  -3.069  -3.120  0.00  0.00    -0.040 A 
ATOM     26  C   UNL     1     -10.936  -2.272  -3.059  0.00  0.00    +0.053 A 
ATOM     27  C   UNL     1     -10.863  -0.924  -3.368  0.00  0.00    +0.170 A 
ATOM     28  C   UNL     1      -9.645  -0.368  -3.743  0.00  0.00    +0.208 A 
ATOM     29  C   UNL     1      -8.513  -1.170  -3.804  0.00  0.00    +0.167 A 
ATOM     30  O   UNL     1      -9.830   0.962  -3.994  0.00  0.00    -0.449 OA
ATOM     31  C   UNL     1     -11.250   1.127  -4.165  0.00  0.00    +0.467 C 
ATOM     32  O   UNL     1     -11.814   0.056  -3.384  0.00  0.00    -0.452 OA
ATOM     33  C   UNL     1      -9.932  -4.530  -2.770  0.00  0.00    +0.017 C 
ATOM     34  C   UNL     1      -8.709  -5.293  -3.280  0.00  0.00    -0.074 C 
ATOM     35  N   UNL     1      -7.498  -4.599  -2.817  0.00  0.00    +0.383 N 
ATOM     36  C   UNL     1      -6.327  -5.459  -3.035  0.00  0.00    -0.095 C 
ATOM     37  H   UNL     1      -7.585  -4.387  -1.835  0.00  0.00    -0.081 HD
BRANCH  29  38
ATOM     38  O   UNL     1      -7.320  -0.629  -4.169  0.00  0.00    -0.491 OA
ATOM     39  C   UNL     1      -7.005  -0.636  -5.563  0.00  0.00    +0.277 C 
ENDBRANCH  29  38
ENDBRANCH  22  23
ENDBRANCH  20  22
ENDBRANCH  18  20
BRANCH   5  40
ATOM     40  O   UNL     1       2.588  -1.497  -1.843  0.00  0.00    -0.391 OA
ATOM     41  H   UNL     1       3.107  -1.738  -1.063  0.00  0.00    +0.210 HD
ENDBRANCH   5  40
TORSDOF 5
