REMARK  Name = ZINC39664664
REMARK  11 active torsions:
REMARK  status: ('A' for Active; 'I' for Inactive)
REMARK    1  A    between atoms: C_1  and  C_2
REMARK    2  A    between atoms: C_2  and  C_3
REMARK    3  A    between atoms: C_3  and  C_5
REMARK    4  A    between atoms: C_3  and  C_6
REMARK    5  A    between atoms: C_10  and  C_19
REMARK    6  A    between atoms: N_21  and  C_22
REMARK    7  A    between atoms: C_22  and  C_24
REMARK    8  A    between atoms: C_22  and  C_28
REMARK    9  A    between atoms: C_24  and  N_25
REMARK   10  A    between atoms: N_25  and  C_26
REMARK   11  A    between atoms: N_25  and  C_27
REMARK                            x       y       z     vdW  Elec       q    Type
REMARK                         _______ _______ _______ _____ _____    ______ ____
ROOT
ATOM      1  C   UNL     1      -1.552  -1.387   0.758  0.00  0.00    +0.218 C 
ATOM      2  O   UNL     1      -0.455  -1.902   0.797  0.00  0.00    -0.275 OA
ATOM      3  N   UNL     1      -2.653  -2.154   0.634  0.00  0.00    -0.300 N 
ATOM      4  C   UNL     1      -4.066  -1.711   0.563  0.00  0.00    +0.121 C 
ATOM      5  C   UNL     1      -4.713  -2.638  -0.491  0.00  0.00    +0.100 C 
ATOM      6  C   UNL     1      -3.830  -3.897  -0.502  0.00  0.00    -0.004 C 
ATOM      7  C   UNL     1      -2.725  -3.631   0.531  0.00  0.00    +0.115 C 
ATOM      8  C   UNL     1      -3.215  -4.099  -1.883  0.00  0.00    -0.010 C 
ATOM      9  C   UNL     1      -2.387  -5.388  -1.885  0.00  0.00    -0.082 C 
ATOM     10  N   UNL     1      -3.249  -6.525  -1.539  0.00  0.00    +0.379 N 
ATOM     11  C   UNL     1      -3.762  -6.367  -0.173  0.00  0.00    -0.082 C 
ATOM     12  C   UNL     1      -4.648  -5.120  -0.099  0.00  0.00    -0.010 C 
ATOM     13  H   UNL     1      -4.023  -6.567  -2.185  0.00  0.00    -0.086 HD
ATOM     14  H   UNL     1      -2.716  -7.379  -1.600  0.00  0.00    -0.086 HD
ENDROOT
BRANCH   5  15
ATOM     15  C   UNL     1      -6.122  -2.986  -0.089  0.00  0.00    +0.219 C 
ATOM     16  O   UNL     1      -6.411  -3.084   1.085  0.00  0.00    -0.275 OA
ATOM     17  N   UNL     1      -7.062  -3.190  -1.033  0.00  0.00    -0.310 N 
ATOM     18  H   UNL     1      -6.815  -3.190  -1.971  0.00  0.00    +0.149 HD
BRANCH  17  19
ATOM     19  C   UNL     1      -8.457  -3.410  -0.643  0.00  0.00    +0.087 C 
BRANCH  19  20
ATOM     20  C   UNL     1      -9.153  -4.223  -1.704  0.00  0.00    -0.029 A 
ATOM     21  C   UNL     1      -8.895  -3.980  -3.040  0.00  0.00    +0.005 A 
ATOM     22  C   UNL     1      -9.534  -4.726  -4.014  0.00  0.00    +0.000 A 
ATOM     23  C   UNL     1     -10.429  -5.714  -3.651  0.00  0.00    +0.000 A 
ATOM     24  C   UNL     1     -10.686  -5.957  -2.315  0.00  0.00    +0.000 A 
ATOM     25  C   UNL     1     -10.045  -5.215  -1.341  0.00  0.00    +0.005 A 
ENDBRANCH  19  20
BRANCH  19  26
ATOM     26  C   UNL     1      -9.163  -2.062  -0.489  0.00  0.00    -0.052 C 
BRANCH  26  27
ATOM     27  N   UNL     1     -10.520  -2.276   0.032  0.00  0.00    +0.377 N 
ATOM     28  C   UNL     1     -10.442  -2.803   1.401  0.00  0.00    -0.097 C 
ATOM     29  C   UNL     1     -11.249  -1.000   0.039  0.00  0.00    -0.097 C 
ATOM     30  H   UNL     1     -11.005  -2.937  -0.556  0.00  0.00    -0.083 HD
ENDBRANCH  26  27
ENDBRANCH  19  26
ENDBRANCH  17  19
ENDBRANCH   5  15
BRANCH   1  31
ATOM     31  C   UNL     1      -1.684   0.112   0.849  0.00  0.00    +0.072 C 
ATOM     32  C   UNL     1      -2.529   0.476   2.072  0.00  0.00    +0.017 C 
BRANCH  31  34
ATOM     33  C   UNL     1      -0.419   2.263   0.951  0.00  0.00    +0.004 C 
ATOM     34  C   UNL     1      -0.295   0.739   0.984  0.00  0.00    +0.009 C 
ENDBRANCH  31  34
ENDBRANCH   1  31
TORSDOF 7
