REMARK  Name = ZINC63375794
REMARK  5 active torsions:
REMARK  status: ('A' for Active; 'I' for Inactive)
REMARK    1  A    between atoms: C_1  and  C_2
REMARK    2  A    between atoms: C_4  and  C_34
REMARK    3  A    between atoms: C_6  and  N_8
REMARK    4  A    between atoms: C_9  and  O_33
REMARK    5  A    between atoms: C_11  and  C_18
REMARK                            x       y       z     vdW  Elec       q    Type
REMARK                         _______ _______ _______ _____ _____    ______ ____
ROOT
ATOM      1  N   UNL     1       0.052  -2.797   2.392  0.00  0.00    -0.255 N 
ATOM      2  C   UNL     1       0.153  -2.067   3.657  0.00  0.00    +0.222 C 
ATOM      3  C   UNL     1      -0.686  -2.773   4.724  0.00  0.00    +0.142 C 
ATOM      4  C   UNL     1      -0.398  -4.253   4.682  0.00  0.00    +0.227 C 
ATOM      5  O   UNL     1      -0.407  -4.902   5.705  0.00  0.00    -0.275 OA
ATOM      6  N   UNL     1      -0.130  -4.852   3.507  0.00  0.00    -0.267 N 
ATOM      7  C   UNL     1      -0.032  -4.137   2.374  0.00  0.00    +0.145 C 
ATOM      8  S   UNL     1      -0.007  -4.956   0.871  0.00  0.00    -0.018 S 
ATOM      9  H   UNL     1      -0.009  -5.814   3.478  0.00  0.00    +0.157 HD
ENDROOT
BRANCH   3  10
ATOM     10  C   UNL     1      -2.172  -2.533   4.449  0.00  0.00    +0.096 C 
ATOM     11  C   UNL     1      -3.010  -3.143   5.574  0.00  0.00    +0.124 C 
ATOM     12  C   UNL     1      -4.466  -3.012   5.140  0.00  0.00    -0.036 C 
ATOM     13  C   UNL     1      -5.096  -2.390   6.126  0.00  0.00    -0.001 A 
ATOM     14  C   UNL     1      -6.516  -2.056   6.327  0.00  0.00    +0.010 A 
ATOM     15  C   UNL     1      -6.818  -1.386   7.471  0.00  0.00    +0.001 A 
ATOM     16  C   UNL     1      -5.862  -1.019   8.423  0.00  0.00    +0.002 A 
ATOM     17  C   UNL     1      -4.536  -1.289   8.322  0.00  0.00    +0.026 A 
ATOM     18  C   UNL     1      -4.096  -1.996   7.165  0.00  0.00    +0.043 A 
ATOM     19  N   UNL     1      -2.888  -2.406   6.831  0.00  0.00    -0.376 N 
ATOM     20  C   UNL     1      -4.928  -3.461   3.775  0.00  0.00    +0.048 C 
ATOM     21  C   UNL     1      -3.924  -2.874   2.766  0.00  0.00    +0.085 C 
ATOM     22  N   UNL     1      -2.552  -3.180   3.183  0.00  0.00    -0.310 NA
ATOM     23  H   UNL     1      -1.894  -2.959   2.451  0.00  0.00    +0.122 HD
ATOM     24  H   UNL     1      -2.065  -2.249   7.319  0.00  0.00    +0.160 HD
ENDBRANCH   3  10
BRANCH   1  30
ATOM     25  C   UNL     1      -2.433  -0.186  -0.951  0.00  0.00    +0.044 C 
ATOM     26  C   UNL     1      -1.154  -0.813  -0.459  0.00  0.00    -0.048 A 
ATOM     27  C   UNL     1       0.007  -0.689  -1.200  0.00  0.00    +0.006 A 
ATOM     28  C   UNL     1       1.182  -1.263  -0.752  0.00  0.00    -0.048 A 
ATOM     29  C   UNL     1       1.201  -1.962   0.439  0.00  0.00    +0.027 A 
ATOM     30  C   UNL     1       0.037  -2.089   1.186  0.00  0.00    +0.038 A 
ATOM     31  C   UNL     1      -1.141  -1.507   0.736  0.00  0.00    +0.027 A 
ATOM     32  C   UNL     1       2.444  -1.125  -1.564  0.00  0.00    +0.044 C 
ENDBRANCH   1  30
BRANCH   2  33
ATOM     33  O   UNL     1       1.519  -2.025   4.075  0.00  0.00    -0.373 OA
ATOM     34  H   UNL     1       2.110  -1.590   3.446  0.00  0.00    +0.212 HD
ENDBRANCH   2  33
TORSDOF 3
