REMARK  Name = ZINC66983179
REMARK  6 active torsions:
REMARK  status: ('A' for Active; 'I' for Inactive)
REMARK    1  A    between atoms: C_1  and  N_2
REMARK    2  A    between atoms: N_2  and  C_3
REMARK    3  A    between atoms: N_2  and  C_4
REMARK    4  A    between atoms: C_4  and  C_10
REMARK    5  A    between atoms: C_10  and  N_11
REMARK    6  A    between atoms: C_20  and  C_22
REMARK                            x       y       z     vdW  Elec       q    Type
REMARK                         _______ _______ _______ _____ _____    ______ ____
ROOT
ATOM      1  N   UNL     1      -1.757   1.400   3.645  0.00  0.00    -0.301 N 
ATOM      2  C   UNL     1      -1.246   2.055   2.584  0.00  0.00    +0.302 C 
ATOM      3  O   UNL     1      -0.705   1.434   1.689  0.00  0.00    -0.253 OA
ATOM      4  N   UNL     1      -1.335   3.398   2.514  0.00  0.00    -0.283 N 
ATOM      5  C   UNL     1      -0.887   4.115   1.313  0.00  0.00    +0.128 C 
ATOM      6  C   UNL     1      -2.045   4.978   0.796  0.00  0.00    +0.127 C 
ATOM      7  N   UNL     1      -2.592   5.751   1.920  0.00  0.00    -0.298 N 
ATOM      8  C   UNL     1      -3.040   5.033   3.122  0.00  0.00    +0.127 C 
ATOM      9  C   UNL     1      -1.887   4.170   3.636  0.00  0.00    +0.128 C 
ATOM     10  C   UNL     1      -2.681   7.094   1.850  0.00  0.00    +0.219 C 
ATOM     11  O   UNL     1      -2.405   7.667   0.818  0.00  0.00    -0.275 OA
ATOM     12  H   UNL     1      -2.252   1.886   4.323  0.00  0.00    +0.150 HD
ENDROOT
BRANCH  10  13
ATOM     13  C   UNL     1      -3.123   7.883   3.056  0.00  0.00    +0.075 C 
ATOM     14  C   UNL     1      -4.595   7.589   3.347  0.00  0.00    +0.013 C 
ATOM     15  C   UNL     1      -5.044   8.391   4.570  0.00  0.00    +0.001 C 
ATOM     16  C   UNL     1      -4.867   9.885   4.293  0.00  0.00    +0.000 C 
ATOM     17  C   UNL     1      -3.394  10.180   4.003  0.00  0.00    +0.001 C 
ATOM     18  C   UNL     1      -2.946   9.378   2.779  0.00  0.00    +0.013 C 
ENDBRANCH  10  13
BRANCH   1  19
ATOM     19  C   UNL     1      -1.565  -0.047   3.775  0.00  0.00    +0.094 C 
BRANCH  19  20
ATOM     20  C   UNL     1      -2.129  -0.517   5.117  0.00  0.00    -0.050 C 
ATOM     21  C   UNL     1      -1.940  -2.030   5.248  0.00  0.00    -0.010 C 
ATOM     22  C   UNL     1      -2.678  -2.737   4.109  0.00  0.00    -0.001 C 
ATOM     23  C   UNL     1      -4.169  -2.401   4.181  0.00  0.00    -0.000 C 
ATOM     24  C   UNL     1      -4.358  -0.888   4.051  0.00  0.00    -0.001 C 
ATOM     25  C   UNL     1      -3.620  -0.182   5.190  0.00  0.00    -0.010 C 
BRANCH  20  27
ATOM     26  C   UNL     1      -1.901  -0.355   7.500  0.00  0.00    -0.096 C 
ATOM     27  N   UNL     1      -1.421   0.161   6.211  0.00  0.00    +0.381 N 
ATOM     28  C   UNL     1       0.021  -0.090   6.090  0.00  0.00    -0.096 C 
ATOM     29  H   UNL     1      -1.595   1.153   6.160  0.00  0.00    -0.082 HD
ENDBRANCH  20  27
ENDBRANCH  19  20
ENDBRANCH   1  19
TORSDOF 4
