REMARK  Name = ZINC02184766
REMARK  6 active torsions:
REMARK  status: ('A' for Active; 'I' for Inactive)
REMARK    1  A    between atoms: C_1  and  C_2
REMARK    2  A    between atoms: C_2  and  C_3
REMARK    3  A    between atoms: C_2  and  C_4
REMARK    4  A    between atoms: C_7  and  S_10
REMARK    5  A    between atoms: S_10  and  N_13
REMARK    6  A    between atoms: N_13  and  C_14
REMARK                            x       y       z     vdW  Elec       q    Type
REMARK                         _______ _______ _______ _____ _____    ______ ____
ROOT
ATOM      1  N   UNL     1       0.024  -0.502   1.581  0.00  0.00    -0.216 N 
ATOM      2  H   UNL     1       0.795  -0.976   1.930  0.00  0.00    +0.174 HD
ENDROOT
BRANCH   1   3
ATOM      3  C   UNL     1      -1.070  -0.239   2.413  0.00  0.00    +0.049 A 
ATOM      4  C   UNL     1      -2.365  -0.462   1.950  0.00  0.00    +0.028 A 
ATOM      5  C   UNL     1      -3.452  -0.209   2.757  0.00  0.00    +0.049 A 
ATOM      6  C   UNL     1      -3.265   0.274   4.046  0.00  0.00    +0.136 A 
ATOM      7  C   UNL     1      -1.959   0.500   4.517  0.00  0.00    +0.025 A 
ATOM      8  C   UNL     1      -0.864   0.236   3.695  0.00  0.00    +0.036 A 
ATOM      9  C   UNL     1      -2.123   0.998   5.882  0.00  0.00    +0.001 A 
ATOM     10  C   UNL     1      -3.445   1.033   6.124  0.00  0.00    +0.109 A 
ATOM     11  O   UNL     1      -4.115   0.606   5.042  0.00  0.00    -0.459 OA
ATOM     12  C   UNL     1      -4.041   1.491   7.435  0.00  0.00    +0.075 C 
ATOM     13  C   UNL     1      -2.941   1.478   8.502  0.00  0.00    +0.008 C 
ATOM     14  C   UNL     1      -1.712   2.227   7.980  0.00  0.00    +0.005 C 
ATOM     15  C   UNL     1      -1.056   1.406   6.862  0.00  0.00    +0.039 C 
ENDBRANCH   1   3
BRANCH   1  16
ATOM     16  S   UNL     1       0.002  -0.004   0.002  0.00  0.00    +0.072 S 
ATOM     17  O   UNL     1      -1.243  -0.424  -0.539  0.00  0.00    -0.150 OA
ATOM     18  O   UNL     1       1.248  -0.390  -0.563  0.00  0.00    -0.150 OA
BRANCH  16  22
ATOM     19  C   UNL     1      -0.059   4.522   0.026  0.00  0.00    -0.045 A 
ATOM     20  C   UNL     1       1.147   3.847   0.012  0.00  0.00    +0.006 A 
ATOM     21  C   UNL     1       1.166   2.465   0.004  0.00  0.00    +0.029 A 
ATOM     22  C   UNL     1      -0.022   1.758   0.012  0.00  0.00    +0.109 A 
ATOM     23  C   UNL     1      -1.228   2.433   0.021  0.00  0.00    +0.029 A 
ATOM     24  C   UNL     1      -1.247   3.815   0.033  0.00  0.00    +0.006 A 
BRANCH  19  26
ATOM     25  C   UNL     1      -0.819   6.537  -1.204  0.00  0.00    +0.012 C 
ATOM     26  C   UNL     1      -0.080   6.029   0.036  0.00  0.00    +0.013 C 
ATOM     27  C   UNL     1      -0.797   6.521   1.294  0.00  0.00    +0.012 C 
ENDBRANCH  19  26
ENDBRANCH  16  22
ENDBRANCH   1  16
TORSDOF 4
