REMARK  Name = ZINC43219075
REMARK  10 active torsions:
REMARK  status: ('A' for Active; 'I' for Inactive)
REMARK    1  A    between atoms: C_1  and  C_2
REMARK    2  A    between atoms: C_2  and  C_3
REMARK    3  A    between atoms: C_3  and  C_4
REMARK    4  A    between atoms: C_4  and  N_5
REMARK    5  A    between atoms: C_10  and  C_31
REMARK    6  A    between atoms: C_13  and  C_18
REMARK    7  A    between atoms: C_13  and  C_28
REMARK    8  A    between atoms: C_18  and  C_19
REMARK    9  A    between atoms: C_22  and  N_25
REMARK   10  A    between atoms: C_35  and  C_37
REMARK                            x       y       z     vdW  Elec       q    Type
REMARK                         _______ _______ _______ _____ _____    ______ ____
ROOT
ATOM      1  N   UNL     1       1.919  -2.909  -2.262  0.00  0.00    -0.242 N 
ATOM      2  C   UNL     1       1.215  -2.832  -3.438  0.00  0.00    +0.228 C 
ATOM      3  O   UNL     1       0.087  -2.418  -3.599  0.00  0.00    -0.275 OA
ATOM      4  C   UNL     1       2.113  -3.353  -4.439  0.00  0.00    +0.111 C 
ATOM      5  C   UNL     1       2.332  -3.324  -5.896  0.00  0.00    +0.097 C 
ATOM      6  N   UNL     1       3.686  -3.965  -6.024  0.00  0.00    -0.293 NA
ATOM      7  C   UNL     1       4.392  -3.805  -4.717  0.00  0.00    +0.138 C 
ATOM      8  C   UNL     1       3.511  -2.841  -3.908  0.00  0.00    +0.121 C 
ATOM      9  C   UNL     1       3.250  -3.145  -2.458  0.00  0.00    +0.228 C 
ATOM     10  O   UNL     1       4.056  -3.523  -1.635  0.00  0.00    -0.275 OA
ATOM     11  H   UNL     1       3.603  -4.939  -6.273  0.00  0.00    +0.124 HD
ENDROOT
BRANCH   5  12
ATOM     12  C   UNL     1       1.283  -4.134  -6.613  0.00  0.00    -0.029 A 
ATOM     13  C   UNL     1       1.308  -5.514  -6.544  0.00  0.00    +0.005 A 
ATOM     14  C   UNL     1       0.346  -6.257  -7.202  0.00  0.00    +0.001 A 
ATOM     15  C   UNL     1      -0.642  -5.620  -7.929  0.00  0.00    +0.012 A 
ATOM     16  C   UNL     1      -0.668  -4.240  -7.997  0.00  0.00    +0.055 A 
ATOM     17  C   UNL     1       0.291  -3.497  -7.335  0.00  0.00    +0.017 A 
BRANCH  16  18
ATOM     18  C   UNL     1      -1.746  -3.545  -8.790  0.00  0.00    +0.417 C 
ATOM     19  F   UNL     1      -2.594  -4.500  -9.360  0.00  0.00    -0.166 F 
ATOM     20  F   UNL     1      -2.484  -2.712  -7.942  0.00  0.00    -0.166 F 
ATOM     21  F   UNL     1      -1.159  -2.778  -9.802  0.00  0.00    -0.166 F 
ENDBRANCH  16  18
ENDBRANCH   5  12
BRANCH   7  22
ATOM     22  C   UNL     1       5.753  -3.193  -4.931  0.00  0.00    +0.377 C 
ATOM     23  O   UNL     1       6.133  -2.933  -6.060  0.00  0.00    -0.244 OA
ATOM     24  O   UNL     1       6.473  -2.959  -3.976  0.00  0.00    -0.244 OA
ENDBRANCH   7  22
BRANCH   1  25
ATOM     25  C   UNL     1       1.310  -2.750  -0.940  0.00  0.00    +0.116 C 
BRANCH  25  26
ATOM     26  C   UNL     1       1.340  -1.274  -0.539  0.00  0.00    +0.019 C 
BRANCH  26  28
ATOM     27  C   UNL     1       0.734   0.369   1.244  0.00  0.00    +0.004 C 
ATOM     28  C   UNL     1       0.704  -1.107   0.843  0.00  0.00    -0.002 C 
ENDBRANCH  26  28
ENDBRANCH  25  26
ENDBRANCH   1  25
BRANCH   7  29
ATOM     29  C   UNL     1       4.523  -5.158  -4.017  0.00  0.00    +0.069 C 
BRANCH  29  30
ATOM     30  C   UNL     1       5.398  -6.068  -4.840  0.00  0.00    -0.045 A 
ATOM     31  C   UNL     1       4.825  -6.957  -5.731  0.00  0.00    +0.006 A 
ATOM     32  C   UNL     1       5.628  -7.791  -6.487  0.00  0.00    +0.033 A 
ATOM     33  C   UNL     1       7.002  -7.737  -6.352  0.00  0.00    +0.126 A 
ATOM     34  C   UNL     1       7.575  -6.847  -5.462  0.00  0.00    +0.033 A 
ATOM     35  C   UNL     1       6.772  -6.010  -4.709  0.00  0.00    +0.006 A 
BRANCH  33  36
ATOM     36  N   UNL     1       7.861  -8.631  -7.160  0.00  0.00    +0.056 N 
ATOM     37  O   UNL     1       7.361  -9.409  -7.939  0.00  0.00    -0.126 OA
ATOM     38  O   UNL     1       9.064  -8.583  -7.042  0.00  0.00    -0.126 OA
ENDBRANCH  33  36
ENDBRANCH  29  30
ENDBRANCH   7  29
TORSDOF 9
