REMARK  Name = ZINC11173802
REMARK  3 active torsions:
REMARK  status: ('A' for Active; 'I' for Inactive)
REMARK    1  A    between atoms: C_1  and  C_2
REMARK    2  A    between atoms: C_11  and  N_15
REMARK    3  A    between atoms: C_18  and  C_21
REMARK                            x       y       z     vdW  Elec       q    Type
REMARK                         _______ _______ _______ _____ _____    ______ ____
ROOT
ATOM      1  C   UNL     1       1.623   7.632   1.721  0.00  0.00    +0.008 C 
ATOM      2  C   UNL     1       0.795   6.406   2.112  0.00  0.00    -0.009 C 
ATOM      3  C   UNL     1       1.647   5.142   1.962  0.00  0.00    +0.008 C 
ATOM      4  C   UNL     1       0.763   3.902   2.107  0.00  0.00    +0.037 C 
ATOM      5  C   UNL     1      -0.030   4.011   3.406  0.00  0.00    -0.025 A 
ATOM      6  C   UNL     1      -0.185   5.201   4.021  0.00  0.00    -0.004 A 
ATOM      7  S   UNL     1      -1.156   4.854   5.463  0.00  0.00    -0.073 S 
ATOM      8  C   UNL     1      -1.351   3.105   5.239  0.00  0.00    +0.114 A 
ATOM      9  C   UNL     1      -0.647   2.848   4.045  0.00  0.00    +0.051 A 
ATOM     10  C   UNL     1      -0.646   1.491   3.617  0.00  0.00    +0.133 A 
ATOM     11  N   UNL     1      -1.276   0.585   4.347  0.00  0.00    -0.220 NA
ATOM     12  C   UNL     1      -1.913   0.898   5.462  0.00  0.00    +0.224 A 
ATOM     13  N   UNL     1      -1.953   2.140   5.906  0.00  0.00    -0.228 NA
ATOM     14  C   UNL     1       0.349   6.529   3.576  0.00  0.00    +0.046 C 
ENDROOT
BRANCH  10  15
ATOM     15  N   UNL     1       0.009   1.123   2.456  0.00  0.00    -0.317 N 
ATOM     16  C   UNL     1      -0.939   0.617   1.454  0.00  0.00    +0.087 C 
ATOM     17  C   UNL     1      -0.187   0.296   0.160  0.00  0.00    -0.062 C 
ATOM     18  C   UNL     1       1.809  -0.189   1.440  0.00  0.00    +0.033 C 
ATOM     19  C   UNL     1       1.057   0.132   2.734  0.00  0.00    +0.100 C 
ATOM     20  N   UNL     1       0.862  -0.705   0.434  0.00  0.00    +0.389 N 
ATOM     21  H   UNL     1       1.369  -0.911  -0.434  0.00  0.00    -0.085 HD
ATOM     22  H   UNL     1       0.426  -1.564   0.788  0.00  0.00    -0.085 HD
BRANCH  18  23
ATOM     23  C   UNL     1       2.859  -1.235   1.714  0.00  0.00    +0.198 C 
ATOM     24  O   UNL     1       2.645  -2.396   1.436  0.00  0.00    -0.278 OA
ATOM     25  N   UNL     1       4.035  -0.881   2.269  0.00  0.00    -0.331 N 
ATOM     26  H   UNL     1       4.206   0.048   2.492  0.00  0.00    +0.145 HD
ATOM     27  H   UNL     1       4.710  -1.554   2.445  0.00  0.00    +0.145 HD
ENDBRANCH  18  23
ENDBRANCH  10  15
TORSDOF 2
