REMARK  Name = ZINC25682044
REMARK  6 active torsions:
REMARK  status: ('A' for Active; 'I' for Inactive)
REMARK    1  A    between atoms: C_2  and  C_3
REMARK    2  A    between atoms: C_3  and  N_4
REMARK    3  A    between atoms: C_5  and  C_11
REMARK    4  A    between atoms: C_11  and  C_12
REMARK    5  A    between atoms: C_18  and  C_20
REMARK    6  A    between atoms: C_20  and  C_21
REMARK                            x       y       z     vdW  Elec       q    Type
REMARK                         _______ _______ _______ _____ _____    ______ ____
ROOT
ATOM      1  C   UNL     1       4.634   0.918  -0.037  0.00  0.00    +0.058 A 
ATOM      2  C   UNL     1       4.435  -0.422  -0.043  0.00  0.00    +0.072 A 
ATOM      3  S   UNL     1       2.649  -0.492  -0.026  0.00  0.00    -0.060 S 
ATOM      4  C   UNL     1       2.357   1.220  -0.014  0.00  0.00    +0.165 A 
ATOM      5  N   UNL     1       3.580   1.711  -0.028  0.00  0.00    -0.229 NA
ATOM      6  N   UNL     1       1.143   1.898   0.001  0.00  0.00    -0.265 N 
ATOM      7  C   UNL     1      -0.014   1.209   0.009  0.00  0.00    +0.220 C 
ATOM      8  O   UNL     1       0.002  -0.004   0.002  0.00  0.00    -0.275 OA
ATOM      9  H   UNL     1       1.129   2.998   0.007  0.00  0.00    +0.157 HD
ENDROOT
BRANCH   1  10
ATOM     10  C   UNL     1       6.029   1.490  -0.047  0.00  0.00    +0.132 C 
BRANCH  10  12
ATOM     11  N   UNL     1       5.909   3.788  -1.173  0.00  0.00    -0.303 N 
ATOM     12  C   UNL     1       6.173   2.441  -1.207  0.00  0.00    +0.138 A 
ATOM     13  N   UNL     1       6.572   2.124  -2.396  0.00  0.00    -0.158 NA
ATOM     14  N   UNL     1       6.567   3.284  -3.183  0.00  0.00    -0.254 N 
ATOM     15  H   UNL     1       6.869   3.234  -4.239  0.00  0.00    +0.191 HD
ATOM     16  C   UNL     1       6.154   4.300  -2.396  0.00  0.00    +0.176 A 
ATOM     17  S   UNL     1       5.977   5.937  -2.865  0.00  0.00    -0.011 S 
BRANCH  11  18
ATOM     18  C   UNL     1       5.440   4.542  -0.007  0.00  0.00    +0.152 C 
BRANCH  18  20
ATOM     19  C   UNL     1       6.734   6.333   1.032  0.00  0.00    +0.005 C 
ATOM     20  C   UNL     1       6.626   5.054   0.769  0.00  0.00    -0.013 C 
ENDBRANCH  18  20
ENDBRANCH  11  18
ENDBRANCH  10  12
ENDBRANCH   1  10
BRANCH   7  21
ATOM     21  C   UNL     1      -1.330   1.944   0.019  0.00  0.00    +0.120 C 
BRANCH  21  22
ATOM     22  C   UNL     1      -2.479   0.934   0.019  0.00  0.00    +0.146 C 
ATOM     23  C   UNL     1      -3.793   1.663   0.127  0.00  0.00    +0.231 C 
ATOM     24  O   UNL     1      -4.321   1.744   1.216  0.00  0.00    -0.274 OA
ATOM     25  N   UNL     1      -4.403   2.221  -0.914  0.00  0.00    -0.284 N 
ATOM     26  C   UNL     1      -4.014   2.134  -2.248  0.00  0.00    +0.048 A 
ATOM     27  C   UNL     1      -4.529   3.046  -3.165  0.00  0.00    +0.044 A 
ATOM     28  C   UNL     1      -4.151   2.987  -4.492  0.00  0.00    +0.043 A 
ATOM     29  C   UNL     1      -3.258   2.023  -4.925  0.00  0.00    +0.021 A 
ATOM     30  C   UNL     1      -2.741   1.109  -4.024  0.00  0.00    +0.018 A 
ATOM     31  C   UNL     1      -3.119   1.163  -2.693  0.00  0.00    +0.030 A 
ATOM     32  S   UNL     1      -2.468  -0.005  -1.539  0.00  0.00    -0.110 S 
ATOM     33 CL   UNL     1      -4.801   4.130  -5.625  0.00  0.00    -0.083 Cl
ATOM     34  H   UNL     1      -5.311   2.823  -0.762  0.00  0.00    +0.155 HD
ENDBRANCH  21  22
ENDBRANCH   7  21
TORSDOF 6
