REMARK  Name = ZINC09444345
REMARK  9 active torsions:
REMARK  status: ('A' for Active; 'I' for Inactive)
REMARK    1  A    between atoms: C_1  and  C_2
REMARK    2  A    between atoms: C_2  and  O_3
REMARK    3  A    between atoms: O_3  and  C_4
REMARK    4  A    between atoms: C_4  and  C_6
REMARK    5  A    between atoms: C_8  and  C_20
REMARK    6  A    between atoms: C_14  and  C_15
REMARK    7  A    between atoms: C_14  and  O_19
REMARK    8  A    between atoms: N_22  and  C_31
REMARK    9  A    between atoms: C_24  and  C_25
REMARK                            x       y       z     vdW  Elec       q    Type
REMARK                         _______ _______ _______ _____ _____    ______ ____
ROOT
ATOM      1  C   UNL     1       2.399  -4.108  -1.109  0.00  0.00    +0.181 C 
ATOM      2  C   UNL     1       1.690  -4.021  -2.465  0.00  0.00    +0.127 C 
ATOM      3  N   UNL     1       2.399  -4.859  -3.433  0.00  0.00    -0.291 N 
ATOM      4  C   UNL     1       3.717  -5.085  -3.326  0.00  0.00    +0.302 C 
ATOM      5  O   UNL     1       4.260  -5.780  -4.163  0.00  0.00    -0.253 OA
ATOM      6  N   UNL     1       4.460  -4.574  -2.333  0.00  0.00    -0.264 N 
ATOM      7  C   UNL     1       3.869  -3.719  -1.297  0.00  0.00    +0.246 C 
ATOM      8  H   UNL     1       1.907  -5.259  -4.166  0.00  0.00    +0.151 HD
ATOM      9  H   UNL     1       5.408  -4.776  -2.297  0.00  0.00    +0.153 HD
ENDROOT
BRANCH   2  10
ATOM     10  C   UNL     1       0.270  -4.505  -2.323  0.00  0.00    +0.019 A 
ATOM     11  C   UNL     1      -0.391  -4.700  -1.161  0.00  0.00    +0.120 A 
ATOM     12  N   UNL     1      -1.641  -5.138  -1.461  0.00  0.00    -0.239 N 
ATOM     13  N   UNL     1      -1.750  -5.215  -2.856  0.00  0.00    -0.166 NA
ATOM     14  C   UNL     1      -0.605  -4.829  -3.378  0.00  0.00    +0.098 A 
BRANCH  14  15
ATOM     15  C   UNL     1      -0.290  -4.753  -4.826  0.00  0.00    +0.002 A 
ATOM     16  C   UNL     1       0.418  -3.664  -5.331  0.00  0.00    +0.010 A 
ATOM     17  C   UNL     1       0.709  -3.599  -6.679  0.00  0.00    +0.001 A 
ATOM     18  C   UNL     1       0.299  -4.612  -7.528  0.00  0.00    +0.000 A 
ATOM     19  C   UNL     1      -0.404  -5.694  -7.032  0.00  0.00    +0.001 A 
ATOM     20  C   UNL     1      -0.695  -5.773  -5.685  0.00  0.00    +0.010 A 
ENDBRANCH  14  15
BRANCH  12  21
ATOM     21  C   UNL     1      -2.646  -5.459  -0.538  0.00  0.00    +0.065 A 
ATOM     22  C   UNL     1      -2.405  -5.333   0.824  0.00  0.00    +0.028 A 
ATOM     23  C   UNL     1      -3.397  -5.649   1.731  0.00  0.00    +0.002 A 
ATOM     24  C   UNL     1      -4.628  -6.091   1.285  0.00  0.00    +0.000 A 
ATOM     25  C   UNL     1      -4.871  -6.218  -0.070  0.00  0.00    +0.002 A 
ATOM     26  C   UNL     1      -3.885  -5.897  -0.983  0.00  0.00    +0.028 A 
ENDBRANCH  12  21
ENDBRANCH   2  10
BRANCH   7  27
ATOM     27  C   UNL     1       4.621  -3.908   0.022  0.00  0.00    +0.436 C 
ATOM     28  F   UNL     1       4.651  -5.267   0.351  0.00  0.00    -0.166 F 
ATOM     29  F   UNL     1       5.929  -3.432  -0.115  0.00  0.00    -0.166 F 
ATOM     30  F   UNL     1       3.969  -3.197   1.036  0.00  0.00    -0.166 F 
ENDBRANCH   7  27
BRANCH   1  31
ATOM     31  C   UNL     1       2.312  -5.518  -0.583  0.00  0.00    +0.317 C 
ATOM     32  O   UNL     1       2.686  -6.442  -1.266  0.00  0.00    -0.250 OA
BRANCH  31  33
ATOM     33  O   UNL     1       1.820  -5.746   0.645  0.00  0.00    -0.465 OA
BRANCH  33  35
ATOM     34  C   UNL     1       1.182  -7.168   2.492  0.00  0.00    +0.048 C 
ATOM     35  C   UNL     1       1.767  -7.106   1.080  0.00  0.00    +0.229 C 
ENDBRANCH  33  35
ENDBRANCH  31  33
ENDBRANCH   1  31
BRANCH   7  36
ATOM     36  O   UNL     1       3.952  -2.351  -1.704  0.00  0.00    -0.364 OA
ATOM     37  H   UNL     1       4.856  -2.036  -1.842  0.00  0.00    +0.212 HD
ENDBRANCH   7  36
TORSDOF 8
