REMARK  Name = ZINC64622356
REMARK  9 active torsions:
REMARK  status: ('A' for Active; 'I' for Inactive)
REMARK    1  A    between atoms: C_1  and  C_2
REMARK    2  A    between atoms: C_2  and  N_3
REMARK    3  A    between atoms: N_3  and  S_4
REMARK    4  A    between atoms: S_4  and  C_7
REMARK    5  A    between atoms: C_9  and  C_32
REMARK    6  A    between atoms: C_18  and  C_20
REMARK    7  A    between atoms: C_22  and  C_31
REMARK    8  A    between atoms: C_32  and  O_34
REMARK    9  A    between atoms: O_34  and  C_35
REMARK                            x       y       z     vdW  Elec       q    Type
REMARK                         _______ _______ _______ _____ _____    ______ ____
ROOT
ATOM      1  C   UNL     1      -0.339  -3.029  -1.297  0.00  0.00    +0.242 C 
ATOM      2  C   UNL     1      -0.044  -4.506  -1.474  0.00  0.00    +0.072 C 
ATOM      3  C   UNL     1      -0.740  -5.192  -2.351  0.00  0.00    -0.041 C 
ATOM      4  C   UNL     1      -0.470  -6.652  -2.715  0.00  0.00    +0.051 C 
ATOM      5  C   UNL     1      -1.636  -7.125  -3.591  0.00  0.00    +0.112 C 
ATOM      6  N   UNL     1      -1.805  -6.233  -4.742  0.00  0.00    -0.298 N 
ATOM      7  C   UNL     1      -1.635  -4.780  -4.596  0.00  0.00    +0.126 C 
ATOM      8  C   UNL     1      -1.835  -4.438  -3.116  0.00  0.00    +0.092 C 
ATOM      9  S   UNL     1      -1.355  -2.691  -2.801  0.00  0.00    -0.119 S 
ATOM     10  C   UNL     1      -2.120  -6.751  -5.946  0.00  0.00    +0.242 C 
ATOM     11  O   UNL     1      -2.261  -6.018  -6.902  0.00  0.00    -0.273 OA
ENDROOT
BRANCH  10  12
ATOM     12  C   UNL     1      -2.295  -8.239  -6.104  0.00  0.00    +0.193 C 
ATOM     13  C   UNL     1      -0.948  -8.911  -6.244  0.00  0.00    -0.033 C 
ATOM     14  C   UNL     1      -0.954  -9.514  -7.455  0.00  0.00    +0.001 A 
ATOM     15  C   UNL     1       0.045 -10.317  -8.170  0.00  0.00    +0.030 A 
ATOM     16  C   UNL     1      -0.257 -10.797  -9.399  0.00  0.00    +0.042 A 
ATOM     17  C   UNL     1      -1.497 -10.545 -10.004  0.00  0.00    +0.022 A 
ATOM     18  C   UNL     1      -2.464  -9.816  -9.409  0.00  0.00    +0.027 A 
ATOM     19  C   UNL     1      -2.254  -9.263  -8.116  0.00  0.00    +0.043 A 
ATOM     20  N   UNL     1      -3.024  -8.533  -7.342  0.00  0.00    -0.370 N 
ATOM     21 CL   UNL     1       0.922 -11.747 -10.248  0.00  0.00    -0.084 Cl
ATOM     22  C   UNL     1       0.174  -8.909  -5.238  0.00  0.00    +0.042 C 
ATOM     23  H   UNL     1      -3.924  -8.238  -7.554  0.00  0.00    +0.161 HD
ENDBRANCH  10  12
BRANCH   1  24
ATOM     24  S   UNL     1       1.189  -2.051  -1.307  0.00  0.00    +0.046 S 
ATOM     25  O   UNL     1       1.823  -2.147  -2.575  0.00  0.00    -0.157 OA
ATOM     26  O   UNL     1       1.923  -2.278  -0.112  0.00  0.00    -0.157 OA
BRANCH  24  27
ATOM     27  N   UNL     1       0.688  -0.476  -1.203  0.00  0.00    -0.193 NA
ATOM     28  H   UNL     1       0.848   0.133  -1.941  0.00  0.00    +0.148 HD
BRANCH  27  30
ATOM     29  C   UNL     1      -0.019   1.526   0.010  0.00  0.00    +0.022 C 
ATOM     30  C   UNL     1       0.002  -0.004   0.002  0.00  0.00    +0.102 C 
ENDBRANCH  27  30
ENDBRANCH  24  27
ENDBRANCH   1  24
BRANCH   2  31
ATOM     31  C   UNL     1       1.003  -5.160  -0.677  0.00  0.00    +0.338 C 
ATOM     32  O   UNL     1       1.231  -6.344  -0.827  0.00  0.00    -0.245 OA
BRANCH  31  33
ATOM     33  O   UNL     1       1.710  -4.446   0.222  0.00  0.00    -0.465 OA
ATOM     34  C   UNL     1       2.713  -5.145   0.962  0.00  0.00    +0.280 C 
ENDBRANCH  31  33
ENDBRANCH   2  31
TORSDOF 6
