REMARK  Name = ZINC21866999
REMARK  12 active torsions:
REMARK  status: ('A' for Active; 'I' for Inactive)
REMARK    1  A    between atoms: C_1  and  C_2
REMARK    2  A    between atoms: C_7  and  C_8
REMARK    3  A    between atoms: C_8  and  N_9
REMARK    4  A    between atoms: C_13  and  N_32
REMARK    5  A    between atoms: C_22  and  C_23
REMARK    6  A    between atoms: C_22  and  C_24
REMARK    7  A    between atoms: N_26  and  C_27
REMARK    8  A    between atoms: C_27  and  C_28
REMARK    9  A    between atoms: C_28  and  C_29
REMARK   10  A    between atoms: C_29  and  C_30
REMARK   11  A    between atoms: C_29  and  C_31
REMARK   12  A    between atoms: C_33  and  C_35
REMARK                            x       y       z     vdW  Elec       q    Type
REMARK                         _______ _______ _______ _____ _____    ______ ____
ROOT
ATOM      1  N   UNL     1       2.062  -3.933   1.355  0.00  0.00    -0.276 N 
ATOM      2  C   UNL     1       2.789  -2.799   1.480  0.00  0.00    +0.266 C 
ATOM      3  O   UNL     1       3.835  -2.774   2.103  0.00  0.00    -0.268 OA
ATOM      4  C   UNL     1       2.251  -1.600   0.827  0.00  0.00    +0.127 A 
ATOM      5  C   UNL     1       2.825  -0.380   0.620  0.00  0.00    +0.072 A 
ATOM      6  C   UNL     1       1.830   0.435  -0.087  0.00  0.00    +0.022 A 
ATOM      7  C   UNL     1       1.834   1.746  -0.572  0.00  0.00    +0.012 A 
ATOM      8  C   UNL     1       0.730   2.240  -1.206  0.00  0.00    +0.001 A 
ATOM      9  C   UNL     1      -0.399   1.449  -1.373  0.00  0.00    +0.002 A 
ATOM     10  C   UNL     1      -0.427   0.156  -0.903  0.00  0.00    +0.026 A 
ATOM     11  C   UNL     1       0.687  -0.373  -0.252  0.00  0.00    +0.052 A 
ATOM     12  N   UNL     1       0.949  -1.591   0.314  0.00  0.00    -0.332 N 
ATOM     13  C   UNL     1       0.074  -2.765   0.429  0.00  0.00    +0.157 C 
ATOM     14  C   UNL     1       0.934  -4.029   0.436  0.00  0.00    +0.129 C 
ATOM     15  C   UNL     1       1.466  -4.272  -0.978  0.00  0.00    +0.043 C 
ENDROOT
BRANCH   5  16
ATOM     16  N   UNL     1       4.104   0.015   1.004  0.00  0.00    -0.283 N 
ATOM     17  C   UNL     1       4.370   1.318   1.220  0.00  0.00    +0.214 C 
ATOM     18  O   UNL     1       3.479   2.138   1.156  0.00  0.00    -0.276 OA
ATOM     19  C   UNL     1       5.776   1.756   1.543  0.00  0.00    +0.109 C 
ATOM     20  H   UNL     1       4.896  -0.737   1.130  0.00  0.00    +0.155 HD
ENDBRANCH   5  16
BRANCH  14  21
ATOM     21  C   UNL     1       0.075  -5.200   0.838  0.00  0.00    +0.238 C 
ATOM     22  O   UNL     1      -0.311  -5.985  -0.001  0.00  0.00    -0.273 OA
ATOM     23  N   UNL     1      -0.263  -5.374   2.131  0.00  0.00    -0.313 N 
ATOM     24  H   UNL     1       0.141  -4.700   2.901  0.00  0.00    +0.149 HD
BRANCH  23  25
ATOM     25  C   UNL     1      -1.168  -6.462   2.511  0.00  0.00    +0.104 C 
BRANCH  25  26
ATOM     26  C   UNL     1      -1.486  -6.362   4.005  0.00  0.00    +0.022 C 
BRANCH  26  27
ATOM     27  C   UNL     1      -2.432  -7.498   4.401  0.00  0.00    -0.016 C 
ATOM     28  C   UNL     1      -1.717  -8.840   4.228  0.00  0.00    +0.007 C 
ATOM     29  C   UNL     1      -2.849  -7.327   5.863  0.00  0.00    +0.007 C 
ENDBRANCH  26  27
ENDBRANCH  25  26
ENDBRANCH  23  25
ENDBRANCH  14  21
BRANCH   1  30
ATOM     30  C   UNL     1       2.419  -5.099   2.166  0.00  0.00    +0.144 C 
BRANCH  30  37
ATOM     31  C   UNL     1       5.043  -5.162   0.960  0.00  0.00    +0.044 C 
ATOM     32  C   UNL     1       4.061  -6.271   0.684  0.00  0.00    -0.046 A 
ATOM     33  C   UNL     1       4.417  -7.321  -0.142  0.00  0.00    +0.003 A 
ATOM     34  C   UNL     1       3.514  -8.335  -0.399  0.00  0.00    +0.000 A 
ATOM     35  C   UNL     1       2.256  -8.302   0.174  0.00  0.00    +0.000 A 
ATOM     36  C   UNL     1       1.902  -7.255   1.004  0.00  0.00    +0.005 A 
ATOM     37  C   UNL     1       2.805  -6.241   1.261  0.00  0.00    -0.027 A 
ENDBRANCH  30  37
ENDBRANCH   1  30
TORSDOF 7
