REMARK  Name = ZINC10425374
REMARK  8 active torsions:
REMARK  status: ('A' for Active; 'I' for Inactive)
REMARK    1  A    between atoms: N_8  and  C_12
REMARK    2  A    between atoms: C_12  and  C_13
REMARK    3  A    between atoms: C_13  and  C_14
REMARK    4  A    between atoms: C_14  and  N_15
REMARK    5  A    between atoms: C_16  and  C_18
REMARK    6  A    between atoms: C_18  and  S_19
REMARK    7  A    between atoms: S_19  and  C_20
REMARK    8  A    between atoms: C_20  and  C_21
REMARK                            x       y       z     vdW  Elec       q    Type
REMARK                         _______ _______ _______ _____ _____    ______ ____
ROOT
ATOM      1  N   UNL     1      -3.335   3.531   2.861  0.00  0.00    -0.315 N 
ATOM      2  C   UNL     1      -4.440   4.260   3.117  0.00  0.00    +0.223 C 
ATOM      3  O   UNL     1      -5.102   4.699   2.201  0.00  0.00    -0.275 OA
ATOM      4  H   UNL     1      -2.805   3.180   3.594  0.00  0.00    +0.149 HD
ENDROOT
BRANCH   1   5
ATOM      5  C   UNL     1      -2.934   3.269   1.477  0.00  0.00    +0.106 C 
BRANCH   5   6
ATOM      6  C   UNL     1      -1.657   2.426   1.466  0.00  0.00    +0.038 C 
BRANCH   6   7
ATOM      7  C   UNL     1      -1.239   2.153   0.020  0.00  0.00    +0.119 C 
BRANCH   7  15
ATOM      8  C   UNL     1       2.878  -2.208  -0.767  0.00  0.00    +0.003 C 
ATOM      9  C   UNL     1       2.390  -2.558   0.661  0.00  0.00    +0.003 C 
ATOM     10  C   UNL     1       1.831  -1.226   1.208  0.00  0.00    +0.035 C 
ATOM     11  C   UNL     1       1.461  -0.382  -0.014  0.00  0.00    +0.113 C 
ATOM     12  C   UNL     1       1.804  -1.205  -1.263  0.00  0.00    +0.035 C 
ATOM     13  C   UNL     1       0.002  -0.004   0.002  0.00  0.00    +0.246 C 
ATOM     14  O   UNL     1      -0.952  -0.753   0.007  0.00  0.00    -0.273 OA
ATOM     15  N   UNL     1      -0.016   1.346   0.009  0.00  0.00    -0.224 N 
ATOM     16  C   UNL     1       1.222   1.856   0.000  0.00  0.00    +0.309 C 
ATOM     17  O   UNL     1       1.463   3.047   0.004  0.00  0.00    -0.252 OA
ATOM     18  N   UNL     1       2.171   0.899  -0.014  0.00  0.00    -0.285 N 
ATOM     19  H   UNL     1       3.132   1.032  -0.022  0.00  0.00    +0.151 HD
ENDBRANCH   7  15
ENDBRANCH   6   7
ENDBRANCH   5   6
ENDBRANCH   1   5
BRANCH   2  20
ATOM     20  C   UNL     1      -4.852   4.529   4.541  0.00  0.00    +0.165 C 
BRANCH  20  21
ATOM     21  S   UNL     1      -6.366   5.528   4.554  0.00  0.00    -0.144 S 
BRANCH  21  22
ATOM     22  C   UNL     1      -6.723   5.760   6.317  0.00  0.00    +0.143 C 
BRANCH  22  23
ATOM     23  C   UNL     1      -7.974   6.586   6.472  0.00  0.00    +0.121 A 
ATOM     24  N   UNL     1      -8.428   6.882   7.717  0.00  0.00    -0.310 N 
ATOM     25  H   UNL     1      -7.939   6.558   8.490  0.00  0.00    +0.170 HD
ATOM     26  C   UNL     1      -9.541   7.617   7.900  0.00  0.00    +0.260 A 
ATOM     27  O   UNL     1      -9.937   7.875   9.024  0.00  0.00    -0.267 OA
ATOM     28  C   UNL     1     -10.252   8.089   6.750  0.00  0.00    +0.075 A 
ATOM     29  C   UNL     1     -11.479   8.899   6.712  0.00  0.00    -0.023 A 
ATOM     30  C   UNL     1     -11.958   9.220   5.498  0.00  0.00    -0.004 A 
ATOM     31  S   UNL     1     -10.826   8.475   4.346  0.00  0.00    -0.073 S 
ATOM     32  C   UNL     1      -9.710   7.734   5.508  0.00  0.00    +0.116 A 
ATOM     33  N   UNL     1      -8.600   7.007   5.405  0.00  0.00    -0.226 NA
ATOM     34  C   UNL     1     -13.209  10.052   5.582  0.00  0.00    +0.043 C 
ATOM     35  C   UNL     1     -13.226  10.580   7.033  0.00  0.00    +0.010 C 
ATOM     36  C   UNL     1     -12.408   9.502   7.769  0.00  0.00    +0.037 C 
ENDBRANCH  22  23
ENDBRANCH  21  22
ENDBRANCH  20  21
ENDBRANCH   2  20
TORSDOF 8
