REMARK  Name = ZINC13365698
REMARK  7 active torsions:
REMARK  status: ('A' for Active; 'I' for Inactive)
REMARK    1  A    between atoms: C_1  and  C_2
REMARK    2  A    between atoms: C_2  and  N_3
REMARK    3  A    between atoms: C_4  and  C_25
REMARK    4  A    between atoms: C_5  and  N_13
REMARK    5  A    between atoms: N_13  and  S_14
REMARK    6  A    between atoms: S_14  and  C_17
REMARK    7  A    between atoms: C_22  and  C_23
REMARK                            x       y       z     vdW  Elec       q    Type
REMARK                         _______ _______ _______ _____ _____    ______ ____
ROOT
ATOM      1  N   UNL     1       2.608   4.060   0.317  0.00  0.00    -0.265 N 
ATOM      2  C   UNL     1       1.301   3.783   0.065  0.00  0.00    +0.061 A 
ATOM      3  C   UNL     1       1.183   2.438  -0.062  0.00  0.00    +0.113 A 
ATOM      4  C   UNL     1       2.459   1.874   0.123  0.00  0.00    +0.184 A 
ATOM      5  N   UNL     1       3.310   2.848   0.344  0.00  0.00    -0.151 NA
ATOM      6  N   UNL     1       2.769   0.505   0.075  0.00  0.00    -0.269 N 
ATOM      7  C   UNL     1       2.059  -0.518   0.626  0.00  0.00    +0.231 A 
ATOM      8  N   UNL     1       2.693  -1.624   0.346  0.00  0.00    -0.138 NA
ATOM      9  N   UNL     1       3.752  -1.361  -0.334  0.00  0.00    -0.138 NA
ATOM     10  C   UNL     1       3.846  -0.073  -0.527  0.00  0.00    +0.231 A 
ATOM     11  C   UNL     1       0.184   4.788  -0.051  0.00  0.00    +0.067 C 
ENDROOT
BRANCH   1  13
ATOM     12  C   UNL     1       3.133   5.744   2.011  0.00  0.00    +0.029 C 
ATOM     13  C   UNL     1       3.182   5.392   0.523  0.00  0.00    +0.140 C 
ENDBRANCH   1  13
BRANCH   3  14
ATOM     14  N   UNL     1      -0.006   1.730  -0.327  0.00  0.00    -0.211 N 
ATOM     15  H   UNL     1      -0.770   1.829   0.263  0.00  0.00    +0.174 HD
BRANCH  14  16
ATOM     16  S   UNL     1      -0.101   0.736  -1.647  0.00  0.00    +0.073 S 
ATOM     17  O   UNL     1       1.076  -0.060  -1.643  0.00  0.00    -0.150 OA
ATOM     18  O   UNL     1      -1.404   0.169  -1.635  0.00  0.00    -0.150 OA
BRANCH  16  19
ATOM     19  C   UNL     1      -0.012   1.760  -3.078  0.00  0.00    +0.111 A 
ATOM     20  C   UNL     1       1.054   1.637  -3.950  0.00  0.00    +0.030 A 
ATOM     21  C   UNL     1       1.125   2.440  -5.073  0.00  0.00    +0.017 A 
ATOM     22  C   UNL     1       0.128   3.367  -5.324  0.00  0.00    +0.018 A 
ATOM     23  C   UNL     1      -0.937   3.490  -4.452  0.00  0.00    +0.020 A 
ATOM     24  C   UNL     1      -1.010   2.682  -3.332  0.00  0.00    -0.023 A 
ATOM     25  C   UNL     1      -2.174   2.812  -2.384  0.00  0.00    +0.046 C 
ATOM     26 BR   UNL     1       0.224   4.466  -6.860  0.00  0.00    -0.050 Br
ENDBRANCH  16  19
ENDBRANCH  14  16
ENDBRANCH   3  14
TORSDOF 4
