REMARK  Name = ZINC44606571
REMARK  7 active torsions:
REMARK  status: ('A' for Active; 'I' for Inactive)
REMARK    1  A    between atoms: C_1  and  O_2
REMARK    2  A    between atoms: O_2  and  C_3
REMARK    3  A    between atoms: C_25  and  O_36
REMARK    4  A    between atoms: C_27  and  O_35
REMARK    5  A    between atoms: C_29  and  C_31
REMARK    6  A    between atoms: C_31  and  O_33
REMARK    7  A    between atoms: O_33  and  C_34
REMARK                            x       y       z     vdW  Elec       q    Type
REMARK                         _______ _______ _______ _____ _____    ______ ____
ROOT
ATOM      1  C   UNL     1      -1.201  -0.638   0.010  0.00  0.00    +0.122 A 
ATOM      2  C   UNL     1      -2.363   0.125   0.020  0.00  0.00    +0.046 A 
ATOM      3  C   UNL     1      -3.610  -0.449   0.029  0.00  0.00    +0.014 A 
ATOM      4  C   UNL     1      -3.666  -1.846   0.028  0.00  0.00    +0.003 A 
ATOM      5  C   UNL     1      -2.483  -2.631   0.017  0.00  0.00    +0.050 A 
ATOM      6  C   UNL     1      -1.229  -2.026   0.003  0.00  0.00    +0.071 A 
ATOM      7  N   UNL     1      -2.865  -3.943   0.017  0.00  0.00    -0.359 N 
ATOM      8  H   UNL     1      -2.259  -4.701   0.012  0.00  0.00    +0.166 HD
ATOM      9  C   UNL     1      -4.231  -4.028   0.027  0.00  0.00    +0.007 A 
ATOM     10  C   UNL     1      -4.766  -2.784   0.035  0.00  0.00    -0.022 A 
ATOM     11  C   UNL     1      -6.251  -2.520   0.047  0.00  0.00    +0.019 C 
ATOM     12  C   UNL     1      -6.970  -3.825  -0.326  0.00  0.00    -0.073 C 
ATOM     13  N   UNL     1      -6.431  -4.927   0.479  0.00  0.00    +0.386 N 
ATOM     14  C   UNL     1      -5.077  -5.276   0.028  0.00  0.00    -0.020 C 
ATOM     15  C   UNL     1      -4.477  -6.319   0.972  0.00  0.00    -0.005 C 
ATOM     16  C   UNL     1      -5.361  -7.569   0.943  0.00  0.00    +0.006 C 
ATOM     17  C   UNL     1      -6.790  -7.185   1.334  0.00  0.00    -0.021 C 
ATOM     18  C   UNL     1      -7.304  -6.103   0.384  0.00  0.00    -0.074 C 
ATOM     19  C   UNL     1      -7.682  -8.425   1.256  0.00  0.00    +0.036 C 
ATOM     20  C   UNL     1      -7.159  -9.483   2.230  0.00  0.00    +0.144 C 
ATOM     21  C   UNL     1      -5.722  -9.857   1.864  0.00  0.00    +0.157 C 
ATOM     22  C   UNL     1      -4.835  -8.611   1.930  0.00  0.00    +0.132 C 
ATOM     23  H   UNL     1      -6.381  -4.633   1.443  0.00  0.00    -0.081 HD
ENDROOT
BRANCH   1  25
ATOM     24  C   UNL     1      -0.017   1.425   0.010  0.00  0.00    +0.277 C 
ATOM     25  O   UNL     1       0.002  -0.004   0.002  0.00  0.00    -0.495 OA
ENDBRANCH   1  25
BRANCH  22  26
ATOM     26  C   UNL     1      -4.863  -8.042   3.325  0.00  0.00    +0.313 C 
ATOM     27  O   UNL     1      -5.262  -6.917   3.511  0.00  0.00    -0.250 OA
BRANCH  26  28
ATOM     28  O   UNL     1      -4.444  -8.786   4.362  0.00  0.00    -0.468 OA
ATOM     29  C   UNL     1      -4.497  -8.183   5.656  0.00  0.00    +0.280 C 
ENDBRANCH  26  28
ENDBRANCH  22  26
BRANCH  21  30
ATOM     30  O   UNL     1      -5.236 -10.835   2.786  0.00  0.00    -0.388 OA
ATOM     31  H   UNL     1      -5.750 -11.654   2.798  0.00  0.00    +0.210 HD
ENDBRANCH  21  30
BRANCH  20  32
ATOM     32  O   UNL     1      -7.189  -8.962   3.560  0.00  0.00    -0.389 OA
ATOM     33  H   UNL     1      -6.871  -9.580   4.232  0.00  0.00    +0.210 HD
ENDBRANCH  20  32
TORSDOF 5
