REMARK  Name = ZINC08991480
REMARK  7 active torsions:
REMARK  status: ('A' for Active; 'I' for Inactive)
REMARK    1  A    between atoms: C_1  and  C_2
REMARK    2  A    between atoms: C_11  and  C_13
REMARK    3  A    between atoms: C_18  and  O_19
REMARK    4  A    between atoms: O_19  and  C_20
REMARK    5  A    between atoms: N_21  and  C_22
REMARK    6  A    between atoms: C_22  and  C_23
REMARK    7  A    between atoms: C_23  and  C_24
REMARK                            x       y       z     vdW  Elec       q    Type
REMARK                         _______ _______ _______ _____ _____    ______ ____
ROOT
ATOM      1  C   UNL     1      -1.507  -7.812  -2.256  0.00  0.00    +0.066 C 
ATOM      2  C   UNL     1      -1.068  -6.509  -1.638  0.00  0.00    +0.047 A 
ATOM      3  C   UNL     1       0.135  -6.431  -1.000  0.00  0.00    +0.093 A 
ATOM      4  C   UNL     1       0.529  -5.202  -0.435  0.00  0.00    +0.257 A 
ATOM      5  O   UNL     1       1.595  -5.097   0.150  0.00  0.00    -0.267 OA
ATOM      6  N   UNL     1      -0.294  -4.148  -0.556  0.00  0.00    -0.255 N 
ATOM      7  C   UNL     1      -1.498  -4.292  -1.190  0.00  0.00    +0.207 A 
ATOM      8  N   UNL     1      -1.858  -5.438  -1.717  0.00  0.00    -0.221 NA
ATOM      9  N   UNL     1      -2.314  -3.178  -1.248  0.00  0.00    -0.259 N 
ATOM     10  C   UNL     1      -2.288  -2.342  -0.137  0.00  0.00    +0.162 C 
ATOM     11  C   UNL     1       0.062  -2.828  -0.027  0.00  0.00    +0.224 C 
ATOM     12  N   UNL     1      -3.430  -1.713   0.300  0.00  0.00    -0.318 N 
ATOM     13  H   UNL     1      -2.873  -2.991  -2.019  0.00  0.00    +0.158 HD
ATOM     14  H   UNL     1      -4.268  -1.849  -0.169  0.00  0.00    +0.149 HD
ATOM     15  N   UNL     1      -1.148  -2.131   0.538  0.00  0.00    -0.337 N 
ATOM     16  H   UNL     1      -1.103  -1.539   1.376  0.00  0.00    +0.164 HD
ENDROOT
BRANCH  11  17
ATOM     17  C   UNL     1       0.666  -1.991  -1.125  0.00  0.00    +0.037 A 
ATOM     18  C   UNL     1       1.276  -2.602  -2.204  0.00  0.00    +0.011 A 
ATOM     19  C   UNL     1       1.835  -1.835  -3.209  0.00  0.00    +0.001 A 
ATOM     20  C   UNL     1       1.781  -0.455  -3.139  0.00  0.00    +0.004 A 
ATOM     21  C   UNL     1       1.168   0.161  -2.065  0.00  0.00    +0.046 A 
ATOM     22  C   UNL     1       0.606  -0.607  -1.056  0.00  0.00    +0.127 A 
BRANCH  22  23
ATOM     23  O   UNL     1       0.002  -0.004   0.002  0.00  0.00    -0.495 OA
ATOM     24  C   UNL     1      -0.017   1.425   0.010  0.00  0.00    +0.277 C 
ENDBRANCH  22  23
ENDBRANCH  11  17
BRANCH  12  25
ATOM     25  C   UNL     1      -3.381  -0.837   1.473  0.00  0.00    +0.109 C 
BRANCH  25  26
ATOM     26  C   UNL     1      -4.775  -0.268   1.743  0.00  0.00    +0.056 C 
BRANCH  26  27
ATOM     27  C   UNL     1      -4.724   0.634   2.950  0.00  0.00    -0.021 A 
ATOM     28  C   UNL     1      -5.008   0.290   4.216  0.00  0.00    +0.087 A 
ATOM     29  N   UNL     1      -4.851   1.371   5.040  0.00  0.00    -0.360 N 
ATOM     30  H   UNL     1      -4.999   1.367   5.998  0.00  0.00    +0.165 HD
ATOM     31  C   UNL     1      -4.452   2.465   4.305  0.00  0.00    +0.047 A 
ATOM     32  C   UNL     1      -4.349   2.050   2.965  0.00  0.00    +0.003 A 
ATOM     33  C   UNL     1      -3.965   2.962   1.980  0.00  0.00    +0.010 A 
ATOM     34  C   UNL     1      -3.680   4.253   2.326  0.00  0.00    +0.001 A 
ATOM     35  C   UNL     1      -3.774   4.666   3.648  0.00  0.00    +0.002 A 
ATOM     36  C   UNL     1      -4.157   3.784   4.634  0.00  0.00    +0.026 A 
ENDBRANCH  26  27
ENDBRANCH  25  26
ENDBRANCH  12  25
TORSDOF 5
