REMARK  Name = ZINC08325865
REMARK  7 active torsions:
REMARK  status: ('A' for Active; 'I' for Inactive)
REMARK    1  A    between atoms: C_1  and  C_2
REMARK    2  A    between atoms: C_5  and  S_8
REMARK    3  A    between atoms: S_8  and  N_11
REMARK    4  A    between atoms: C_17  and  C_18
REMARK    5  A    between atoms: C_17  and  N_57
REMARK    6  A    between atoms: C_18  and  C_20
REMARK    7  A    between atoms: C_21  and  C_30
REMARK                            x       y       z     vdW  Elec       q    Type
REMARK                         _______ _______ _______ _____ _____    ______ ____
ROOT
ATOM      1  N   UNL     1      -1.536   1.034  -0.801  0.00  0.00    -0.178 NA
ATOM      2  C   UNL     1      -1.150   2.228  -1.627  0.00  0.00    +0.107 C 
ATOM      3  C   UNL     1      -1.438   3.419  -0.821  0.00  0.00    -0.001 C 
ATOM      4  C   UNL     1      -0.710   3.455   0.518  0.00  0.00    -0.077 C 
ATOM      5  C   UNL     1      -1.226   1.389   1.685  0.00  0.00    -0.061 C 
ATOM      6  C   UNL     1      -0.764   0.721   0.369  0.00  0.00    +0.091 C 
ATOM      7  N   UNL     1      -1.629   2.806   1.437  0.00  0.00    +0.385 N 
ATOM      8  H   UNL     1      -2.569   2.814   1.025  0.00  0.00    -0.081 HD
ENDROOT
BRANCH   1   9
ATOM      9  S   UNL     1      -2.830   0.095  -1.232  0.00  0.00    +0.061 S 
ATOM     10  O   UNL     1      -3.018   0.279  -2.628  0.00  0.00    -0.153 OA
ATOM     11  O   UNL     1      -2.613  -1.185  -0.655  0.00  0.00    -0.153 OA
BRANCH   9  16
ATOM     12  C   UNL     1      -7.697   2.409   1.482  0.00  0.00    +0.044 C 
ATOM     13  C   UNL     1      -6.481   1.831   0.804  0.00  0.00    -0.050 A 
ATOM     14  C   UNL     1      -6.118   2.271  -0.455  0.00  0.00    +0.005 A 
ATOM     15  C   UNL     1      -5.003   1.740  -1.077  0.00  0.00    +0.029 A 
ATOM     16  C   UNL     1      -4.251   0.771  -0.439  0.00  0.00    +0.105 A 
ATOM     17  C   UNL     1      -4.617   0.329   0.818  0.00  0.00    +0.029 A 
ATOM     18  C   UNL     1      -5.730   0.862   1.442  0.00  0.00    +0.005 A 
ENDBRANCH   9  16
ENDBRANCH   1   9
BRANCH   7  19
ATOM     19  C   UNL     1      -1.657   3.553   2.718  0.00  0.00    +0.002 C 
BRANCH  19  20
ATOM     20  C   UNL     1      -0.314   3.497   3.400  0.00  0.00    +0.149 C 
ATOM     21  O   UNL     1       0.634   2.993   2.833  0.00  0.00    -0.294 OA
BRANCH  20  22
ATOM     22  C   UNL     1      -0.157   4.033   4.702  0.00  0.00    +0.043 A 
ATOM     23  C   UNL     1       0.246   5.311   5.029  0.00  0.00    +0.024 A 
ATOM     24  N   UNL     1       0.271   5.448   6.368  0.00  0.00    -0.358 N 
ATOM     25  H   UNL     1       0.522   6.261   6.834  0.00  0.00    +0.166 HD
ATOM     26  C   UNL     1      -0.102   4.272   6.987  0.00  0.00    +0.047 A 
ATOM     27  C   UNL     1      -0.387   3.334   5.982  0.00  0.00    +0.010 A 
ATOM     28  C   UNL     1      -0.792   2.047   6.321  0.00  0.00    +0.011 A 
ATOM     29  C   UNL     1      -0.912   1.697   7.649  0.00  0.00    +0.001 A 
ATOM     30  C   UNL     1      -0.631   2.622   8.644  0.00  0.00    +0.002 A 
ATOM     31  C   UNL     1      -0.229   3.900   8.321  0.00  0.00    +0.026 A 
ATOM     32  C   UNL     1       0.600   6.389   4.038  0.00  0.00    +0.064 C 
ENDBRANCH  20  22
ENDBRANCH  19  20
ENDBRANCH   7  19
TORSDOF 5
