REMARK  Name = ZINC20612164
REMARK  5 active torsions:
REMARK  status: ('A' for Active; 'I' for Inactive)
REMARK    1  A    between atoms: C_1  and  N_2
REMARK    2  A    between atoms: C_15  and  C_17
REMARK    3  A    between atoms: N_23  and  C_26
REMARK    4  A    between atoms: C_30  and  O_32
REMARK    5  A    between atoms: O_32  and  C_33
REMARK                            x       y       z     vdW  Elec       q    Type
REMARK                         _______ _______ _______ _____ _____    ______ ____
ROOT
ATOM      1  C   UNL     1      -0.058  -0.741   2.825  0.00  0.00    +0.074 A 
ATOM      2  C   UNL     1      -1.421  -0.550   2.534  0.00  0.00    +0.260 A 
ATOM      3  N   UNL     1      -2.140   0.326   3.263  0.00  0.00    -0.274 N 
ATOM      4  H   UNL     1      -3.080   0.459   3.065  0.00  0.00    +0.173 HD
ATOM      5  C   UNL     1      -1.565   1.016   4.265  0.00  0.00    +0.337 A 
ATOM      6  O   UNL     1      -2.231   1.800   4.912  0.00  0.00    -0.246 OA
ATOM      7  N   UNL     1      -0.263   0.850   4.562  0.00  0.00    -0.229 N 
ATOM      8  C   UNL     1       0.506  -0.036   3.847  0.00  0.00    +0.267 A 
ATOM      9  O   UNL     1       1.811  -0.205   4.151  0.00  0.00    -0.267 OA
ATOM     10  O   UNL     1      -1.947  -1.172   1.628  0.00  0.00    -0.267 OA
ENDROOT
BRANCH   1  25
ATOM     11  C   UNL     1       1.337  -0.089   0.353  0.00  0.00    -0.095 C 
ATOM     12  N   UNL     1       0.674  -1.378   0.593  0.00  0.00    +0.387 N 
ATOM     13  C   UNL     1       1.324  -2.418  -0.215  0.00  0.00    -0.073 C 
ATOM     14  C   UNL     1       0.454  -3.683  -0.220  0.00  0.00    +0.019 C 
ATOM     15  C   UNL     1       0.093  -3.999   1.210  0.00  0.00    -0.022 A 
ATOM     16  C   UNL     1      -0.441  -5.216   1.777  0.00  0.00    +0.003 A 
ATOM     17  C   UNL     1      -0.788  -6.452   1.222  0.00  0.00    +0.010 A 
ATOM     18  C   UNL     1      -1.276  -7.404   2.081  0.00  0.00    +0.001 A 
ATOM     19  C   UNL     1      -1.425  -7.165   3.438  0.00  0.00    +0.002 A 
ATOM     20  C   UNL     1      -1.090  -5.952   4.014  0.00  0.00    +0.026 A 
ATOM     21  C   UNL     1      -0.591  -4.966   3.166  0.00  0.00    +0.047 A 
ATOM     22  N   UNL     1      -0.172  -3.687   3.397  0.00  0.00    -0.359 N 
ATOM     23  H   UNL     1      -0.163  -3.251   4.264  0.00  0.00    +0.166 HD
ATOM     24  C   UNL     1       0.235  -3.114   2.224  0.00  0.00    +0.011 A 
ATOM     25  C   UNL     1       0.766  -1.714   2.022  0.00  0.00    +0.021 C 
ATOM     26  H   UNL     1      -0.297  -1.309   0.328  0.00  0.00    -0.081 HD
ENDBRANCH   1  25
BRANCH   7  27
ATOM     27  C   UNL     1       0.311   1.581   5.610  0.00  0.00    +0.058 A 
ATOM     28  C   UNL     1       0.309   1.067   6.900  0.00  0.00    +0.026 A 
ATOM     29  C   UNL     1       0.874   1.788   7.933  0.00  0.00    +0.006 A 
ATOM     30  C   UNL     1       1.444   3.023   7.686  0.00  0.00    +0.046 A 
ATOM     31  C   UNL     1       1.448   3.542   6.400  0.00  0.00    +0.122 A 
ATOM     32  C   UNL     1       0.887   2.818   5.359  0.00  0.00    +0.072 A 
BRANCH  31  33
ATOM     33  O   UNL     1       2.008   4.757   6.159  0.00  0.00    -0.495 OA
ATOM     34  C   UNL     1       2.572   5.445   7.277  0.00  0.00    +0.277 C 
ENDBRANCH  31  33
ENDBRANCH   7  27
TORSDOF 3
