REMARK  Name = ZINC03073040
REMARK  4 active torsions:
REMARK  status: ('A' for Active; 'I' for Inactive)
REMARK    1  A    between atoms: C_9  and  S_11
REMARK    2  A    between atoms: S_11  and  C_12
REMARK    3  A    between atoms: C_15  and  C_21
REMARK    4  A    between atoms: C_17  and  N_18
REMARK                            x       y       z     vdW  Elec       q    Type
REMARK                         _______ _______ _______ _____ _____    ______ ____
ROOT
ATOM      1  C   UNL     1      -0.557  -2.799  -0.134  0.00  0.00    +0.043 A 
ATOM      2  C   UNL     1      -1.593  -1.968  -0.561  0.00  0.00    +0.018 A 
ATOM      3  C   UNL     1      -2.891  -2.327  -0.349  0.00  0.00    +0.009 A 
ATOM      4  C   UNL     1      -3.185  -3.538   0.301  0.00  0.00    -0.022 A 
ATOM      5  C   UNL     1      -2.138  -4.372   0.729  0.00  0.00    +0.041 A 
ATOM      6  C   UNL     1      -0.843  -4.005   0.508  0.00  0.00    +0.140 A 
ENDROOT
BRANCH   4   7
ATOM      7  C   UNL     1      -4.532  -3.917   0.524  0.00  0.00    +0.026 C 
ATOM      8  C   UNL     1      -5.437  -2.993   1.025  0.00  0.00    +0.101 C 
ATOM      9  C   UNL     1      -6.878  -3.282   1.080  0.00  0.00    +0.274 C 
ATOM     10  O   UNL     1      -7.363  -4.464   0.641  0.00  0.00    -0.268 OA
ATOM     11  N   UNL     1      -7.688  -2.359   1.568  0.00  0.00    -0.154 NA
ATOM     12  C   UNL     1      -7.239  -1.186   2.007  0.00  0.00    +0.164 C 
ATOM     13  S   UNL     1      -8.377  -0.063   2.621  0.00  0.00    -0.016 S 
ATOM     14  N   UNL     1      -5.945  -0.835   1.997  0.00  0.00    -0.262 N 
ATOM     15  C   UNL     1      -4.998  -1.678   1.532  0.00  0.00    +0.255 C 
ATOM     16  O   UNL     1      -3.823  -1.363   1.527  0.00  0.00    -0.270 OA
ATOM     17  H   UNL     1      -5.684   0.037   2.333  0.00  0.00    +0.157 HD
ENDBRANCH   4   7
BRANCH   6  18
ATOM     18  N   UNL     1       0.261  -4.885   0.954  0.00  0.00    +0.058 N 
ATOM     19  O   UNL     1       0.014  -5.930   1.509  0.00  0.00    -0.126 OA
ATOM     20  O   UNL     1       1.409  -4.558   0.762  0.00  0.00    -0.126 OA
ENDBRANCH   6  18
BRANCH   1  21
ATOM     21  S   UNL     1       1.118  -2.329  -0.411  0.00  0.00    -0.085 S 
BRANCH  21  30
ATOM     22  C   UNL     1       1.199   1.670  -0.922  0.00  0.00    +0.002 A 
ATOM     23  C   UNL     1       0.817   1.848  -2.218  0.00  0.00    +0.010 A 
ATOM     24  C   UNL     1       0.509   0.735  -3.017  0.00  0.00    +0.001 A 
ATOM     25  C   UNL     1       0.112   0.886  -4.359  0.00  0.00    +0.011 A 
ATOM     26  C   UNL     1      -0.172  -0.240  -5.078  0.00  0.00    +0.020 A 
ATOM     27  C   UNL     1      -0.065  -1.493  -4.478  0.00  0.00    +0.111 A 
ATOM     28  N   UNL     1       0.306  -1.629  -3.227  0.00  0.00    -0.254 NA
ATOM     29  C   UNL     1       0.598  -0.568  -2.470  0.00  0.00    +0.085 A 
ATOM     30  C   UNL     1       0.997  -0.722  -1.124  0.00  0.00    +0.039 A 
ATOM     31  C   UNL     1       1.291   0.396  -0.372  0.00  0.00    +0.017 A 
ENDBRANCH  21  30
ENDBRANCH   1  21
TORSDOF 4
