REMARK  Name = ZINC39685155
REMARK  9 active torsions:
REMARK  status: ('A' for Active; 'I' for Inactive)
REMARK    1  A    between atoms: C_4  and  C_7
REMARK    2  A    between atoms: C_7  and  C_8
REMARK    3  A    between atoms: C_8  and  C_9
REMARK    4  A    between atoms: C_9  and  C_10
REMARK    5  A    between atoms: C_14  and  C_23
REMARK    6  A    between atoms: N_25  and  C_26
REMARK    7  A    between atoms: C_26  and  C_27
REMARK    8  A    between atoms: C_27  and  O_28
REMARK    9  A    between atoms: O_28  and  C_29
REMARK                            x       y       z     vdW  Elec       q    Type
REMARK                         _______ _______ _______ _____ _____    ______ ____
ROOT
ATOM      1  C   UNL     1       5.961  -2.003   2.956  0.00  0.00    +0.216 C 
ATOM      2  O   UNL     1       5.331  -1.587   3.905  0.00  0.00    -0.276 OA
ATOM      3  N   UNL     1       7.142  -2.623   3.150  0.00  0.00    -0.300 N 
ATOM      4  C   UNL     1       8.051  -3.188   2.126  0.00  0.00    +0.121 C 
ATOM      5  C   UNL     1       9.470  -2.836   2.626  0.00  0.00    +0.100 C 
ATOM      6  C   UNL     1       9.315  -2.646   4.144  0.00  0.00    -0.004 C 
ATOM      7  C   UNL     1       7.828  -2.889   4.438  0.00  0.00    +0.115 C 
ATOM      8  C   UNL     1      10.175  -3.659   4.893  0.00  0.00    -0.010 C 
ATOM      9  C   UNL     1      10.050  -3.413   6.399  0.00  0.00    -0.082 C 
ATOM     10  N   UNL     1      10.484  -2.046   6.712  0.00  0.00    +0.379 N 
ATOM     11  C   UNL     1       9.594  -1.077   6.061  0.00  0.00    -0.082 C 
ATOM     12  C   UNL     1       9.701  -1.224   4.541  0.00  0.00    -0.010 C 
ATOM     13  H   UNL     1      10.458  -1.907   7.711  0.00  0.00    -0.086 HD
ATOM     14  H   UNL     1      11.427  -1.911   6.380  0.00  0.00    -0.086 HD
ENDROOT
BRANCH   5  15
ATOM     15  C   UNL     1      10.425  -3.963   2.330  0.00  0.00    +0.218 C 
ATOM     16  O   UNL     1      10.025  -5.107   2.307  0.00  0.00    -0.275 OA
ATOM     17  N   UNL     1      11.725  -3.699   2.090  0.00  0.00    -0.312 N 
ATOM     18  H   UNL     1      12.046  -2.784   2.108  0.00  0.00    +0.149 HD
BRANCH  17  19
ATOM     19  C   UNL     1      12.654  -4.795   1.803  0.00  0.00    +0.145 C 
BRANCH  19  20
ATOM     20  C   UNL     1      14.056  -4.228   1.570  0.00  0.00    +0.248 C 
BRANCH  20  21
ATOM     21  O   UNL     1      14.535  -3.632   2.778  0.00  0.00    -0.488 OA
BRANCH  21  22
ATOM     22  C   UNL     1      15.776  -3.077   2.742  0.00  0.00    +0.156 A 
ATOM     23  C   UNL     1      16.514  -3.100   1.568  0.00  0.00    +0.048 A 
ATOM     24  C   UNL     1      17.774  -2.535   1.534  0.00  0.00    +0.004 A 
ATOM     25  C   UNL     1      18.302  -1.948   2.669  0.00  0.00    +0.003 A 
ATOM     26  C   UNL     1      17.570  -1.923   3.842  0.00  0.00    +0.042 A 
ATOM     27  C   UNL     1      16.305  -2.481   3.880  0.00  0.00    +0.165 A 
ATOM     28  F   UNL     1      15.587  -2.453   5.024  0.00  0.00    -0.202 F 
ENDBRANCH  21  22
ENDBRANCH  20  21
ENDBRANCH  19  20
ENDBRANCH  17  19
ENDBRANCH   5  15
BRANCH   1  29
ATOM     29  C   UNL     1       5.424  -1.826   1.559  0.00  0.00    +0.096 C 
BRANCH  29  30
ATOM     30  C   UNL     1       4.080  -1.098   1.617  0.00  0.00    +0.014 C 
BRANCH  30  31
ATOM     31  C   UNL     1       3.535  -0.918   0.199  0.00  0.00    +0.035 C 
BRANCH  31  35
ATOM     32  C   UNL     1      -0.218   1.116   0.361  0.00  0.00    +0.000 A 
ATOM     33  C   UNL     1       0.956   1.838   0.251  0.00  0.00    +0.000 A 
ATOM     34  C   UNL     1       2.170   1.180   0.199  0.00  0.00    +0.003 A 
ATOM     35  C   UNL     1       2.211  -0.201   0.257  0.00  0.00    -0.047 A 
ATOM     36  C   UNL     1       1.038  -0.923   0.368  0.00  0.00    +0.003 A 
ATOM     37  C   UNL     1      -0.177  -0.265   0.418  0.00  0.00    +0.000 A 
ENDBRANCH  31  35
ENDBRANCH  30  31
ENDBRANCH  29  30
ENDBRANCH   1  29
TORSDOF 9
