REMARK  Name = ZINC00849489
REMARK  6 active torsions:
REMARK  status: ('A' for Active; 'I' for Inactive)
REMARK    1  A    between atoms: C_1  and  C_2
REMARK    2  A    between atoms: C_9  and  N_14
REMARK    3  A    between atoms: C_10  and  C_11
REMARK    4  A    between atoms: N_14  and  C_15
REMARK    5  A    between atoms: C_15  and  N_17
REMARK    6  A    between atoms: C_18  and  C_20
REMARK                            x       y       z     vdW  Elec       q    Type
REMARK                         _______ _______ _______ _____ _____    ______ ____
ROOT
ATOM      1  C   UNL     1       4.799  -2.537  -0.155  0.00  0.00    +0.008 C 
ATOM      2  C   UNL     1       3.951  -1.292  -0.425  0.00  0.00    -0.009 C 
ATOM      3  C   UNL     1       4.473  -0.122   0.414  0.00  0.00    +0.008 C 
ATOM      4  C   UNL     1       3.798   1.177  -0.028  0.00  0.00    +0.037 C 
ATOM      5  C   UNL     1       2.288   0.974  -0.015  0.00  0.00    -0.023 A 
ATOM      6  C   UNL     1       1.753  -0.266  -0.017  0.00  0.00    -0.004 A 
ATOM      7  S   UNL     1       0.002  -0.004   0.002  0.00  0.00    -0.077 S 
ATOM      8  C   UNL     1      -0.021   1.728   0.011  0.00  0.00    +0.084 A 
ATOM      9  C   UNL     1       1.326   2.063   0.001  0.00  0.00    +0.068 A 
ATOM     10  C   UNL     1       2.492  -1.569  -0.032  0.00  0.00    +0.046 C 
ENDROOT
BRANCH   9  11
ATOM     11  C   UNL     1       1.762   3.462   0.003  0.00  0.00    +0.244 C 
ATOM     12  O   UNL     1       1.953   4.038   1.059  0.00  0.00    -0.270 OA
ATOM     13  N   UNL     1       1.950   4.112  -1.162  0.00  0.00    -0.325 N 
ATOM     14  H   UNL     1       1.798   3.653  -2.003  0.00  0.00    +0.145 HD
ATOM     15  H   UNL     1       2.239   5.038  -1.161  0.00  0.00    +0.145 HD
ENDBRANCH   9  11
BRANCH   8  16
ATOM     16  N   UNL     1      -1.119   2.575   0.022  0.00  0.00    -0.291 N 
ATOM     17  H   UNL     1      -0.990   3.536   0.026  0.00  0.00    +0.154 HD
BRANCH  16  18
ATOM     18  C   UNL     1      -2.365   2.062   0.026  0.00  0.00    +0.141 C 
ATOM     19  S   UNL     1      -2.593   0.365   0.018  0.00  0.00    -0.018 S 
BRANCH  18  20
ATOM     20  N   UNL     1      -3.432   2.885   0.035  0.00  0.00    -0.263 N 
ATOM     21  C   UNL     1      -4.679   2.372   0.039  0.00  0.00    +0.252 C 
ATOM     22  O   UNL     1      -4.840   1.167   0.034  0.00  0.00    -0.270 OA
ATOM     23  H   UNL     1      -3.303   3.846   0.040  0.00  0.00    +0.157 HD
BRANCH  21  24
ATOM     24  C   UNL     1      -5.848   3.274   0.050  0.00  0.00    +0.072 A 
ATOM     25  C   UNL     1      -5.666   4.659   0.056  0.00  0.00    +0.016 A 
ATOM     26  C   UNL     1      -6.762   5.495   0.066  0.00  0.00    +0.001 A 
ATOM     27  C   UNL     1      -8.042   4.966   0.069  0.00  0.00    +0.003 A 
ATOM     28  C   UNL     1      -8.232   3.598   0.062  0.00  0.00    +0.039 A 
ATOM     29  C   UNL     1      -7.143   2.745   0.049  0.00  0.00    +0.135 A 
ATOM     30  F   UNL     1      -7.329   1.407   0.037  0.00  0.00    -0.205 F 
ENDBRANCH  21  24
ENDBRANCH  18  20
ENDBRANCH  16  18
ENDBRANCH   8  16
TORSDOF 5
