REMARK  Name = ZINC08691590
REMARK  8 active torsions:
REMARK  status: ('A' for Active; 'I' for Inactive)
REMARK    1  A    between atoms: C_1  and  C_2
REMARK    2  A    between atoms: C_2  and  O_3
REMARK    3  A    between atoms: O_3  and  C_4
REMARK    4  A    between atoms: C_4  and  C_6
REMARK    5  A    between atoms: C_6  and  C_19
REMARK    6  A    between atoms: C_15  and  C_17
REMARK    7  A    between atoms: C_15  and  C_18
REMARK    8  A    between atoms: N_21  and  C_22
REMARK                            x       y       z     vdW  Elec       q    Type
REMARK                         _______ _______ _______ _____ _____    ______ ____
ROOT
ATOM      1  C   UNL     1      -2.477  -2.339  -0.282  0.00  0.00    +0.142 C 
ATOM      2  C   UNL     1      -2.212  -3.638  -0.716  0.00  0.00    +0.054 C 
ATOM      3  C   UNL     1      -0.855  -4.221  -0.639  0.00  0.00    +0.000 A 
ATOM      4  C   UNL     1       0.230  -3.421  -0.274  0.00  0.00    +0.010 A 
ATOM      5  C   UNL     1       1.492  -3.974  -0.198  0.00  0.00    +0.001 A 
ATOM      6  C   UNL     1       1.677  -5.316  -0.482  0.00  0.00    +0.000 A 
ATOM      7  C   UNL     1       0.606  -6.112  -0.846  0.00  0.00    +0.004 A 
ATOM      8  C   UNL     1      -0.664  -5.573  -0.930  0.00  0.00    -0.036 A 
ATOM      9  C   UNL     1      -1.814  -6.452  -1.345  0.00  0.00    +0.061 C 
ATOM     10  C   UNL     1      -3.144  -5.869  -0.868  0.00  0.00    +0.031 C 
ATOM     11  N   UNL     1      -3.202  -4.446  -1.232  0.00  0.00    -0.337 N 
ATOM     12  C   UNL     1      -3.249  -6.009   0.652  0.00  0.00    +0.031 C 
ATOM     13  C   UNL     1      -4.300  -6.617  -1.535  0.00  0.00    +0.031 C 
ATOM     14  H   UNL     1      -3.900  -4.095  -1.807  0.00  0.00    +0.147 HD
ENDROOT
BRANCH   1  15
ATOM     15  C   UNL     1      -3.778  -1.724  -0.561  0.00  0.00    +0.257 C 
ATOM     16  O   UNL     1      -4.665  -2.383  -1.072  0.00  0.00    -0.270 OA
ATOM     17  N   UNL     1      -3.992  -0.430  -0.252  0.00  0.00    -0.281 N 
ATOM     18  H   UNL     1      -3.316   0.072   0.228  0.00  0.00    +0.155 HD
BRANCH  17  19
ATOM     19  C   UNL     1      -5.190   0.189  -0.625  0.00  0.00    +0.034 A 
ATOM     20  C   UNL     1      -6.335  -0.573  -0.821  0.00  0.00    +0.024 A 
ATOM     21  C   UNL     1      -7.516   0.041  -1.188  0.00  0.00    +0.017 A 
ATOM     22  C   UNL     1      -7.560   1.413  -1.361  0.00  0.00    +0.018 A 
ATOM     23  C   UNL     1      -6.421   2.174  -1.166  0.00  0.00    +0.017 A 
ATOM     24  C   UNL     1      -5.238   1.567  -0.793  0.00  0.00    +0.024 A 
ATOM     25 BR   UNL     1      -9.180   2.250  -1.864  0.00  0.00    -0.050 Br
ENDBRANCH  17  19
ENDBRANCH   1  15
BRANCH   1  26
ATOM     26  C   UNL     1      -1.457  -1.590   0.453  0.00  0.00    +0.346 C 
ATOM     27  O   UNL     1      -0.679  -0.873  -0.148  0.00  0.00    -0.245 OA
BRANCH  26  28
ATOM     28  O   UNL     1      -1.380  -1.693   1.795  0.00  0.00    -0.461 OA
BRANCH  28  30
ATOM     29  C   UNL     1      -0.427  -1.178   3.956  0.00  0.00    +0.048 C 
ATOM     30  C   UNL     1      -0.360  -0.934   2.447  0.00  0.00    +0.229 C 
ENDBRANCH  28  30
ENDBRANCH  26  28
ENDBRANCH   1  26
TORSDOF 5
