REMARK  Name = ZINC43109150
REMARK  6 active torsions:
REMARK  status: ('A' for Active; 'I' for Inactive)
REMARK    1  A    between atoms: C_1  and  C_2
REMARK    2  A    between atoms: C_2  and  C_4
REMARK    3  A    between atoms: C_2  and  N_21
REMARK    4  A    between atoms: C_4  and  C_6
REMARK    5  A    between atoms: C_4  and  O_11
REMARK    6  A    between atoms: O_11  and  C_12
REMARK                            x       y       z     vdW  Elec       q    Type
REMARK                         _______ _______ _______ _____ _____    ______ ____
ROOT
ATOM      1  C   UNL     1       0.760  -0.527   1.259  0.00  0.00    +0.196 C 
ENDROOT
BRANCH   1   2
ATOM      2  C   UNL     1       2.238  -0.231   1.280  0.00  0.00    +0.028 A 
ATOM      3  C   UNL     1       3.269  -0.998   0.849  0.00  0.00    +0.015 A 
ATOM      4  C   UNL     1       4.559  -0.515   0.968  0.00  0.00    +0.008 A 
ATOM      5  C   UNL     1       4.754   0.710   1.513  0.00  0.00    +0.045 A 
ATOM      6  S   UNL     1       3.083   1.226   1.872  0.00  0.00    -0.098 S 
ENDBRANCH   1   2
BRANCH   1   8
ATOM      7  C   UNL     1       0.243   1.599   0.053  0.00  0.00    -0.010 C 
ATOM      8  C   UNL     1       0.137   0.073  -0.002  0.00  0.00    -0.032 C 
BRANCH   8   9
ATOM      9  N   UNL     1      -1.277  -0.317  -0.084  0.00  0.00    +0.382 N 
ATOM     10  H   UNL     1      -1.767   0.025   0.729  0.00  0.00    -0.089 HD
ATOM     11  H   UNL     1      -1.688   0.079  -0.916  0.00  0.00    -0.089 HD
ATOM     12  H   UNL     1      -1.346  -1.323  -0.121  0.00  0.00    -0.089 HD
ENDBRANCH   8   9
ENDBRANCH   1   8
BRANCH   1  13
ATOM     13  O   UNL     1       0.143   0.044   2.414  0.00  0.00    -0.484 OA
BRANCH  13  14
ATOM     14  C   UNL     1      -0.936  -0.607   2.923  0.00  0.00    +0.141 A 
ATOM     15  C   UNL     1      -1.345  -1.811   2.370  0.00  0.00    +0.068 A 
ATOM     16  C   UNL     1      -2.443  -2.472   2.889  0.00  0.00    +0.063 A 
ATOM     17  C   UNL     1      -3.134  -1.932   3.961  0.00  0.00    +0.061 A 
ATOM     18  C   UNL     1      -2.727  -0.731   4.514  0.00  0.00    +0.045 A 
ATOM     19  C   UNL     1      -1.627  -0.070   4.001  0.00  0.00    +0.084 A 
ATOM     20 CL   UNL     1      -1.113   1.434   4.700  0.00  0.00    -0.080 Cl
ATOM     21 CL   UNL     1      -4.513  -2.763   4.611  0.00  0.00    -0.082 Cl
ATOM     22 CL   UNL     1      -2.956  -3.979   2.197  0.00  0.00    -0.082 Cl
ENDBRANCH  13  14
ENDBRANCH   1  13
TORSDOF 5
