REMARK  Name = ZINC48725225
REMARK  7 active torsions:
REMARK  status: ('A' for Active; 'I' for Inactive)
REMARK    1  A    between atoms: C_1  and  C_2
REMARK    2  A    between atoms: C_5  and  S_8
REMARK    3  A    between atoms: N_6  and  N_7
REMARK    4  A    between atoms: S_8  and  C_9
REMARK    5  A    between atoms: C_9  and  C_11
REMARK    6  A    between atoms: C_9  and  C_12
REMARK    7  A    between atoms: N_14  and  C_15
REMARK                            x       y       z     vdW  Elec       q    Type
REMARK                         _______ _______ _______ _____ _____    ______ ____
ROOT
ATOM      1  C   UNL     1      -0.035  -6.236   0.998  0.00  0.00    +0.230 C 
ATOM      2  O   UNL     1       0.254  -6.342   2.171  0.00  0.00    -0.274 OA
ATOM      3  N   UNL     1      -0.437  -7.318   0.302  0.00  0.00    -0.283 N 
ATOM      4  H   UNL     1      -0.731  -7.221  -0.617  0.00  0.00    +0.155 HD
ENDROOT
BRANCH   3   5
ATOM      5  C   UNL     1      -0.432  -8.581   0.907  0.00  0.00    +0.053 A 
ATOM      6  C   UNL     1      -0.728  -8.706   2.258  0.00  0.00    +0.046 A 
ATOM      7  C   UNL     1      -0.723  -9.954   2.852  0.00  0.00    +0.061 A 
ATOM      8  C   UNL     1      -0.422 -11.079   2.102  0.00  0.00    +0.061 A 
ATOM      9  C   UNL     1      -0.127 -10.956   0.756  0.00  0.00    +0.043 A 
ATOM     10  C   UNL     1      -0.137  -9.711   0.155  0.00  0.00    +0.064 A 
ATOM     11 CL   UNL     1       0.226  -9.559  -1.536  0.00  0.00    -0.082 Cl
ATOM     12 CL   UNL     1      -0.415 -12.644   2.852  0.00  0.00    -0.082 Cl
ATOM     13 CL   UNL     1      -1.092 -10.111   4.541  0.00  0.00    -0.082 Cl
ENDBRANCH   3   5
BRANCH   1  14
ATOM     14  C   UNL     1       0.056  -4.894   0.318  0.00  0.00    +0.137 C 
ATOM     15  C   UNL     1       1.357  -4.815  -0.483  0.00  0.00    +0.029 C 
BRANCH  14  16
ATOM     16  S   UNL     1       0.036  -3.580   1.569  0.00  0.00    -0.072 S 
BRANCH  16  21
ATOM     17  C   UNL     1      -0.081   1.506   0.034  0.00  0.00    +0.090 C 
ATOM     18  C   UNL     1      -0.050  -0.000   0.021  0.00  0.00    +0.148 A 
ATOM     19  N   UNL     1      -0.041  -0.764  -1.035  0.00  0.00    -0.132 NA
ATOM     20  N   UNL     1      -0.012  -2.000  -0.685  0.00  0.00    -0.121 NA
ATOM     21  C   UNL     1      -0.002  -2.093   0.624  0.00  0.00    +0.209 A 
ATOM     22  N   UNL     1      -0.020  -0.819   1.116  0.00  0.00    -0.228 N 
BRANCH  22  23
ATOM     23  N   UNL     1      -0.013  -0.442   2.429  0.00  0.00    -0.295 N 
ATOM     24  H   UNL     1      -0.953  -0.362   2.787  0.00  0.00    +0.163 HD
ATOM     25  H   UNL     1       0.533  -1.081   2.986  0.00  0.00    +0.163 HD
ENDBRANCH  22  23
ENDBRANCH  16  21
ENDBRANCH  14  16
ENDBRANCH   1  14
TORSDOF 5
