REMARK  Name = ZINC06248795
REMARK  6 active torsions:
REMARK  status: ('A' for Active; 'I' for Inactive)
REMARK    1  A    between atoms: C_1  and  O_2
REMARK    2  A    between atoms: O_2  and  C_3
REMARK    3  A    between atoms: C_15  and  O_27
REMARK    4  A    between atoms: C_21  and  O_26
REMARK    5  A    between atoms: C_24  and  O_25
REMARK    6  A    between atoms: O_27  and  C_28
REMARK                            x       y       z     vdW  Elec       q    Type
REMARK                         _______ _______ _______ _____ _____    ______ ____
ROOT
ATOM      1  C   UNL     1      -1.267   1.048   2.273  0.00  0.00    +0.124 A 
ATOM      2  C   UNL     1      -1.864   1.762   3.310  0.00  0.00    +0.046 A 
ATOM      3  C   UNL     1      -1.877   3.144   3.290  0.00  0.00    +0.004 A 
ATOM      4  C   UNL     1      -1.296   3.839   2.236  0.00  0.00    +0.005 A 
ATOM      5  C   UNL     1      -0.713   3.134   1.221  0.00  0.00    -0.028 A 
ATOM      6  C   UNL     1      -0.697   1.714   1.222  0.00  0.00    +0.010 A 
ATOM      7  C   UNL     1      -0.013   1.086   0.008  0.00  0.00    +0.087 C 
ATOM      8  C   UNL     1       1.364   1.748  -0.002  0.00  0.00    -0.028 A 
ATOM      9  C   UNL     1       2.546   1.062  -0.010  0.00  0.00    +0.005 A 
ATOM     10  C   UNL     1       3.737   1.776  -0.019  0.00  0.00    +0.004 A 
ATOM     11  C   UNL     1       3.728   3.157  -0.019  0.00  0.00    +0.046 A 
ATOM     12  C   UNL     1       2.520   3.854  -0.011  0.00  0.00    +0.124 A 
ATOM     13  C   UNL     1       1.349   3.142  -0.002  0.00  0.00    +0.010 A 
ATOM     14  C   UNL     1      -0.041   3.776   0.007  0.00  0.00    +0.087 C 
ATOM     15  C   UNL     1      -0.735   3.120  -1.186  0.00  0.00    +0.013 A 
ATOM     16  C   UNL     1      -0.720   1.727  -1.186  0.00  0.00    +0.013 A 
ATOM     17  C   UNL     1      -1.307   1.020  -2.202  0.00  0.00    +0.121 A 
ATOM     18  C   UNL     1      -1.922   1.720  -3.239  0.00  0.00    +0.049 A 
ATOM     19  C   UNL     1      -1.938   3.101  -3.238  0.00  0.00    +0.049 A 
ATOM     20  C   UNL     1      -1.339   3.814  -2.201  0.00  0.00    +0.121 A 
ENDROOT
BRANCH   1  22
ATOM     21  C   UNL     1      -1.869  -0.955   3.404  0.00  0.00    +0.277 C 
ATOM     22  O   UNL     1      -1.252  -0.311   2.287  0.00  0.00    -0.495 OA
ENDBRANCH   1  22
BRANCH  20  23
ATOM     23  O   UNL     1      -1.352   5.174  -2.198  0.00  0.00    -0.506 OA
ATOM     24  H   UNL     1      -0.594   5.575  -2.644  0.00  0.00    +0.292 HD
ENDBRANCH  20  23
BRANCH  17  25
ATOM     25  O   UNL     1      -1.290  -0.339  -2.200  0.00  0.00    -0.506 OA
ATOM     26  H   UNL     1      -0.523  -0.724  -2.646  0.00  0.00    +0.292 HD
ENDBRANCH  17  25
BRANCH  12  27
ATOM     27  O   UNL     1       2.505   5.213  -0.011  0.00  0.00    -0.495 OA
ATOM     28  C   UNL     1       3.770   5.876  -0.021  0.00  0.00    +0.277 C 
ENDBRANCH  12  27
TORSDOF 4
