REMARK  Name = ZINC02918995
REMARK  5 active torsions:
REMARK  status: ('A' for Active; 'I' for Inactive)
REMARK    1  A    between atoms: C_4  and  O_27
REMARK    2  A    between atoms: C_5  and  C_7
REMARK    3  A    between atoms: C_10  and  C_18
REMARK    4  A    between atoms: C_22  and  N_24
REMARK    5  A    between atoms: O_27  and  C_28
REMARK                            x       y       z     vdW  Elec       q    Type
REMARK                         _______ _______ _______ _____ _____    ______ ____
ROOT
ATOM      1  C   UNL     1       1.227  -2.187  -0.022  0.00  0.00    +0.146 C 
ATOM      2  C   UNL     1       0.493  -2.703  -1.265  0.00  0.00    +0.059 C 
ATOM      3  C   UNL     1       0.268  -4.215  -1.144  0.00  0.00    +0.106 C 
ATOM      4  N   UNL     1      -0.594  -4.470   0.026  0.00  0.00    -0.307 N 
ATOM      5  C   UNL     1      -0.296  -3.752   1.177  0.00  0.00    +0.215 A 
ATOM      6  N   UNL     1       0.551  -2.692   1.172  0.00  0.00    -0.226 N 
ATOM      7  N   UNL     1       0.617  -2.229   2.487  0.00  0.00    -0.156 NA
ATOM      8  C   UNL     1      -0.164  -3.001   3.200  0.00  0.00    +0.247 A 
ATOM      9  N   UNL     1      -0.721  -3.924   2.400  0.00  0.00    -0.202 NA
ATOM     10  H   UNL     1      -1.328  -5.103  -0.007  0.00  0.00    +0.149 HD
ENDROOT
BRANCH   1  15
ATOM     11  C   UNL     1      -0.017   1.378   0.010  0.00  0.00    +0.001 A 
ATOM     12  C   UNL     1       1.170   2.088   0.002  0.00  0.00    +0.004 A 
ATOM     13  C   UNL     1       2.377   1.417  -0.013  0.00  0.00    +0.046 A 
ATOM     14  C   UNL     1       2.399   0.030  -0.021  0.00  0.00    +0.132 A 
ATOM     15  C   UNL     1       1.207  -0.680  -0.013  0.00  0.00    +0.019 A 
ATOM     16  C   UNL     1       0.002  -0.004   0.002  0.00  0.00    +0.009 A 
BRANCH  14  17
ATOM     17  O   UNL     1       3.586  -0.632  -0.037  0.00  0.00    -0.434 OA
BRANCH  17  18
ATOM     18  C   UNL     1       4.772   0.164  -0.045  0.00  0.00    +0.541 C 
ATOM     19  F   UNL     1       4.781   0.977  -1.183  0.00  0.00    -0.166 F 
ATOM     20  F   UNL     1       4.804   0.965   1.101  0.00  0.00    -0.166 F 
ENDBRANCH  17  18
ENDBRANCH  14  17
ENDBRANCH   1  15
BRANCH   3  21
ATOM     21  C   UNL     1       1.593  -4.910  -0.962  0.00  0.00    -0.025 A 
ATOM     22  C   UNL     1       2.192  -4.940   0.284  0.00  0.00    +0.005 A 
ATOM     23  C   UNL     1       3.407  -5.578   0.451  0.00  0.00    +0.003 A 
ATOM     24  C   UNL     1       4.023  -6.185  -0.627  0.00  0.00    +0.033 A 
ATOM     25  C   UNL     1       3.424  -6.155  -1.872  0.00  0.00    +0.127 A 
ATOM     26  C   UNL     1       2.207  -5.521  -2.038  0.00  0.00    +0.038 A 
BRANCH  25  27
ATOM     27  N   UNL     1       4.084  -6.805  -3.027  0.00  0.00    +0.056 N 
ATOM     28  O   UNL     1       5.147  -7.361  -2.881  0.00  0.00    -0.126 OA
ATOM     29  O   UNL     1       3.560  -6.778  -4.116  0.00  0.00    -0.126 OA
ENDBRANCH  25  27
ENDBRANCH   3  21
TORSDOF 5
