REMARK  Name = ZINC04239871
REMARK  7 active torsions:
REMARK  status: ('A' for Active; 'I' for Inactive)
REMARK    1  A    between atoms: C_1  and  N_2
REMARK    2  A    between atoms: C_5  and  C_10
REMARK    3  A    between atoms: C_12  and  O_18
REMARK    4  A    between atoms: C_15  and  O_16
REMARK    5  A    between atoms: O_16  and  C_17
REMARK    6  A    between atoms: O_18  and  C_19
REMARK    7  A    between atoms: N_22  and  C_24
REMARK                            x       y       z     vdW  Elec       q    Type
REMARK                         _______ _______ _______ _____ _____    ______ ____
ROOT
ATOM      1  C   UNL     1      -1.279  -0.714   0.011  0.00  0.00    +0.139 C 
ATOM      2  N   UNL     1       0.002  -0.004   0.002  0.00  0.00    -0.260 N 
ATOM      3  C   UNL     1       1.150  -0.744  -0.013  0.00  0.00    +0.042 C 
ATOM      4  C   UNL     1       2.362  -0.153  -0.021  0.00  0.00    +0.058 C 
ATOM      5  C   UNL     1       2.408   1.361  -0.014  0.00  0.00    +0.145 C 
ATOM      6  N   UNL     1       1.115   2.067   0.003  0.00  0.00    -0.288 N 
ATOM      7  C   UNL     1      -0.016   1.335   0.009  0.00  0.00    +0.307 C 
ATOM      8  O   UNL     1      -1.088   1.909   0.018  0.00  0.00    -0.252 OA
ATOM      9  C   UNL     1       3.382  -1.127  -0.036  0.00  0.00    +0.247 C 
ATOM     10  O   UNL     1       4.573  -0.875  -0.046  0.00  0.00    -0.270 OA
ATOM     11  N   UNL     1       2.867  -2.370  -0.038  0.00  0.00    -0.289 N 
ATOM     12  C   UNL     1       1.403  -2.235  -0.023  0.00  0.00    +0.159 C 
ATOM     13  H   UNL     1       1.079   3.037   0.008  0.00  0.00    +0.151 HD
ENDROOT
BRANCH   5  14
ATOM     14  C   UNL     1       3.190   1.796   1.199  0.00  0.00    +0.023 A 
ATOM     15  C   UNL     1       2.529   2.128   2.365  0.00  0.00    +0.055 A 
ATOM     16  C   UNL     1       3.249   2.523   3.483  0.00  0.00    +0.121 A 
ATOM     17  C   UNL     1       4.633   2.596   3.425  0.00  0.00    +0.049 A 
ATOM     18  C   UNL     1       5.294   2.270   2.258  0.00  0.00    +0.049 A 
ATOM     19  C   UNL     1       4.574   1.869   1.142  0.00  0.00    +0.126 A 
BRANCH  19  20
ATOM     20  O   UNL     1       5.225   1.548  -0.008  0.00  0.00    -0.495 OA
ATOM     21  C   UNL     1       6.650   1.645   0.004  0.00  0.00    +0.277 C 
ENDBRANCH  19  20
BRANCH  16  22
ATOM     22  O   UNL     1       2.598   2.844   4.633  0.00  0.00    -0.495 OA
ATOM     23  C   UNL     1       3.402   3.248   5.742  0.00  0.00    +0.277 C 
ENDBRANCH  16  22
ENDBRANCH   5  14
BRANCH  11  24
ATOM     24  C   UNL     1       3.624  -3.624  -0.052  0.00  0.00    +0.077 C 
ATOM     25  C   UNL     1       5.140  -3.536   0.138  0.00  0.00    +0.024 C 
ATOM     26  C   UNL     1       4.559  -3.871  -1.237  0.00  0.00    +0.024 C 
ENDBRANCH  11  24
TORSDOF 4
