REMARK  Name = ZINC02469169
REMARK  7 active torsions:
REMARK  status: ('A' for Active; 'I' for Inactive)
REMARK    1  A    between atoms: C_4  and  C_7
REMARK    2  A    between atoms: C_7  and  N_8
REMARK    3  A    between atoms: C_9  and  C_11
REMARK    4  A    between atoms: C_14  and  C_17
REMARK    5  A    between atoms: C_17  and  N_18
REMARK    6  A    between atoms: N_18  and  S_19
REMARK    7  A    between atoms: S_19  and  C_22
REMARK                            x       y       z     vdW  Elec       q    Type
REMARK                         _______ _______ _______ _____ _____    ______ ____
ROOT
ATOM      1  C   UNL     1       5.764  -1.853   2.984  0.00  0.00    +0.075 C 
ATOM      2  C   UNL     1       5.936  -0.517   3.710  0.00  0.00    +0.013 C 
ATOM      3  C   UNL     1       6.397  -0.773   5.146  0.00  0.00    +0.005 C 
ATOM      4  C   UNL     1       7.732  -1.520   5.129  0.00  0.00    +0.005 C 
ATOM      5  C   UNL     1       7.559  -2.856   4.402  0.00  0.00    +0.005 C 
ATOM      6  C   UNL     1       7.099  -2.600   2.966  0.00  0.00    +0.013 C 
ENDROOT
BRANCH   1   8
ATOM      7  N   UNL     1       4.152  -0.952   1.338  0.00  0.00    -0.311 N 
ATOM      8  C   UNL     1       5.311  -1.601   1.569  0.00  0.00    +0.216 C 
ATOM      9  O   UNL     1       5.989  -1.981   0.638  0.00  0.00    -0.276 OA
ATOM     10  H   UNL     1       3.610  -0.648   2.082  0.00  0.00    +0.149 HD
BRANCH   7  11
ATOM     11  C   UNL     1       3.711  -0.707  -0.038  0.00  0.00    +0.139 C 
BRANCH  11  15
ATOM     12  C   UNL     1      -0.017   1.378   0.010  0.00  0.00    +0.000 A 
ATOM     13  C   UNL     1       1.171   2.086   0.002  0.00  0.00    +0.000 A 
ATOM     14  C   UNL     1       2.377   1.411  -0.013  0.00  0.00    +0.005 A 
ATOM     15  C   UNL     1       2.396   0.029  -0.020  0.00  0.00    -0.030 A 
ATOM     16  C   UNL     1       1.208  -0.679  -0.012  0.00  0.00    +0.005 A 
ATOM     17  C   UNL     1       0.002  -0.004   0.002  0.00  0.00    +0.000 A 
ENDBRANCH  11  15
ENDBRANCH   7  11
ENDBRANCH   1   8
BRANCH   4  18
ATOM     18  C   UNL     1       8.192  -1.776   6.565  0.00  0.00    +0.109 C 
BRANCH  18  19
ATOM     19  N   UNL     1       9.525  -2.384   6.550  0.00  0.00    -0.189 NA
ATOM     20  H   UNL     1       9.878  -2.758   5.727  0.00  0.00    +0.148 HD
BRANCH  19  21
ATOM     21  S   UNL     1      10.429  -2.433   7.937  0.00  0.00    +0.065 S 
ATOM     22  O   UNL     1      11.641  -3.098   7.608  0.00  0.00    -0.153 OA
ATOM     23  O   UNL     1      10.403  -1.122   8.484  0.00  0.00    -0.153 OA
BRANCH  21  24
ATOM     24  C   UNL     1       9.577  -3.472   9.077  0.00  0.00    +0.143 A 
ATOM     25  C   UNL     1       9.692  -4.809   9.263  0.00  0.00    +0.037 A 
ATOM     26  C   UNL     1       8.914  -5.422  10.227  0.00  0.00    +0.025 A 
ATOM     27  C   UNL     1       8.059  -4.665  10.959  0.00  0.00    +0.057 A 
ATOM     28  S   UNL     1       8.345  -3.034  10.293  0.00  0.00    -0.062 S 
ATOM     29 BR   UNL     1       6.875  -5.199  12.334  0.00  0.00    -0.043 Br
ENDBRANCH  21  24
ENDBRANCH  19  21
ENDBRANCH  18  19
ENDBRANCH   4  18
TORSDOF 7
