REMARK  Name = ZINC36945536
REMARK  4 active torsions:
REMARK  status: ('A' for Active; 'I' for Inactive)
REMARK    1  A    between atoms: C_1  and  C_2
REMARK    2  A    between atoms: C_2  and  C_4
REMARK    3  A    between atoms: C_2  and  N_11
REMARK    4  A    between atoms: N_11  and  C_12
REMARK                            x       y       z     vdW  Elec       q    Type
REMARK                         _______ _______ _______ _____ _____    ______ ____
ROOT
ATOM      1  N   UNL     1       0.713  -0.491   1.192  0.00  0.00    +0.394 N 
ATOM      2  H   UNL     1       0.290  -0.099   2.020  0.00  0.00    -0.083 HD
ATOM      3  H   UNL     1       0.655  -1.497   1.230  0.00  0.00    -0.083 HD
ENDROOT
BRANCH   1   4
ATOM      4  C   UNL     1       2.122  -0.083   1.122  0.00  0.00    +0.051 C 
ATOM      5  C   UNL     1       2.859  -0.506   2.372  0.00  0.00    -0.018 A 
ATOM      6  C   UNL     1       3.858  -1.379   1.960  0.00  0.00    +0.036 A 
ATOM      7  C   UNL     1       4.705  -1.934   2.917  0.00  0.00    +0.023 A 
ATOM      8  C   UNL     1       4.547  -1.617   4.250  0.00  0.00    +0.003 A 
ATOM      9  C   UNL     1       3.550  -0.746   4.648  0.00  0.00    +0.015 A 
ATOM     10  C   UNL     1       2.703  -0.190   3.703  0.00  0.00    +0.022 A 
ATOM     11 BR   UNL     1       1.336   1.000   4.241  0.00  0.00    -0.050 Br
ATOM     12  N   UNL     1       3.816  -1.541   0.575  0.00  0.00    -0.286 N 
ATOM     13  C   UNL     1       2.832  -0.818   0.005  0.00  0.00    +0.208 C 
ATOM     14  O   UNL     1       2.564  -0.765  -1.176  0.00  0.00    -0.277 OA
ATOM     15  H   UNL     1       4.425  -2.109   0.078  0.00  0.00    +0.155 HD
ENDBRANCH   1   4
BRANCH   1  17
ATOM     16  C   UNL     1      -0.019   1.526   0.010  0.00  0.00    -0.009 C 
ATOM     17  C   UNL     1       0.002  -0.004   0.002  0.00  0.00    -0.041 C 
BRANCH  17  18
ATOM     18  C   UNL     1      -1.412  -0.526   0.013  0.00  0.00    -0.048 A 
ATOM     19  C   UNL     1      -2.015  -0.864   1.210  0.00  0.00    +0.003 A 
ATOM     20  C   UNL     1      -3.312  -1.342   1.220  0.00  0.00    +0.000 A 
ATOM     21  C   UNL     1      -4.006  -1.482   0.033  0.00  0.00    +0.001 A 
ATOM     22  C   UNL     1      -3.404  -1.144  -1.165  0.00  0.00    +0.015 A 
ATOM     23  C   UNL     1      -2.108  -0.661  -1.175  0.00  0.00    +0.019 A 
ATOM     24 BR   UNL     1      -1.286  -0.192  -2.812  0.00  0.00    -0.050 Br
ENDBRANCH  17  18
ENDBRANCH   1  17
TORSDOF 3
