REMARK  Name = ZINC41025755
REMARK  4 active torsions:
REMARK  status: ('A' for Active; 'I' for Inactive)
REMARK    1  A    between atoms: C_1  and  C_2
REMARK    2  A    between atoms: C_9  and  N_22
REMARK    3  A    between atoms: C_10  and  C_11
REMARK    4  A    between atoms: N_13  and  C_14
REMARK                            x       y       z     vdW  Elec       q    Type
REMARK                         _______ _______ _______ _____ _____    ______ ____
ROOT
ATOM      1  C   UNL     1      -0.019   1.526   0.010  0.00  0.00    +0.008 C 
ATOM      2  C   UNL     1       0.002  -0.004   0.002  0.00  0.00    -0.009 C 
ATOM      3  C   UNL     1       0.724  -0.500  -1.254  0.00  0.00    +0.008 C 
ATOM      4  C   UNL     1       0.537  -2.012  -1.399  0.00  0.00    +0.037 C 
ATOM      5  C   UNL     1       0.935  -2.680  -0.091  0.00  0.00    -0.023 A 
ATOM      6  C   UNL     1       1.020  -1.977   1.059  0.00  0.00    -0.004 A 
ATOM      7  S   UNL     1       1.508  -3.164   2.276  0.00  0.00    -0.077 S 
ATOM      8  C   UNL     1       1.600  -4.539   1.316  0.00  0.00    +0.084 A 
ATOM      9  C   UNL     1       1.255  -4.091   0.050  0.00  0.00    +0.069 A 
ATOM     10  C   UNL     1       0.750  -0.515   1.242  0.00  0.00    +0.046 C 
ENDROOT
BRANCH   8  11
ATOM     11  N   UNL     1       1.942  -5.823   1.700  0.00  0.00    -0.292 N 
ATOM     12  C   UNL     1       2.260  -6.090   3.022  0.00  0.00    +0.154 A 
ATOM     13  C   UNL     1       2.615  -7.387   3.429  0.00  0.00    +0.148 A 
ATOM     14  C   UNL     1       2.928  -7.595   4.783  0.00  0.00    +0.163 A 
ATOM     15  N   UNL     1       3.233  -8.928   4.900  0.00  0.00    -0.329 N 
ATOM     16  H   UNL     1       3.492  -9.388   5.714  0.00  0.00    +0.168 HD
ATOM     17  C   UNL     1       3.106  -9.486   3.663  0.00  0.00    +0.198 A 
ATOM     18  N   UNL     1       2.743  -8.581   2.802  0.00  0.00    -0.231 NA
ATOM     19  N   UNL     1       2.878  -6.567   5.623  0.00  0.00    -0.216 NA
ATOM     20  C   UNL     1       2.540  -5.368   5.197  0.00  0.00    +0.225 A 
ATOM     21  N   UNL     1       2.242  -5.123   3.934  0.00  0.00    -0.218 NA
ATOM     22  H   UNL     1       1.958  -6.538   1.044  0.00  0.00    +0.154 HD
ENDBRANCH   8  11
BRANCH   9  23
ATOM     23  C   UNL     1       1.213  -5.001  -1.097  0.00  0.00    +0.247 C 
ATOM     24  O   UNL     1       2.209  -5.170  -1.776  0.00  0.00    -0.270 OA
ATOM     25  N   UNL     1       0.072  -5.652  -1.400  0.00  0.00    -0.307 N 
ATOM     26  H   UNL     1      -0.722  -5.517  -0.859  0.00  0.00    +0.149 HD
BRANCH  25  27
ATOM     27  C   UNL     1       0.030  -6.562  -2.547  0.00  0.00    +0.096 C 
ATOM     28  C   UNL     1      -0.293  -5.772  -3.826  0.00  0.00    +0.046 C 
ATOM     29  C   UNL     1      -0.654  -6.747  -4.972  0.00  0.00    +0.168 C 
ATOM     30  S   UNL     1      -1.341  -8.195  -4.069  0.00  0.00    -0.029 S 
ATOM     31  O   UNL     1      -0.512  -9.324  -4.308  0.00  0.00    -0.174 OA
ATOM     32  O   UNL     1      -2.735  -8.283  -4.330  0.00  0.00    -0.174 OA
ATOM     33  C   UNL     1      -1.089  -7.621  -2.337  0.00  0.00    +0.188 C 
ENDBRANCH  25  27
ENDBRANCH   9  23
TORSDOF 3
