REMARK  Name = ZINC19218859
REMARK  3 active torsions:
REMARK  status: ('A' for Active; 'I' for Inactive)
REMARK    1  A    between atoms: C_1  and  C_2
REMARK    2  A    between atoms: N_17  and  C_20
REMARK    3  A    between atoms: C_20  and  C_21
REMARK                            x       y       z     vdW  Elec       q    Type
REMARK                         _______ _______ _______ _____ _____    ______ ____
ROOT
ATOM      1  C   UNL     1      -0.013   1.086   0.008  0.00  0.00    +0.044 C 
ATOM      2  C   UNL     1      -0.718   1.572   1.248  0.00  0.00    -0.050 A 
ATOM      3  C   UNL     1       0.006   1.805   2.406  0.00  0.00    +0.007 A 
ATOM      4  C   UNL     1      -0.624   2.251   3.553  0.00  0.00    +0.047 A 
ATOM      5  C   UNL     1      -1.991   2.468   3.547  0.00  0.00    +0.135 A 
ATOM      6  C   UNL     1      -2.725   2.232   2.373  0.00  0.00    +0.079 A 
ATOM      7  C   UNL     1      -2.081   1.788   1.222  0.00  0.00    +0.020 A 
ATOM      8  C   UNL     1      -4.181   2.474   2.410  0.00  0.00    +0.250 C 
ATOM      9  O   UNL     1      -4.911   2.042   1.539  0.00  0.00    -0.270 OA
ATOM     10  N   UNL     1      -4.676   3.191   3.442  0.00  0.00    -0.274 N 
ATOM     11  C   UNL     1      -3.770   3.776   4.444  0.00  0.00    +0.180 C 
ATOM     12  O   UNL     1      -2.649   2.903   4.647  0.00  0.00    -0.468 OA
ATOM     13  C   UNL     1      -3.258   5.109   3.915  0.00  0.00    +0.078 C 
ATOM     14  C   UNL     1      -4.416   6.028   3.526  0.00  0.00    +0.101 C 
ATOM     15  C   UNL     1      -4.881   6.770   4.762  0.00  0.00    +0.216 C 
ATOM     16  O   UNL     1      -4.652   7.955   4.880  0.00  0.00    -0.276 OA
ATOM     17  N   UNL     1      -5.542   6.120   5.720  0.00  0.00    -0.292 N 
ATOM     18  C   UNL     1      -5.827   4.683   5.577  0.00  0.00    +0.114 C 
ATOM     19  C   UNL     1      -4.526   3.903   5.759  0.00  0.00    +0.088 C 
ATOM     20  H   UNL     1      -5.763   3.337   3.532  0.00  0.00    +0.153 HD
ENDROOT
BRANCH  17  21
ATOM     21  C   UNL     1      -5.988   6.838   6.916  0.00  0.00    +0.203 C 
BRANCH  21  22
ATOM     22  C   UNL     1      -7.370   7.391   6.685  0.00  0.00    +0.236 C 
ATOM     23  O   UNL     1      -7.929   7.204   5.625  0.00  0.00    -0.274 OA
ATOM     24  N   UNL     1      -7.986   8.094   7.656  0.00  0.00    -0.263 N 
ATOM     25  C   UNL     1      -9.261   8.604   7.443  0.00  0.00    +0.164 A 
ATOM     26  N   UNL     1     -10.021   8.513   6.369  0.00  0.00    -0.233 NA
ATOM     27  C   UNL     1     -11.222   9.056   6.334  0.00  0.00    +0.120 A 
ATOM     28  C   UNL     1     -11.660   9.727   7.427  0.00  0.00    +0.068 A 
ATOM     29  S   UNL     1     -10.260   9.532   8.519  0.00  0.00    -0.061 S 
ATOM     30  H   UNL     1      -7.479   8.264   8.618  0.00  0.00    +0.157 HD
ENDBRANCH  21  22
ENDBRANCH  17  21
TORSDOF 2
