REMARK  Name = ZINC25161557
REMARK  9 active torsions:
REMARK  status: ('A' for Active; 'I' for Inactive)
REMARK    1  A    between atoms: C_1  and  C_2
REMARK    2  A    between atoms: C_5  and  C_8
REMARK    3  A    between atoms: C_8  and  C_10
REMARK    4  A    between atoms: C_8  and  N_13
REMARK    5  A    between atoms: C_14  and  C_16
REMARK    6  A    between atoms: N_21  and  S_23
REMARK    7  A    between atoms: S_23  and  C_26
REMARK    8  A    between atoms: C_27  and  C_32
REMARK    9  A    between atoms: C_30  and  C_31
REMARK                            x       y       z     vdW  Elec       q    Type
REMARK                         _______ _______ _______ _____ _____    ______ ____
ROOT
ATOM      1  C   UNL     1       1.416   5.110   0.916  0.00  0.00    +0.091 C 
ATOM      2  C   UNL     1       1.150   6.525   0.399  0.00  0.00    +0.015 C 
ATOM      3  C   UNL     1       1.608   7.547   1.442  0.00  0.00    +0.018 C 
ATOM      4  C   UNL     1       3.114   7.392   1.677  0.00  0.00    +0.109 C 
ATOM      5  N   UNL     1       3.396   5.995   2.035  0.00  0.00    -0.176 NA
ATOM      6  C   UNL     1       2.920   4.928   1.145  0.00  0.00    +0.122 C 
ENDROOT
BRANCH   1   8
ATOM      7  N   UNL     1      -0.362   4.079  -0.459  0.00  0.00    -0.308 N 
ATOM      8  C   UNL     1       0.936   4.105  -0.098  0.00  0.00    +0.218 C 
ATOM      9  O   UNL     1       1.718   3.319  -0.590  0.00  0.00    -0.275 OA
ATOM     10  H   UNL     1      -1.072   4.792  -0.013  0.00  0.00    +0.149 HD
BRANCH   7  11
ATOM     11  C   UNL     1      -0.829   3.102  -1.446  0.00  0.00    +0.106 C 
BRANCH  11  16
ATOM     12  C   UNL     1      -5.587   5.106  -4.042  0.00  0.00    +0.044 C 
ATOM     13  C   UNL     1      -4.346   4.584  -3.365  0.00  0.00    -0.050 A 
ATOM     14  C   UNL     1      -3.385   3.918  -4.102  0.00  0.00    +0.004 A 
ATOM     15  C   UNL     1      -2.247   3.439  -3.481  0.00  0.00    +0.006 A 
ATOM     16  C   UNL     1      -2.070   3.625  -2.123  0.00  0.00    -0.027 A 
ATOM     17  C   UNL     1      -3.034   4.285  -1.384  0.00  0.00    +0.006 A 
ATOM     18  C   UNL     1      -4.169   4.770  -2.006  0.00  0.00    +0.004 A 
ENDBRANCH  11  16
BRANCH  11  19
ATOM     19  C   UNL     1      -1.150   1.781  -0.743  0.00  0.00    +0.014 C 
ATOM     20  C   UNL     1      -0.013   1.086   0.008  0.00  0.00    +0.006 C 
ATOM     21  C   UNL     1      -1.136   1.773   0.788  0.00  0.00    +0.006 C 
ENDBRANCH  11  19
ENDBRANCH   7  11
ENDBRANCH   1   8
BRANCH   5  22
ATOM     22  S   UNL     1       4.235   5.631   3.415  0.00  0.00    +0.066 S 
ATOM     23  O   UNL     1       4.063   6.732   4.297  0.00  0.00    -0.153 OA
ATOM     24  O   UNL     1       3.872   4.305   3.773  0.00  0.00    -0.153 OA
BRANCH  22  25
ATOM     25  C   UNL     1       5.944   5.589   2.990  0.00  0.00    +0.170 A 
ATOM     26  C   UNL     1       6.705   4.481   2.552  0.00  0.00    +0.107 A 
ATOM     27  N   UNL     1       7.915   4.920   2.356  0.00  0.00    -0.081 NA
ATOM     28  O   UNL     1       8.007   6.098   2.610  0.00  0.00    -0.358 OA
ATOM     29  C   UNL     1       6.835   6.609   3.014  0.00  0.00    +0.161 A 
ATOM     30  C   UNL     1       6.563   8.036   3.414  0.00  0.00    +0.091 C 
ATOM     31  C   UNL     1       6.212   3.071   2.348  0.00  0.00    +0.071 C 
ENDBRANCH  22  25
ENDBRANCH   5  22
TORSDOF 6
