REMARK  Name = ZINC14467349
REMARK  5 active torsions:
REMARK  status: ('A' for Active; 'I' for Inactive)
REMARK    1  A    between atoms: C_1  and  N_2
REMARK    2  A    between atoms: N_5  and  S_8
REMARK    3  A    between atoms: S_8  and  C_11
REMARK    4  A    between atoms: C_24  and  C_27
REMARK    5  A    between atoms: C_32  and  O_33
REMARK                            x       y       z     vdW  Elec       q    Type
REMARK                         _______ _______ _______ _____ _____    ______ ____
ROOT
ATOM      1  C   UNL     1       3.824  -3.253  -0.464  0.00  0.00    +0.106 A 
ATOM      2  C   UNL     1       4.489  -3.008  -1.652  0.00  0.00    +0.030 A 
ATOM      3  C   UNL     1       5.738  -2.421  -1.629  0.00  0.00    +0.025 A 
ATOM      4  C   UNL     1       6.324  -2.074  -0.417  0.00  0.00    +0.031 A 
ATOM      5  C   UNL     1       5.654  -2.306   0.774  0.00  0.00    -0.018 A 
ATOM      6  C   UNL     1       4.400  -2.900   0.739  0.00  0.00    +0.034 A 
ATOM      7  C   UNL     1       6.233  -1.911   2.090  0.00  0.00    +0.049 C 
ATOM      8  C   UNL     1       6.775  -3.095   2.849  0.00  0.00    -0.023 C 
ATOM      9  C   UNL     1       7.854  -2.754   3.509  0.00  0.00    -0.030 C 
ATOM     10  C   UNL     1       8.190  -1.297   3.280  0.00  0.00    +0.033 C 
ATOM     11  C   UNL     1       7.402  -0.933   2.000  0.00  0.00    +0.029 C 
ATOM     12  C   UNL     1       8.304  -1.168   0.806  0.00  0.00    +0.109 C 
ATOM     13  N   UNL     1       7.590  -1.500  -0.409  0.00  0.00    -0.336 N 
ATOM     14  H   UNL     1       8.026  -1.335  -1.260  0.00  0.00    +0.147 HD
ENDROOT
BRANCH  12  15
ATOM     15  C   UNL     1       9.091   0.090   0.545  0.00  0.00    +0.017 A 
ATOM     16  C   UNL     1      10.431   0.149   0.876  0.00  0.00    +0.029 A 
ATOM     17  C   UNL     1      11.155   1.303   0.637  0.00  0.00    +0.043 A 
ATOM     18  C   UNL     1      10.538   2.403   0.066  0.00  0.00    +0.043 A 
ATOM     19  C   UNL     1       9.197   2.348  -0.267  0.00  0.00    +0.084 A 
ATOM     20  C   UNL     1       8.472   1.188  -0.033  0.00  0.00    +0.140 A 
ATOM     21 CL   UNL     1       8.423   3.727  -0.983  0.00  0.00    -0.080 Cl
ATOM     22 CL   UNL     1      12.838   1.374   1.055  0.00  0.00    -0.083 Cl
BRANCH  20  23
ATOM     23  O   UNL     1       7.155   1.130  -0.365  0.00  0.00    -0.505 OA
ATOM     24  H   UNL     1       6.559   1.414   0.342  0.00  0.00    +0.292 HD
ENDBRANCH  20  23
ENDBRANCH  12  15
BRANCH   1  25
ATOM     25  S   UNL     1       2.233  -4.011  -0.488  0.00  0.00    +0.061 S 
ATOM     26  O   UNL     1       2.056  -4.622   0.782  0.00  0.00    -0.153 OA
ATOM     27  O   UNL     1       2.150  -4.742  -1.704  0.00  0.00    -0.153 OA
BRANCH  25  32
ATOM     28  C   UNL     1       0.040   1.256  -0.823  0.00  0.00    +0.105 C 
ATOM     29  N   UNL     1       0.083  -0.211  -0.751  0.00  0.00    -0.303 NA
ATOM     30  C   UNL     1       0.784  -0.775  -1.913  0.00  0.00    +0.101 C 
ATOM     31  C   UNL     1       0.650  -2.301  -1.894  0.00  0.00    +0.125 C 
ATOM     32  N   UNL     1       1.113  -2.795  -0.588  0.00  0.00    -0.174 NA
ATOM     33  C   UNL     1       0.555  -2.180   0.626  0.00  0.00    +0.125 C 
ATOM     34  C   UNL     1       0.693  -0.659   0.508  0.00  0.00    +0.101 C 
ENDBRANCH  25  32
ENDBRANCH   1  25
TORSDOF 4
