REMARK  Name = ZINC21227625
REMARK  11 active torsions:
REMARK  status: ('A' for Active; 'I' for Inactive)
REMARK    1  A    between atoms: C_1  and  O_2
REMARK    2  A    between atoms: O_2  and  C_3
REMARK    3  A    between atoms: C_5  and  C_10
REMARK    4  A    between atoms: C_8  and  O_9
REMARK    5  A    between atoms: C_21  and  C_24
REMARK    6  A    between atoms: C_26  and  O_34
REMARK    7  A    between atoms: C_27  and  O_32
REMARK    8  A    between atoms: C_28  and  O_30
REMARK    9  A    between atoms: O_30  and  C_31
REMARK   10  A    between atoms: O_32  and  C_33
REMARK   11  A    between atoms: O_34  and  C_35
REMARK                            x       y       z     vdW  Elec       q    Type
REMARK                         _______ _______ _______ _____ _____    ______ ____
ROOT
ATOM      1  C   UNL     1      -8.675  -4.641   0.919  0.00  0.00    +0.063 C 
ATOM      2  C   UNL     1      -8.533  -5.935   1.722  0.00  0.00    +0.109 C 
ATOM      3  C   UNL     1      -7.330  -6.695   1.227  0.00  0.00    +0.218 C 
ATOM      4  O   UNL     1      -7.339  -7.907   1.226  0.00  0.00    -0.275 OA
ATOM      5  N   UNL     1      -6.247  -6.032   0.787  0.00  0.00    -0.289 N 
ATOM      6  C   UNL     1      -6.200  -4.661   0.801  0.00  0.00    +0.018 C 
ATOM      7  C   UNL     1      -7.339  -3.938   0.861  0.00  0.00    +0.020 C 
ATOM      8  C   UNL     1      -7.314  -2.534   0.868  0.00  0.00    +0.162 C 
ATOM      9  O   UNL     1      -8.359  -1.918   0.937  0.00  0.00    -0.292 OA
ATOM     10  C   UNL     1      -6.013  -1.780   0.791  0.00  0.00    +0.088 C 
ATOM     11  C   UNL     1      -4.989  -2.632   0.035  0.00  0.00    +0.032 C 
ATOM     12  C   UNL     1      -4.855  -3.981   0.748  0.00  0.00    +0.059 C 
ATOM     13  H   UNL     1      -5.378  -6.588   0.407  0.00  0.00    +0.155 HD
ENDROOT
BRANCH   1  16
ATOM     14  C   UNL     1     -10.747  -4.748  -2.238  0.00  0.00    +0.162 A 
ATOM     15  C   UNL     1     -10.327  -4.455  -0.951  0.00  0.00    +0.053 A 
ATOM     16  C   UNL     1      -9.132  -4.966  -0.480  0.00  0.00    -0.036 A 
ATOM     17  C   UNL     1      -8.359  -5.779  -1.287  0.00  0.00    +0.008 A 
ATOM     18  C   UNL     1      -8.775  -6.080  -2.571  0.00  0.00    +0.049 A 
ATOM     19  C   UNL     1      -9.969  -5.567  -3.051  0.00  0.00    +0.158 A 
BRANCH  14  21
ATOM     20  C   UNL     1     -12.667  -3.410  -1.815  0.00  0.00    +0.277 C 
ATOM     21  O   UNL     1     -11.920  -4.242  -2.704  0.00  0.00    -0.491 OA
ENDBRANCH  14  21
BRANCH  19  22
ATOM     22  O   UNL     1     -10.379  -5.862  -4.313  0.00  0.00    -0.503 OA
ATOM     23  H   UNL     1      -9.763  -6.509  -4.955  0.00  0.00    +0.292 HD
ENDBRANCH  19  22
ENDBRANCH   1  16
BRANCH  11  24
ATOM     24  C   UNL     1      -3.655  -1.931   0.027  0.00  0.00    -0.036 A 
ATOM     25  C   UNL     1      -3.057  -1.603  -1.176  0.00  0.00    +0.053 A 
ATOM     26  C   UNL     1      -1.830  -0.957  -1.188  0.00  0.00    +0.165 A 
ATOM     27  C   UNL     1      -1.202  -0.638   0.010  0.00  0.00    +0.204 A 
ATOM     28  C   UNL     1      -1.804  -0.975   1.217  0.00  0.00    +0.165 A 
ATOM     29  C   UNL     1      -3.034  -1.616   1.221  0.00  0.00    +0.053 A 
BRANCH  28  30
ATOM     30  O   UNL     1      -1.191  -0.670   2.392  0.00  0.00    -0.491 OA
ATOM     31  C   UNL     1      -1.868  -1.046   3.593  0.00  0.00    +0.277 C 
ENDBRANCH  28  30
BRANCH  27  32
ATOM     32  O   UNL     1       0.002  -0.004   0.002  0.00  0.00    -0.488 OA
ATOM     33  C   UNL     1      -0.017   1.425   0.010  0.00  0.00    +0.277 C 
ENDBRANCH  27  32
BRANCH  26  34
ATOM     34  O   UNL     1      -1.242  -0.635  -2.372  0.00  0.00    -0.491 OA
ATOM     35  C   UNL     1      -1.944  -0.993  -3.563  0.00  0.00    +0.277 C 
ENDBRANCH  26  34
ENDBRANCH  11  24
TORSDOF 7
