REMARK  Name = ZINC39629876
REMARK  6 active torsions:
REMARK  status: ('A' for Active; 'I' for Inactive)
REMARK    1  A    between atoms: C_6  and  C_7
REMARK    2  A    between atoms: C_11  and  C_20
REMARK    3  A    between atoms: N_22  and  C_23
REMARK    4  A    between atoms: C_23  and  C_24
REMARK    5  A    between atoms: C_24  and  C_25
REMARK    6  A    between atoms: C_25  and  N_26
REMARK                            x       y       z     vdW  Elec       q    Type
REMARK                         _______ _______ _______ _____ _____    ______ ____
ROOT
ATOM      1  C   UNL     1      -1.550  -0.821   0.109  0.00  0.00    +0.247 C 
ATOM      2  O   UNL     1      -2.651  -0.326   0.257  0.00  0.00    -0.270 OA
ATOM      3  N   UNL     1      -1.425  -2.155  -0.036  0.00  0.00    -0.296 N 
ATOM      4  C   UNL     1      -0.175  -2.948  -0.096  0.00  0.00    +0.121 C 
ATOM      5  C   UNL     1      -0.487  -4.230   0.708  0.00  0.00    +0.100 C 
ATOM      6  C   UNL     1      -2.018  -4.364   0.653  0.00  0.00    -0.004 C 
ATOM      7  C   UNL     1      -2.506  -3.160  -0.166  0.00  0.00    +0.115 C 
ATOM      8  C   UNL     1      -2.410  -5.668  -0.037  0.00  0.00    -0.010 C 
ATOM      9  C   UNL     1      -3.935  -5.806  -0.028  0.00  0.00    -0.082 C 
ATOM     10  N   UNL     1      -4.421  -5.797   1.358  0.00  0.00    +0.379 N 
ATOM     11  C   UNL     1      -4.121  -4.504   1.985  0.00  0.00    -0.082 C 
ATOM     12  C   UNL     1      -2.604  -4.311   2.061  0.00  0.00    -0.010 C 
ATOM     13  H   UNL     1      -5.418  -5.950   1.364  0.00  0.00    -0.086 HD
ATOM     14  H   UNL     1      -3.967  -6.534   1.876  0.00  0.00    -0.086 HD
ENDROOT
BRANCH   1  20
ATOM     15  C   UNL     1       0.829  -0.413  -0.507  0.00  0.00    +0.014 A 
ATOM     16  C   UNL     1       1.946   0.395  -0.524  0.00  0.00    +0.022 A 
ATOM     17  C   UNL     1       1.901   1.655   0.047  0.00  0.00    +0.059 A 
ATOM     18  C   UNL     1       0.735   2.113   0.639  0.00  0.00    +0.060 A 
ATOM     19  C   UNL     1      -0.390   1.313   0.662  0.00  0.00    +0.034 A 
ATOM     20  C   UNL     1      -0.350   0.041   0.087  0.00  0.00    +0.038 A 
ATOM     21 CL   UNL     1       0.688   3.694   1.354  0.00  0.00    -0.082 Cl
ATOM     22 CL   UNL     1       3.312   2.667   0.021  0.00  0.00    -0.082 Cl
ENDBRANCH   1  20
BRANCH   5  23
ATOM     23  C   UNL     1      -0.022  -4.081   2.134  0.00  0.00    +0.218 C 
ATOM     24  O   UNL     1      -0.004  -2.986   2.655  0.00  0.00    -0.275 OA
ATOM     25  N   UNL     1       0.374  -5.165   2.830  0.00  0.00    -0.315 N 
ATOM     26  H   UNL     1       0.360  -6.041   2.413  0.00  0.00    +0.149 HD
BRANCH  25  27
ATOM     27  C   UNL     1       0.827  -5.021   4.216  0.00  0.00    +0.106 C 
BRANCH  27  28
ATOM     28  C   UNL     1       1.217  -6.392   4.770  0.00  0.00    +0.040 C 
BRANCH  28  29
ATOM     29  C   UNL     1       1.689  -6.241   6.218  0.00  0.00    +0.124 C 
BRANCH  29  30
ATOM     30  N   UNL     1       2.063  -7.554   6.749  0.00  0.00    -0.338 N 
ATOM     31  C   UNL     1       1.236  -8.436   7.391  0.00  0.00    +0.104 A 
ATOM     32  C   UNL     1       1.983  -9.511   7.708  0.00  0.00    +0.101 A 
ATOM     33  N   UNL     1       3.232  -9.291   7.272  0.00  0.00    -0.352 N 
ATOM     34  C   UNL     1       3.286  -8.123   6.692  0.00  0.00    +0.173 A 
ATOM     35  H   UNL     1       3.977  -9.905   7.368  0.00  0.00    +0.166 HD
ENDBRANCH  29  30
ENDBRANCH  28  29
ENDBRANCH  27  28
ENDBRANCH  25  27
ENDBRANCH   5  23
TORSDOF 6
