REMARK  Name = ZINC63834920
REMARK  3 active torsions:
REMARK  status: ('A' for Active; 'I' for Inactive)
REMARK    1  A    between atoms: C_4  and  C_7
REMARK    2  A    between atoms: C_9  and  C_20
REMARK    3  A    between atoms: N_11  and  C_13
REMARK                            x       y       z     vdW  Elec       q    Type
REMARK                         _______ _______ _______ _____ _____    ______ ____
ROOT
ATOM      1  C   UNL     1       3.697  -0.687  -0.037  0.00  0.00    +0.118 C 
ATOM      2  N   UNL     1       3.872  -1.847  -0.588  0.00  0.00    -0.347 N 
ATOM      3  C   UNL     1       5.275  -2.243  -0.408  0.00  0.00    +0.235 C 
ATOM      4  N   UNL     1       5.887  -1.127   0.334  0.00  0.00    -0.221 N 
ATOM      5  N   UNL     1       4.850  -0.200   0.522  0.00  0.00    -0.247 N 
ATOM      6  H   UNL     1       4.935   0.651   0.980  0.00  0.00    +0.172 HD
ATOM      7  H   UNL     1       3.190  -2.368  -1.042  0.00  0.00    +0.163 HD
ENDROOT
BRANCH   3   8
ATOM      8  C   UNL     1       5.947  -2.417  -1.746  0.00  0.00    +0.068 A 
ATOM      9  N   UNL     1       6.003  -1.373  -2.628  0.00  0.00    -0.308 N 
ATOM     10  C   UNL     1       6.601  -1.518  -3.825  0.00  0.00    +0.327 A 
ATOM     11  O   UNL     1       6.640  -0.577  -4.593  0.00  0.00    -0.247 OA
ATOM     12  N   UNL     1       7.157  -2.691  -4.182  0.00  0.00    -0.275 N 
ATOM     13  C   UNL     1       7.122  -3.744  -3.341  0.00  0.00    +0.254 A 
ATOM     14  O   UNL     1       7.625  -4.805  -3.664  0.00  0.00    -0.268 OA
ATOM     15  C   UNL     1       6.500  -3.603  -2.077  0.00  0.00    +0.095 A 
ATOM     16  H   UNL     1       7.584  -2.778  -5.049  0.00  0.00    +0.173 HD
ATOM     17  H   UNL     1       5.609  -0.520  -2.389  0.00  0.00    +0.170 HD
ENDBRANCH   3   8
BRANCH   4  18
ATOM     18  C   UNL     1       7.216  -1.014   0.756  0.00  0.00    +0.085 A 
ATOM     19  C   UNL     1       8.250  -1.129  -0.163  0.00  0.00    +0.028 A 
ATOM     20  C   UNL     1       9.561  -1.016   0.257  0.00  0.00    +0.002 A 
ATOM     21  C   UNL     1       9.846  -0.790   1.591  0.00  0.00    +0.003 A 
ATOM     22  C   UNL     1       8.819  -0.676   2.510  0.00  0.00    +0.040 A 
ATOM     23  C   UNL     1       7.504  -0.781   2.096  0.00  0.00    +0.146 A 
ATOM     24  F   UNL     1       6.501  -0.663   2.994  0.00  0.00    -0.203 F 
ENDBRANCH   4  18
BRANCH   1  28
ATOM     25  C   UNL     1      -0.017   1.379   0.010  0.00  0.00    +0.000 A 
ATOM     26  C   UNL     1       1.169   2.093   0.002  0.00  0.00    +0.001 A 
ATOM     27  C   UNL     1       2.377   1.427  -0.013  0.00  0.00    +0.011 A 
ATOM     28  C   UNL     1       2.403   0.033  -0.021  0.00  0.00    +0.014 A 
ATOM     29  C   UNL     1       1.205  -0.680  -0.013  0.00  0.00    +0.011 A 
ATOM     30  C   UNL     1       0.002  -0.004   0.002  0.00  0.00    +0.001 A 
ENDBRANCH   1  28
TORSDOF 3
