REMARK  Name = ZINC13549647
REMARK  6 active torsions:
REMARK  status: ('A' for Active; 'I' for Inactive)
REMARK    1  A    between atoms: C_1  and  C_2
REMARK    2  A    between atoms: C_8  and  C_25
REMARK    3  A    between atoms: C_11  and  C_12
REMARK    4  A    between atoms: C_11  and  O_20
REMARK    5  A    between atoms: C_13  and  C_19
REMARK    6  A    between atoms: C_17  and  C_18
REMARK                            x       y       z     vdW  Elec       q    Type
REMARK                         _______ _______ _______ _____ _____    ______ ____
ROOT
ATOM      1  C   UNL     1       4.813   6.335  -0.130  0.00  0.00    +0.089 C 
ATOM      2  C   UNL     1       3.416   5.774  -0.053  0.00  0.00    +0.136 A 
ATOM      3  C   UNL     1       3.067   4.469  -0.097  0.00  0.00    +0.091 A 
ATOM      4  C   UNL     1       1.650   4.490   0.009  0.00  0.00    +0.172 A 
ATOM      5  N   UNL     1       1.311   5.749   0.110  0.00  0.00    -0.063 NA
ATOM      6  O   UNL     1       2.279   6.472   0.077  0.00  0.00    -0.358 OA
ATOM      7  N   UNL     1       0.795   3.390   0.012  0.00  0.00    -0.235 N 
ATOM      8  C   UNL     1      -0.670   3.449   0.026  0.00  0.00    +0.151 C 
ATOM      9  C   UNL     1      -1.160   2.019   0.018  0.00  0.00    +0.072 C 
ATOM     10  C   UNL     1      -2.477   1.592   0.021  0.00  0.00    +0.135 C 
ATOM     11  C   UNL     1      -0.014   1.214   0.009  0.00  0.00    +0.249 C 
ATOM     12  O   UNL     1       0.002  -0.004   0.002  0.00  0.00    -0.282 OA
ATOM     13  C   UNL     1       1.178   2.102   0.002  0.00  0.00    +0.293 C 
ATOM     14  O   UNL     1       2.330   1.719  -0.011  0.00  0.00    -0.266 OA
ENDROOT
BRANCH  10  15
ATOM     15  C   UNL     1      -2.782   0.156   0.016  0.00  0.00    +0.040 A 
ATOM     16  C   UNL     1      -3.353  -0.631   1.116  0.00  0.00    -0.022 A 
ATOM     17  C   UNL     1      -3.458  -1.893   0.665  0.00  0.00    +0.086 A 
ATOM     18  N   UNL     1      -3.000  -1.949  -0.620  0.00  0.00    -0.364 N 
ATOM     19  H   UNL     1      -2.973  -2.752  -1.163  0.00  0.00    +0.165 HD
ATOM     20  C   UNL     1      -2.596  -0.731  -1.028  0.00  0.00    +0.024 A 
ATOM     21  C   UNL     1      -2.035  -0.394  -2.385  0.00  0.00    +0.064 C 
ATOM     22  C   UNL     1      -3.744  -0.124   2.480  0.00  0.00    +0.046 C 
ENDBRANCH  10  15
BRANCH   8  23
ATOM     23  C   UNL     1      -1.146   4.155   1.269  0.00  0.00    -0.021 A 
ATOM     24  C   UNL     1      -2.230   5.012   1.205  0.00  0.00    +0.006 A 
ATOM     25  C   UNL     1      -2.667   5.660   2.345  0.00  0.00    +0.001 A 
ATOM     26  C   UNL     1      -2.021   5.452   3.549  0.00  0.00    +0.015 A 
ATOM     27  C   UNL     1      -0.938   4.595   3.614  0.00  0.00    +0.018 A 
ATOM     28  C   UNL     1      -0.503   3.943   2.474  0.00  0.00    +0.021 A 
ATOM     29 BR   UNL     1      -0.054   4.311   5.261  0.00  0.00    -0.050 Br
ENDBRANCH   8  23
BRANCH  10  30
ATOM     30  O   UNL     1      -3.480   2.495   0.030  0.00  0.00    -0.506 OA
ATOM     31  H   UNL     1      -4.358   2.018   0.031  0.00  0.00    +0.292 HD
ENDBRANCH  10  30
TORSDOF 3
