REMARK  Name = ZINC36593119
REMARK  9 active torsions:
REMARK  status: ('A' for Active; 'I' for Inactive)
REMARK    1  A    between atoms: C_1  and  O_2
REMARK    2  A    between atoms: O_2  and  C_3
REMARK    3  A    between atoms: C_3  and  C_5
REMARK    4  A    between atoms: C_5  and  C_7
REMARK    5  A    between atoms: C_5  and  N_11
REMARK    6  A    between atoms: C_7  and  C_8
REMARK    7  A    between atoms: C_8  and  S_9
REMARK    8  A    between atoms: S_9  and  C_10
REMARK    9  A    between atoms: C_23  and  C_25
REMARK                            x       y       z     vdW  Elec       q    Type
REMARK                         _______ _______ _______ _____ _____    ______ ____
ROOT
ATOM      1  N   UNL     1      -2.719  -2.388  -2.369  0.00  0.00    -0.286 N 
ATOM      2  C   UNL     1      -3.305  -2.656  -1.186  0.00  0.00    +0.304 C 
ATOM      3  O   UNL     1      -2.649  -2.630  -0.162  0.00  0.00    -0.253 OA
ATOM      4  N   UNL     1      -4.619  -2.955  -1.137  0.00  0.00    -0.273 N 
ATOM      5  C   UNL     1      -5.298  -3.157   0.152  0.00  0.00    +0.116 C 
ATOM      6  C   UNL     1      -5.783  -4.610   0.241  0.00  0.00    +0.074 C 
ATOM      7  C   UNL     1      -6.434  -4.985  -1.065  0.00  0.00    +0.040 A 
ATOM      8  C   UNL     1      -6.270  -4.318  -2.228  0.00  0.00    +0.062 A 
ATOM      9  N   UNL     1      -6.991  -4.936  -3.166  0.00  0.00    -0.348 N 
ATOM     10  C   UNL     1      -7.600  -5.962  -2.631  0.00  0.00    +0.171 A 
ATOM     11  N   UNL     1      -7.277  -6.024  -1.318  0.00  0.00    -0.349 N 
ATOM     12  H   UNL     1      -7.587  -6.684  -0.678  0.00  0.00    +0.166 HD
ATOM     13  C   UNL     1      -5.411  -3.080  -2.373  0.00  0.00    +0.159 C 
ATOM     14  H   UNL     1      -3.226  -2.471  -3.192  0.00  0.00    +0.151 HD
ATOM     15  H   UNL     1      -7.053  -4.668  -4.096  0.00  0.00    +0.167 HD
ENDROOT
BRANCH  13  16
ATOM     16  C   UNL     1      -6.283  -1.863  -2.549  0.00  0.00    +0.017 A 
ATOM     17  C   UNL     1      -7.627  -2.012  -2.838  0.00  0.00    +0.011 A 
ATOM     18  C   UNL     1      -8.428  -0.898  -2.999  0.00  0.00    +0.042 A 
ATOM     19  C   UNL     1      -7.887   0.370  -2.872  0.00  0.00    +0.161 A 
ATOM     20  C   UNL     1      -6.541   0.521  -2.582  0.00  0.00    +0.194 A 
ATOM     21  C   UNL     1      -5.739  -0.597  -2.415  0.00  0.00    +0.167 A 
ATOM     22  F   UNL     1      -4.428  -0.452  -2.126  0.00  0.00    -0.202 F 
ATOM     23  F   UNL     1      -6.011   1.758  -2.457  0.00  0.00    -0.199 F 
ATOM     24  F   UNL     1      -8.671   1.458  -3.030  0.00  0.00    -0.202 F 
ENDBRANCH  13  16
BRANCH   1  25
ATOM     25  C   UNL     1      -1.316  -1.969  -2.413  0.00  0.00    +0.184 C 
BRANCH  25  26
ATOM     26  C   UNL     1      -0.428  -3.187  -2.414  0.00  0.00    +0.327 C 
ATOM     27  O   UNL     1      -0.918  -4.291  -2.381  0.00  0.00    -0.249 OA
BRANCH  26  29
ATOM     28  C   UNL     1       1.686  -4.242  -2.449  0.00  0.00    +0.280 C 
ATOM     29  O   UNL     1       0.906  -3.045  -2.451  0.00  0.00    -0.467 OA
ENDBRANCH  26  29
ENDBRANCH  25  26
BRANCH  25  30
ATOM     30  C   UNL     1      -1.066  -1.155  -3.684  0.00  0.00    +0.044 C 
BRANCH  30  31
ATOM     31  C   UNL     1      -1.874   0.143  -3.625  0.00  0.00    +0.071 C 
BRANCH  31  32
ATOM     32  S   UNL     1      -1.577   1.108  -5.133  0.00  0.00    -0.164 S 
ATOM     33  C   UNL     1      -2.593   2.594  -4.909  0.00  0.00    +0.084 C 
ENDBRANCH  31  32
ENDBRANCH  30  31
ENDBRANCH  25  30
ENDBRANCH   1  25
TORSDOF 7
