REMARK  Name = ZINC13222095
REMARK  9 active torsions:
REMARK  status: ('A' for Active; 'I' for Inactive)
REMARK    1  A    between atoms: C_1  and  C_2
REMARK    2  A    between atoms: C_3  and  C_30
REMARK    3  A    between atoms: C_4  and  C_29
REMARK    4  A    between atoms: C_9  and  S_11
REMARK    5  A    between atoms: S_11  and  C_12
REMARK    6  A    between atoms: C_12  and  C_14
REMARK    7  A    between atoms: C_12  and  C_15
REMARK    8  A    between atoms: N_17  and  C_18
REMARK    9  A    between atoms: C_30  and  C_31
REMARK                            x       y       z     vdW  Elec       q    Type
REMARK                         _______ _______ _______ _____ _____    ______ ____
ROOT
ATOM      1  S   UNL     1      -5.623   3.349   4.547  0.00  0.00    -0.072 S 
ENDROOT
BRANCH   1  10
ATOM      2  C   UNL     1      -0.013   1.086   0.008  0.00  0.00    +0.066 C 
ATOM      3  C   UNL     1      -0.718   1.572   1.248  0.00  0.00    +0.047 A 
ATOM      4  C   UNL     1       0.013   1.808   2.418  0.00  0.00    +0.006 A 
ATOM      5  C   UNL     1      -0.636   2.246   3.529  0.00  0.00    +0.049 A 
ATOM      6  N   UNL     1      -1.979   2.443   3.473  0.00  0.00    -0.200 N 
ATOM      7  C   UNL     1      -2.663   2.204   2.315  0.00  0.00    +0.254 A 
ATOM      8  N   UNL     1      -2.016   1.778   1.224  0.00  0.00    -0.216 NA
ATOM      9  N   UNL     1      -3.943   2.478   2.546  0.00  0.00    -0.183 NA
ATOM     10  C   UNL     1      -4.095   2.881   3.806  0.00  0.00    +0.212 A 
ATOM     11  N   UNL     1      -2.925   2.877   4.412  0.00  0.00    -0.137 NA
ATOM     12  C   UNL     1       0.123   2.508   4.804  0.00  0.00    +0.066 C 
BRANCH   4  13
ATOM     13  C   UNL     1       1.502   1.578   2.446  0.00  0.00    +0.163 C 
BRANCH  13  14
ATOM     14  C   UNL     1       2.213   2.846   2.050  0.00  0.00    +0.360 C 
ATOM     15  O   UNL     1       1.576   3.835   1.774  0.00  0.00    -0.246 OA
ATOM     16  O   UNL     1       3.554   2.877   2.005  0.00  0.00    -0.246 OA
ENDBRANCH  13  14
ENDBRANCH   4  13
ENDBRANCH   1  10
BRANCH   1  17
ATOM     17  C   UNL     1      -6.838   3.143   3.216  0.00  0.00    +0.137 C 
ATOM     18  C   UNL     1      -6.539   4.137   2.093  0.00  0.00    +0.029 C 
BRANCH  17  19
ATOM     19  C   UNL     1      -8.223   3.396   3.755  0.00  0.00    +0.227 C 
ATOM     20  O   UNL     1      -8.373   4.100   4.731  0.00  0.00    -0.275 OA
ATOM     21  N   UNL     1      -9.293   2.841   3.153  0.00  0.00    -0.308 N 
ATOM     22  H   UNL     1      -9.172   2.277   2.372  0.00  0.00    +0.149 HD
BRANCH  21  23
ATOM     23  C   UNL     1     -10.638   3.087   3.678  0.00  0.00    +0.103 C 
ATOM     24  C   UNL     1     -11.555   1.934   3.274  0.00  0.00    +0.027 C 
ATOM     25  C   UNL     1     -12.995   2.310   3.640  0.00  0.00    +0.007 C 
ATOM     26  C   UNL     1     -13.454   3.427   2.705  0.00  0.00    +0.035 C 
ATOM     27  C   UNL     1     -12.449   4.548   2.685  0.00  0.00    -0.042 A 
ATOM     28  C   UNL     1     -11.154   4.391   3.128  0.00  0.00    -0.024 A 
ATOM     29  C   UNL     1     -10.274   5.464   3.077  0.00  0.00    +0.006 A 
ATOM     30  C   UNL     1     -10.688   6.687   2.589  0.00  0.00    +0.000 A 
ATOM     31  C   UNL     1     -11.988   6.846   2.147  0.00  0.00    +0.000 A 
ATOM     32  C   UNL     1     -12.863   5.780   2.196  0.00  0.00    +0.004 A 
ENDBRANCH  21  23
ENDBRANCH  17  19
ENDBRANCH   1  17
TORSDOF 6
