REMARK  Name = ZINC63743815
REMARK  6 active torsions:
REMARK  status: ('A' for Active; 'I' for Inactive)
REMARK    1  A    between atoms: C_1  and  O_2
REMARK    2  A    between atoms: O_2  and  C_3
REMARK    3  A    between atoms: C_3  and  C_5
REMARK    4  A    between atoms: C_14  and  N_16
REMARK    5  A    between atoms: N_19  and  C_20
REMARK    6  A    between atoms: C_23  and  C_26
REMARK                            x       y       z     vdW  Elec       q    Type
REMARK                         _______ _______ _______ _____ _____    ______ ____
ROOT
ATOM      1  N   UNL     1      -1.312  -2.470  -0.303  0.00  0.00    -0.283 N 
ATOM      2  C   UNL     1      -1.707  -2.327  -1.584  0.00  0.00    +0.305 C 
ATOM      3  O   UNL     1      -0.935  -2.578  -2.489  0.00  0.00    -0.252 OA
ATOM      4  N   UNL     1      -2.957  -1.907  -1.861  0.00  0.00    -0.269 N 
ATOM      5  H   UNL     1      -1.928  -2.270   0.419  0.00  0.00    +0.152 HD
ATOM      6  H   UNL     1      -3.594  -1.772  -1.142  0.00  0.00    +0.156 HD
ENDROOT
BRANCH   1  15
ATOM      7  C   UNL     1       0.673  -2.090   1.099  0.00  0.00    +0.067 C 
ATOM      8  C   UNL     1       1.266  -2.698   2.095  0.00  0.00    -0.044 C 
ATOM      9  C   UNL     1       1.839  -2.011   3.334  0.00  0.00    +0.032 C 
ATOM     10  C   UNL     1       2.680  -3.062   4.065  0.00  0.00    +0.004 C 
ATOM     11  C   UNL     1       1.845  -4.260   4.494  0.00  0.00    +0.002 C 
ATOM     12  C   UNL     1       0.836  -4.693   3.434  0.00  0.00    +0.018 C 
ATOM     13  C   UNL     1       1.314  -4.233   2.055  0.00  0.00    +0.075 C 
ATOM     14  S   UNL     1       0.030  -4.592   0.790  0.00  0.00    -0.126 S 
ATOM     15  C   UNL     1       0.047  -2.926  -0.002  0.00  0.00    +0.170 C 
BRANCH   7  16
ATOM     16  C   UNL     1       0.610  -0.622   1.050  0.00  0.00    +0.338 C 
ATOM     17  O   UNL     1       1.115   0.037   1.937  0.00  0.00    -0.245 OA
BRANCH  16  19
ATOM     18  C   UNL     1      -0.031   1.421   0.038  0.00  0.00    +0.280 C 
ATOM     19  O   UNL     1      -0.008  -0.008   0.021  0.00  0.00    -0.465 OA
ENDBRANCH  16  19
ENDBRANCH   7  16
ENDBRANCH   1  15
BRANCH   4  20
ATOM     20  C   UNL     1      -3.337  -1.667  -3.187  0.00  0.00    +0.035 A 
ATOM     21  C   UNL     1      -4.213  -0.631  -3.482  0.00  0.00    +0.024 A 
ATOM     22  C   UNL     1      -4.585  -0.395  -4.791  0.00  0.00    +0.008 A 
ATOM     23  C   UNL     1      -4.086  -1.190  -5.807  0.00  0.00    -0.021 A 
ATOM     24  C   UNL     1      -3.213  -2.222  -5.516  0.00  0.00    +0.008 A 
ATOM     25  C   UNL     1      -2.833  -2.459  -4.210  0.00  0.00    +0.024 A 
BRANCH  23  26
ATOM     26  C   UNL     1      -4.494  -0.930  -7.234  0.00  0.00    +0.133 C 
ATOM     27  C   UNL     1      -5.533  -1.938  -7.671  0.00  0.00    +0.012 C 
ATOM     28  C   UNL     1      -4.990  -2.610  -8.712  0.00  0.00    -0.004 A 
ATOM     29  C   UNL     1      -5.488  -3.698  -9.561  0.00  0.00    +0.010 A 
ATOM     30  C   UNL     1      -4.695  -4.176 -10.547  0.00  0.00    +0.001 A 
ATOM     31  C   UNL     1      -3.413  -3.658 -10.778  0.00  0.00    +0.002 A 
ATOM     32  C   UNL     1      -2.886  -2.658 -10.039  0.00  0.00    +0.026 A 
ATOM     33  C   UNL     1      -3.633  -2.081  -8.975  0.00  0.00    +0.043 A 
ATOM     34  N   UNL     1      -3.348  -1.118  -8.130  0.00  0.00    -0.374 N 
ATOM     35  H   UNL     1      -2.519  -0.615  -8.102  0.00  0.00    +0.161 HD
ENDBRANCH  23  26
ENDBRANCH   4  20
TORSDOF 5
