REMARK  Name = ZINC03385253
REMARK  6 active torsions:
REMARK  status: ('A' for Active; 'I' for Inactive)
REMARK    1  A    between atoms: C_1  and  C_2
REMARK    2  A    between atoms: C_2  and  C_4
REMARK    3  A    between atoms: C_2  and  S_15
REMARK    4  A    between atoms: S_15  and  C_16
REMARK    5  A    between atoms: C_19  and  C_22
REMARK    6  A    between atoms: N_20  and  N_21
REMARK                            x       y       z     vdW  Elec       q    Type
REMARK                         _______ _______ _______ _____ _____    ______ ____
ROOT
ATOM      1  S   UNL     1       1.919   1.680   0.046  0.00  0.00    -0.072 S 
ENDROOT
BRANCH   1   2
ATOM      2  C   UNL     1       2.454   0.839  -1.407  0.00  0.00    +0.209 A 
ATOM      3  N   UNL     1       1.704   0.120  -2.212  0.00  0.00    -0.121 NA
ATOM      4  N   UNL     1       2.415  -0.347  -3.176  0.00  0.00    -0.127 NA
ATOM      5  C   UNL     1       3.663   0.036  -3.040  0.00  0.00    +0.183 A 
ATOM      6  N   UNL     1       3.726   0.808  -1.902  0.00  0.00    -0.224 N 
BRANCH   5   7
ATOM      7  C   UNL     1       4.788  -0.298  -3.939  0.00  0.00    +0.039 A 
ATOM      8  C   UNL     1       6.112  -0.133  -3.514  0.00  0.00    +0.014 A 
ATOM      9  C   UNL     1       7.128  -0.461  -4.393  0.00  0.00    +0.020 A 
ATOM     10  C   UNL     1       6.808  -0.937  -5.652  0.00  0.00    +0.111 A 
ATOM     11  N   UNL     1       5.551  -1.082  -6.025  0.00  0.00    -0.263 NA
ATOM     12  C   UNL     1       4.548  -0.789  -5.223  0.00  0.00    +0.122 A 
ENDBRANCH   5   7
BRANCH   6  13
ATOM     13  N   UNL     1       4.831   1.416  -1.378  0.00  0.00    -0.295 N 
ATOM     14  H   UNL     1       5.362   0.773  -0.809  0.00  0.00    +0.163 HD
ATOM     15  H   UNL     1       5.406   1.812  -2.107  0.00  0.00    +0.163 HD
ENDBRANCH   6  13
ENDBRANCH   1   2
BRANCH   1  17
ATOM     16  C   UNL     1      -0.503   1.881  -1.202  0.00  0.00    +0.029 C 
ATOM     17  C   UNL     1       0.160   1.254   0.026  0.00  0.00    +0.137 C 
BRANCH  17  18
ATOM     18  C   UNL     1      -0.499   1.779   1.276  0.00  0.00    +0.233 C 
ATOM     19  O   UNL     1      -0.007   2.712   1.874  0.00  0.00    -0.274 OA
ATOM     20  N   UNL     1      -1.635   1.211   1.728  0.00  0.00    -0.270 N 
ATOM     21  C   UNL     1      -2.381   0.158   1.035  0.00  0.00    +0.118 C 
ATOM     22  C   UNL     1      -3.582  -0.151   1.945  0.00  0.00    +0.056 C 
ATOM     23  C   UNL     1      -3.421   0.789   3.119  0.00  0.00    -0.024 A 
ATOM     24  C   UNL     1      -2.276   1.545   2.925  0.00  0.00    +0.040 A 
ATOM     25  C   UNL     1      -1.919   2.492   3.886  0.00  0.00    +0.024 A 
ATOM     26  C   UNL     1      -2.696   2.669   5.011  0.00  0.00    +0.002 A 
ATOM     27  C   UNL     1      -3.837   1.910   5.195  0.00  0.00    +0.000 A 
ATOM     28  C   UNL     1      -4.198   0.971   4.247  0.00  0.00    +0.005 A 
ENDBRANCH  17  18
ENDBRANCH   1  17
TORSDOF 5
