REMARK  Name = ZINC39837478
REMARK  10 active torsions:
REMARK  status: ('A' for Active; 'I' for Inactive)
REMARK    1  A    between atoms: C_1  and  C_2
REMARK    2  A    between atoms: C_5  and  C_8
REMARK    3  A    between atoms: C_8  and  N_9
REMARK    4  A    between atoms: N_9  and  C_10
REMARK    5  A    between atoms: C_11  and  C_25
REMARK    6  A    between atoms: C_13  and  C_15
REMARK    7  A    between atoms: C_18  and  C_21
REMARK    8  A    between atoms: C_21  and  C_22
REMARK    9  A    between atoms: C_21  and  C_23
REMARK   10  A    between atoms: C_21  and  C_24
REMARK                            x       y       z     vdW  Elec       q    Type
REMARK                         _______ _______ _______ _____ _____    ______ ____
ROOT
ATOM      1  C   UNL     1       1.716  -6.097  -0.041  0.00  0.00    +0.225 A 
ATOM      2  C   UNL     1       2.969  -6.691  -0.045  0.00  0.00    +0.201 A 
ATOM      3  N   UNL     1       2.768  -8.036  -0.054  0.00  0.00    -0.196 NA
ATOM      4  C   UNL     1       1.481  -8.266  -0.054  0.00  0.00    +0.231 A 
ATOM      5  O   UNL     1       0.814  -7.096  -0.041  0.00  0.00    -0.421 OA
ENDROOT
BRANCH   4   6
ATOM      6  C   UNL     1       0.854  -9.604  -0.063  0.00  0.00    +0.037 A 
ATOM      7  C   UNL     1      -0.536  -9.727  -0.069  0.00  0.00    +0.013 A 
ATOM      8  C   UNL     1      -1.115 -10.979  -0.078  0.00  0.00    +0.005 A 
ATOM      9  C   UNL     1      -0.320 -12.112  -0.080  0.00  0.00    -0.042 A 
ATOM     10  C   UNL     1       1.059 -11.997  -0.073  0.00  0.00    +0.005 A 
ATOM     11  C   UNL     1       1.650 -10.751  -0.071  0.00  0.00    +0.013 A 
BRANCH   9  12
ATOM     12  C   UNL     1      -0.959 -13.476  -0.089  0.00  0.00    -0.013 C 
ATOM     13  C   UNL     1      -1.824 -13.626  -1.342  0.00  0.00    +0.015 C 
ATOM     14  C   UNL     1       0.131 -14.550  -0.090  0.00  0.00    +0.015 C 
ATOM     15  C   UNL     1      -1.834 -13.638   1.156  0.00  0.00    +0.015 C 
ENDBRANCH   9  12
ENDBRANCH   4   6
BRANCH   1  16
ATOM     16  N   UNL     1       1.447  -4.746  -0.032  0.00  0.00    -0.309 N 
ATOM     17  H   UNL     1       2.176  -4.106  -0.032  0.00  0.00    +0.149 HD
BRANCH  16  18
ATOM     18  C   UNL     1       0.059  -4.275  -0.021  0.00  0.00    +0.139 C 
BRANCH  18  23
ATOM     19  C   UNL     1      -0.018   1.503   0.010  0.00  0.00    +0.044 C 
ATOM     20  C   UNL     1       0.002  -0.004   0.002  0.00  0.00    -0.050 A 
ATOM     21  C   UNL     1       0.006  -0.689  -1.199  0.00  0.00    +0.003 A 
ATOM     22  C   UNL     1       0.025  -2.071  -1.206  0.00  0.00    +0.005 A 
ATOM     23  C   UNL     1       0.040  -2.768  -0.013  0.00  0.00    -0.030 A 
ATOM     24  C   UNL     1       0.037  -2.084   1.188  0.00  0.00    +0.005 A 
ATOM     25  C   UNL     1       0.023  -0.702   1.195  0.00  0.00    +0.003 A 
ENDBRANCH  18  23
ENDBRANCH  16  18
ENDBRANCH   1  16
BRANCH   2  26
ATOM     26  C   UNL     1       4.233  -6.018  -0.042  0.00  0.00    +0.124 C 
ATOM     27  N   UNL     1       5.235  -5.483  -0.040  0.00  0.00    -0.189 NA
ENDBRANCH   2  26
TORSDOF 6
