REMARK  Name = ZINC65964468
REMARK  7 active torsions:
REMARK  status: ('A' for Active; 'I' for Inactive)
REMARK    1  A    between atoms: C_1  and  C_2
REMARK    2  A    between atoms: C_5  and  N_8
REMARK    3  A    between atoms: C_9  and  C_11
REMARK    4  A    between atoms: C_11  and  C_12
REMARK    5  A    between atoms: C_11  and  N_13
REMARK    6  A    between atoms: C_16  and  C_19
REMARK    7  A    between atoms: N_21  and  C_22
REMARK                            x       y       z     vdW  Elec       q    Type
REMARK                         _______ _______ _______ _____ _____    ______ ____
ROOT
ATOM      1  N   UNL     1      -0.250  -6.714   3.745  0.00  0.00    +0.387 N 
ATOM      2  C   UNL     1      -0.103  -8.174   3.713  0.00  0.00    -0.077 C 
ATOM      3  C   UNL     1       0.248  -8.685   5.112  0.00  0.00    -0.006 C 
ATOM      4  C   UNL     1      -0.871  -8.305   6.085  0.00  0.00    +0.071 C 
ATOM      5  C   UNL     1      -1.066  -6.786   6.054  0.00  0.00    -0.006 C 
ATOM      6  C   UNL     1      -1.369  -6.345   4.620  0.00  0.00    -0.077 C 
ATOM      7  H   UNL     1       0.601  -6.300   4.095  0.00  0.00    -0.081 HD
ENDROOT
BRANCH   4   8
ATOM      8  C   UNL     1      -0.496  -8.736   7.479  0.00  0.00    +0.216 C 
ATOM      9  O   UNL     1       0.563  -9.294   7.677  0.00  0.00    -0.276 OA
ATOM     10  N   UNL     1      -1.337  -8.502   8.506  0.00  0.00    -0.312 N 
ATOM     11  H   UNL     1      -2.184  -8.056   8.348  0.00  0.00    +0.149 HD
BRANCH  10  12
ATOM     12  C   UNL     1      -0.972  -8.922   9.862  0.00  0.00    +0.073 C 
ATOM     13  C   UNL     1      -1.365 -10.387  10.065  0.00  0.00    +0.022 C 
ATOM     14  C   UNL     1      -0.984 -10.825  11.481  0.00  0.00    +0.002 C 
ATOM     15  C   UNL     1      -1.720  -9.953  12.500  0.00  0.00    +0.000 C 
ATOM     16  C   UNL     1      -1.327  -8.488  12.296  0.00  0.00    +0.002 C 
ATOM     17  C   UNL     1      -1.708  -8.050  10.881  0.00  0.00    +0.022 C 
ENDBRANCH  10  12
ENDBRANCH   4   8
BRANCH   1  18
ATOM     18  C   UNL     1      -0.510  -6.221   2.386  0.00  0.00    +0.016 C 
ATOM     19  C   UNL     1       0.628  -6.654   1.459  0.00  0.00    -0.004 C 
BRANCH  18  21
ATOM     20  N   UNL     1      -1.333  -4.071   1.479  0.00  0.00    -0.314 N 
ATOM     21  C   UNL     1      -0.597  -4.716   2.406  0.00  0.00    +0.199 C 
ATOM     22  O   UNL     1      -0.004  -4.086   3.256  0.00  0.00    -0.278 OA
ATOM     23  H   UNL     1      -1.807  -4.575   0.799  0.00  0.00    +0.149 HD
BRANCH  20  28
ATOM     24  C   UNL     1      -1.695   1.481   0.111  0.00  0.00    +0.007 C 
ATOM     25  C   UNL     1      -1.607  -0.046   0.091  0.00  0.00    -0.014 C 
ATOM     26  C   UNL     1      -2.803  -0.636   0.842  0.00  0.00    +0.005 C 
ATOM     27  C   UNL     1      -2.715  -2.164   0.821  0.00  0.00    +0.022 C 
ATOM     28  C   UNL     1      -1.417  -2.609   1.498  0.00  0.00    +0.073 C 
ATOM     29  C   UNL     1      -0.222  -2.019   0.747  0.00  0.00    +0.022 C 
ATOM     30  C   UNL     1      -0.309  -0.492   0.768  0.00  0.00    +0.005 C 
ENDBRANCH  20  28
ENDBRANCH  18  21
ENDBRANCH   1  18
TORSDOF 5
