REMARK  Name = ZINC38965637
REMARK  6 active torsions:
REMARK  status: ('A' for Active; 'I' for Inactive)
REMARK    1  A    between atoms: C_4  and  C_7
REMARK    2  A    between atoms: C_7  and  O_8
REMARK    3  A    between atoms: O_8  and  C_9
REMARK    4  A    between atoms: C_13  and  C_15
REMARK    5  A    between atoms: N_16  and  N_17
REMARK    6  A    between atoms: C_18  and  C_24
REMARK                            x       y       z     vdW  Elec       q    Type
REMARK                         _______ _______ _______ _____ _____    ______ ____
ROOT
ATOM      1  C   UNL     1       7.425  -3.028   4.264  0.00  0.00    +0.138 C 
ATOM      2  N   UNL     1       8.637  -3.472   4.402  0.00  0.00    -0.184 NA
ENDROOT
BRANCH   2   3
ATOM      3  N   UNL     1       9.174  -3.657   5.683  0.00  0.00    -0.175 N 
ATOM      4  C   UNL     1       8.539  -3.298   6.963  0.00  0.00    +0.230 C 
ATOM      5  N   UNL     1       9.529  -3.706   7.975  0.00  0.00    -0.242 N 
ATOM      6  N   UNL     1      10.611  -4.244   7.267  0.00  0.00    -0.160 NA
ATOM      7  C   UNL     1      10.402  -4.218   5.994  0.00  0.00    +0.206 C 
ATOM      8  S   UNL     1      11.543  -4.819   4.794  0.00  0.00    -0.011 SA
ATOM      9  H   UNL     1       9.448  -3.620   8.938  0.00  0.00    +0.170 HD
BRANCH   4  10
ATOM     10  C   UNL     1       8.286  -1.791   7.033  0.00  0.00    +0.197 C 
ATOM     11  C   UNL     1       7.691  -1.408   8.372  0.00  0.00    -0.017 C 
ATOM     12  C   UNL     1       8.582  -0.582   8.916  0.00  0.00    +0.065 C 
ATOM     13  C   UNL     1       8.095  -0.124  10.279  0.00  0.00    +0.057 C 
ATOM     14  C   UNL     1       6.586  -0.451  10.297  0.00  0.00    +0.011 C 
ATOM     15  C   UNL     1       6.504  -1.610   9.278  0.00  0.00    +0.035 C 
ATOM     16  N   UNL     1       9.638  -0.419   8.073  0.00  0.00    -0.158 NA
ATOM     17  N   UNL     1       9.557  -1.046   7.012  0.00  0.00    -0.176 NA
ENDBRANCH   4  10
ENDBRANCH   2   3
BRANCH   1  22
ATOM     18  C   UNL     1       5.109  -1.970   1.502  0.00  0.00    +0.122 A 
ATOM     19  C   UNL     1       5.916  -2.163   0.389  0.00  0.00    +0.046 A 
ATOM     20  C   UNL     1       7.207  -2.635   0.537  0.00  0.00    +0.004 A 
ATOM     21  C   UNL     1       7.702  -2.918   1.793  0.00  0.00    +0.010 A 
ATOM     22  C   UNL     1       6.899  -2.727   2.920  0.00  0.00    -0.002 A 
ATOM     23  C   UNL     1       5.597  -2.245   2.768  0.00  0.00    +0.055 A 
BRANCH  18  24
ATOM     24  O   UNL     1       3.840  -1.506   1.350  0.00  0.00    -0.487 OA
BRANCH  24  25
ATOM     25  C   UNL     1       3.402  -1.243   0.015  0.00  0.00    +0.264 C 
BRANCH  25  29
ATOM     26  C   UNL     1      -0.623   0.186   0.092  0.00  0.00    +0.000 A 
ATOM     27  C   UNL     1       0.429   1.080   0.171  0.00  0.00    +0.000 A 
ATOM     28  C   UNL     1       1.732   0.617   0.146  0.00  0.00    +0.007 A 
ATOM     29  C   UNL     1       1.982  -0.739   0.043  0.00  0.00    -0.010 A 
ATOM     30  C   UNL     1       0.930  -1.632  -0.034  0.00  0.00    +0.007 A 
ATOM     31  C   UNL     1      -0.373  -1.169  -0.011  0.00  0.00    +0.000 A 
ENDBRANCH  25  29
ENDBRANCH  24  25
ENDBRANCH  18  24
ENDBRANCH   1  22
TORSDOF 6
