REMARK  Name = ZINC24870908
REMARK  4 active torsions:
REMARK  status: ('A' for Active; 'I' for Inactive)
REMARK    1  A    between atoms: C_3  and  C_6
REMARK    2  A    between atoms: C_6  and  C_15
REMARK    3  A    between atoms: C_7  and  C_8
REMARK    4  A    between atoms: N_17  and  C_18
REMARK                            x       y       z     vdW  Elec       q    Type
REMARK                         _______ _______ _______ _____ _____    ______ ____
ROOT
ATOM      1  C   UNL     1      -1.464  -1.838  -0.027  0.00  0.00    +0.249 C 
ATOM      2  O   UNL     1      -0.367  -2.162   0.386  0.00  0.00    -0.270 OA
ATOM      3  N   UNL     1      -1.790  -0.533  -0.122  0.00  0.00    -0.281 N 
ATOM      4  H   UNL     1      -2.810  -0.241  -0.410  0.00  0.00    +0.155 HD
ENDROOT
BRANCH   3   5
ATOM      5  C   UNL     1      -0.829   0.449   0.147  0.00  0.00    +0.036 A 
ATOM      6  C   UNL     1      -0.827   1.634  -0.578  0.00  0.00    +0.027 A 
ATOM      7  C   UNL     1       0.119   2.607  -0.315  0.00  0.00    +0.049 A 
ATOM      8  C   UNL     1       1.067   2.402   0.673  0.00  0.00    +0.142 A 
ATOM      9  C   UNL     1       1.067   1.214   1.402  0.00  0.00    +0.077 A 
ATOM     10  C   UNL     1       0.120   0.239   1.139  0.00  0.00    +0.050 A 
ATOM     11  N   UNL     1       2.034   1.021   2.398  0.00  0.00    -0.280 N 
ATOM     12  C   UNL     1       2.732   2.087   2.848  0.00  0.00    +0.255 C 
ATOM     13  O   UNL     1       3.594   1.939   3.689  0.00  0.00    -0.272 OA
ATOM     14  C   UNL     1       2.435   3.460   2.302  0.00  0.00    +0.325 C 
ATOM     15  O   UNL     1       2.002   3.353   0.944  0.00  0.00    -0.481 OA
ATOM     16  H   UNL     1       2.216   0.014   2.801  0.00  0.00    +0.155 HD
ENDBRANCH   3   5
BRANCH   1  17
ATOM     17  C   UNL     1      -2.436  -2.870  -0.425  0.00  0.00    +0.051 C 
ATOM     18  C   UNL     1      -2.107  -4.189  -0.329  0.00  0.00    +0.022 C 
BRANCH  18  19
ATOM     19  C   UNL     1      -3.124  -5.219  -0.570  0.00  0.00    -0.024 A 
ATOM     20  C   UNL     1      -4.447  -5.010  -0.161  0.00  0.00    +0.011 A 
ATOM     21  C   UNL     1      -5.398  -5.979  -0.396  0.00  0.00    +0.039 A 
ATOM     22  C   UNL     1      -5.046  -7.163  -1.025  0.00  0.00    +0.123 A 
ATOM     23  C   UNL     1      -3.736  -7.380  -1.427  0.00  0.00    +0.039 A 
ATOM     24  C   UNL     1      -2.776  -6.418  -1.205  0.00  0.00    +0.011 A 
ATOM     25  F   UNL     1      -5.983  -8.111  -1.247  0.00  0.00    -0.205 F 
ENDBRANCH  18  19
BRANCH  17  28
ATOM     26  C   UNL     1      -5.951  -1.575  -0.948  0.00  0.00    +0.008 A 
ATOM     27  C   UNL     1      -4.787  -1.846  -0.264  0.00  0.00    +0.016 A 
ATOM     28  C   UNL     1      -3.766  -2.477  -0.926  0.00  0.00    +0.024 A 
ATOM     29  S   UNL     1      -4.468  -2.705  -2.552  0.00  0.00    -0.097 S 
ATOM     30  C   UNL     1      -6.056  -1.947  -2.250  0.00  0.00    +0.046 A 
ENDBRANCH  17  28
ENDBRANCH   1  17
TORSDOF 4
