REMARK  Name = ZINC10693209
REMARK  8 active torsions:
REMARK  status: ('A' for Active; 'I' for Inactive)
REMARK    1  A    between atoms: C_1  and  C_2
REMARK    2  A    between atoms: N_11  and  C_15
REMARK    3  A    between atoms: C_15  and  C_16
REMARK    4  A    between atoms: C_16  and  O_18
REMARK    5  A    between atoms: O_18  and  C_19
REMARK    6  A    between atoms: C_19  and  C_20
REMARK    7  A    between atoms: C_20  and  C_22
REMARK    8  A    between atoms: C_31  and  C_32
REMARK                            x       y       z     vdW  Elec       q    Type
REMARK                         _______ _______ _______ _____ _____    ______ ____
ROOT
ATOM      1  C   UNL     1      -4.127  -4.090   2.123  0.00  0.00    +0.311 C 
ENDROOT
BRANCH   1   2
ATOM      2  C   UNL     1      -5.298  -4.926   2.572  0.00  0.00    +0.203 C 
ATOM      3  O   UNL     1      -6.139  -4.447   3.306  0.00  0.00    -0.288 OA
BRANCH   2   4
ATOM      4  C   UNL     1      -5.417  -6.265   2.140  0.00  0.00    +0.054 A 
ATOM      5  C   UNL     1      -4.494  -6.995   1.250  0.00  0.00    +0.011 A 
ATOM      6  C   UNL     1      -3.307  -6.653   0.607  0.00  0.00    +0.011 A 
ATOM      7  C   UNL     1      -2.660  -7.586  -0.173  0.00  0.00    +0.001 A 
ATOM      8  C   UNL     1      -3.184  -8.863  -0.316  0.00  0.00    +0.002 A 
ATOM      9  C   UNL     1      -4.355  -9.215   0.318  0.00  0.00    +0.026 A 
ATOM     10  C   UNL     1      -5.024  -8.287   1.111  0.00  0.00    +0.048 A 
ATOM     11  N   UNL     1      -6.189  -8.353   1.850  0.00  0.00    -0.354 N 
ATOM     12  H   UNL     1      -6.755  -9.137   1.921  0.00  0.00    +0.166 HD
ATOM     13  C   UNL     1      -6.433  -7.162   2.464  0.00  0.00    +0.058 A 
BRANCH  13  14
ATOM     14  C   UNL     1      -7.588  -6.869   3.334  0.00  0.00    -0.001 A 
ATOM     15  C   UNL     1      -7.402  -6.198   4.545  0.00  0.00    +0.010 A 
ATOM     16  C   UNL     1      -8.487  -5.922   5.351  0.00  0.00    +0.001 A 
ATOM     17  C   UNL     1      -9.756  -6.318   4.967  0.00  0.00    +0.000 A 
ATOM     18  C   UNL     1      -9.947  -6.988   3.771  0.00  0.00    +0.001 A 
ATOM     19  C   UNL     1      -8.872  -7.265   2.953  0.00  0.00    +0.010 A 
ENDBRANCH  13  14
ENDBRANCH   2   4
ENDBRANCH   1   2
BRANCH   1  20
ATOM     20  O   UNL     1      -4.231  -2.761   2.698  0.00  0.00    -0.455 OA
BRANCH  20  21
ATOM     21  C   UNL     1      -3.259  -1.887   2.394  0.00  0.00    +0.326 C 
ATOM     22  O   UNL     1      -2.350  -2.222   1.671  0.00  0.00    -0.249 OA
BRANCH  21  23
ATOM     23  C   UNL     1      -3.300  -0.489   2.954  0.00  0.00    +0.238 C 
BRANCH  23  33
ATOM     24  C   UNL     1      -1.536   3.561   2.539  0.00  0.00    +0.010 C 
ATOM     25  C   UNL     1      -0.790   3.101   1.286  0.00  0.00    +0.018 C 
ATOM     26  C   UNL     1      -1.527   3.600   0.040  0.00  0.00    +0.006 C 
ATOM     27  C   UNL     1      -0.790   3.122  -1.213  0.00  0.00    +0.000 C 
ATOM     28  C   UNL     1      -0.753   1.593  -1.233  0.00  0.00    +0.003 C 
ATOM     29  C   UNL     1      -0.013   1.086   0.008  0.00  0.00    +0.035 C 
ATOM     30  C   UNL     1      -0.726   1.577   1.263  0.00  0.00    +0.115 C 
ATOM     31  C   UNL     1      -2.117   0.991   1.342  0.00  0.00    +0.247 C 
ATOM     32  O   UNL     1      -3.023   1.142   0.552  0.00  0.00    -0.273 OA
ATOM     33  N   UNL     1      -2.136   0.263   2.478  0.00  0.00    -0.213 N 
ATOM     34  C   UNL     1      -0.960   0.312   3.115  0.00  0.00    +0.310 C 
ATOM     35  O   UNL     1      -0.734  -0.264   4.161  0.00  0.00    -0.252 OA
ATOM     36  N   UNL     1      -0.056   1.072   2.468  0.00  0.00    -0.285 N 
ATOM     37  H   UNL     1       0.857   1.250   2.743  0.00  0.00    +0.151 HD
ENDBRANCH  23  33
ENDBRANCH  21  23
ENDBRANCH  20  21
ENDBRANCH   1  20
TORSDOF 7
