REMARK  Name = ZINC66004700
REMARK  10 active torsions:
REMARK  status: ('A' for Active; 'I' for Inactive)
REMARK    1  A    between atoms: C_1  and  C_2
REMARK    2  A    between atoms: C_3  and  C_12
REMARK    3  A    between atoms: C_14  and  C_15
REMARK    4  A    between atoms: C_14  and  C_17
REMARK    5  A    between atoms: C_17  and  C_19
REMARK    6  A    between atoms: C_19  and  S_20
REMARK    7  A    between atoms: S_20  and  C_21
REMARK    8  A    between atoms: N_25  and  C_26
REMARK    9  A    between atoms: C_26  and  C_27
REMARK   10  A    between atoms: C_26  and  C_28
REMARK                            x       y       z     vdW  Elec       q    Type
REMARK                         _______ _______ _______ _____ _____    ______ ____
ROOT
ATOM      1  C   UNL     1      -0.005  -0.336  -2.517  0.00  0.00    +0.209 C 
ATOM      2  O   UNL     1       1.091  -0.490  -3.288  0.00  0.00    -0.286 OA
ATOM      3  C   UNL     1      -1.156   0.261  -3.047  0.00  0.00    +0.142 C 
ENDROOT
BRANCH   1   6
ATOM      4  C   UNL     1      -0.018   1.503   0.010  0.00  0.00    +0.064 C 
ATOM      5  C   UNL     1       0.002  -0.004   0.002  0.00  0.00    +0.025 A 
ATOM      6  C   UNL     1       0.008  -0.793  -1.129  0.00  0.00    +0.051 A 
ATOM      7  C   UNL     1       0.029  -2.191  -0.656  0.00  0.00    +0.011 A 
ATOM      8  C   UNL     1       0.042  -3.427  -1.295  0.00  0.00    +0.011 A 
ATOM      9  C   UNL     1       0.061  -4.583  -0.544  0.00  0.00    +0.001 A 
ATOM     10  C   UNL     1       0.066  -4.516   0.842  0.00  0.00    +0.002 A 
ATOM     11  C   UNL     1       0.052  -3.299   1.486  0.00  0.00    +0.026 A 
ATOM     12  C   UNL     1       0.034  -2.121   0.746  0.00  0.00    +0.047 A 
ATOM     13  N   UNL     1       0.024  -0.787   1.099  0.00  0.00    -0.358 N 
ATOM     14  H   UNL     1       0.028  -0.458   2.011  0.00  0.00    +0.166 HD
ENDBRANCH   1   6
BRANCH   3  15
ATOM     15  C   UNL     1      -1.169   0.708  -4.408  0.00  0.00    +0.107 C 
ATOM     16  N   UNL     1      -1.179   1.063  -5.487  0.00  0.00    -0.191 NA
ENDBRANCH   3  15
BRANCH   3  17
ATOM     17  C   UNL     1      -2.301   0.422  -2.242  0.00  0.00    +0.187 C 
ATOM     18  O   UNL     1      -2.291   0.043  -1.087  0.00  0.00    -0.290 OA
BRANCH  17  19
ATOM     19  C   UNL     1      -3.539   1.065  -2.812  0.00  0.00    +0.157 C 
BRANCH  19  20
ATOM     20  S   UNL     1      -4.830   1.127  -1.538  0.00  0.00    -0.078 S 
BRANCH  20  21
ATOM     21  C   UNL     1      -6.193   1.895  -2.350  0.00  0.00    +0.192 A 
ATOM     22  N   UNL     1      -6.228   2.307  -3.596  0.00  0.00    -0.123 NA
ATOM     23  N   UNL     1      -7.379   2.818  -3.854  0.00  0.00    -0.137 NA
ATOM     24  C   UNL     1      -8.140   2.763  -2.797  0.00  0.00    +0.226 A 
ATOM     25  N   UNL     1      -7.414   2.168  -1.803  0.00  0.00    -0.306 N 
BRANCH  25  26
ATOM     26  C   UNL     1      -7.854   1.885  -0.435  0.00  0.00    +0.084 C 
ATOM     27  C   UNL     1      -8.238   3.194   0.258  0.00  0.00    +0.030 C 
ATOM     28  C   UNL     1      -9.066   0.952  -0.471  0.00  0.00    +0.030 C 
ENDBRANCH  25  26
ENDBRANCH  20  21
ENDBRANCH  19  20
ENDBRANCH  17  19
ENDBRANCH   3  17
TORSDOF 7
