REMARK  Name = ZINC12301219
REMARK  10 active torsions:
REMARK  status: ('A' for Active; 'I' for Inactive)
REMARK    1  A    between atoms: C_4  and  C_7
REMARK    2  A    between atoms: C_7  and  N_62
REMARK    3  A    between atoms: C_10  and  C_11
REMARK    4  A    between atoms: C_10  and  N_62
REMARK    5  A    between atoms: C_16  and  O_17
REMARK    6  A    between atoms: O_17  and  C_18
REMARK    7  A    between atoms: C_18  and  C_19
REMARK    8  A    between atoms: C_19  and  C_21
REMARK    9  A    between atoms: C_19  and  O_31
REMARK   10  A    between atoms: C_21  and  N_65
REMARK                            x       y       z     vdW  Elec       q    Type
REMARK                         _______ _______ _______ _____ _____    ______ ____
ROOT
ATOM      1  C   UNL     1       4.095   0.266  -1.005  0.00  0.00    -0.023 A 
ATOM      2  C   UNL     1       5.020   0.724  -0.087  0.00  0.00    +0.005 A 
ATOM      3  C   UNL     1       6.198   0.030   0.115  0.00  0.00    +0.000 A 
ATOM      4  C   UNL     1       6.459  -1.119  -0.610  0.00  0.00    +0.004 A 
ATOM      5  C   UNL     1       5.539  -1.578  -1.532  0.00  0.00    +0.046 A 
ATOM      6  C   UNL     1       4.354  -0.886  -1.733  0.00  0.00    +0.122 A 
ENDROOT
BRANCH   1   7
ATOM      7  C   UNL     1       2.808   1.021  -1.220  0.00  0.00    -0.042 C 
BRANCH   7   8
ATOM      8  N   UNL     1       1.724   0.349  -0.479  0.00  0.00    +0.388 N 
ATOM      9  H   UNL     1       1.681  -0.637  -0.762  0.00  0.00    -0.084 HD
ATOM     10  H   UNL     1       1.915   0.408   0.528  0.00  0.00    -0.084 HD
BRANCH   8  11
ATOM     11  C   UNL     1       0.430   0.995  -0.768  0.00  0.00    -0.042 C 
ATOM     12  C   UNL     1       0.438   2.482  -1.126  0.00  0.00    -0.009 C 
ATOM     13  C   UNL     1       0.159   1.436  -2.208  0.00  0.00    -0.009 C 
BRANCH  11  17
ATOM     14  C   UNL     1      -2.881  -0.468   1.500  0.00  0.00    +0.000 A 
ATOM     15  C   UNL     1      -1.625  -1.018   1.677  0.00  0.00    +0.000 A 
ATOM     16  C   UNL     1      -0.554  -0.545   0.942  0.00  0.00    +0.002 A 
ATOM     17  C   UNL     1      -0.738   0.479   0.032  0.00  0.00    -0.058 A 
ATOM     18  C   UNL     1      -1.993   1.033  -0.140  0.00  0.00    +0.002 A 
ATOM     19  C   UNL     1      -3.065   0.556   0.590  0.00  0.00    +0.000 A 
ENDBRANCH  11  17
ENDBRANCH   8  11
ENDBRANCH   7   8
ENDBRANCH   1   7
BRANCH   6  20
ATOM     20  O   UNL     1       3.448  -1.335  -2.640  0.00  0.00    -0.489 OA
BRANCH  20  21
ATOM     21  C   UNL     1       3.781  -2.528  -3.353  0.00  0.00    +0.258 C 
BRANCH  21  22
ATOM     22  C   UNL     1       2.649  -2.876  -4.323  0.00  0.00    +0.135 C 
BRANCH  22  23
ATOM     23  O   UNL     1       2.545  -1.857  -5.319  0.00  0.00    -0.390 OA
ATOM     24  H   UNL     1       3.347  -1.739  -5.846  0.00  0.00    +0.210 HD
ENDBRANCH  22  23
BRANCH  22  25
ATOM     25  C   UNL     1       2.948  -4.218  -4.995  0.00  0.00    -0.043 C 
BRANCH  25  35
ATOM     26  C   UNL     1       0.657  -4.995  -5.127  0.00  0.00    -0.074 C 
ATOM     27  C   UNL     1      -0.552  -4.995  -6.064  0.00  0.00    +0.017 C 
ATOM     28  C   UNL     1      -0.228  -5.762  -7.321  0.00  0.00    -0.048 A 
ATOM     29  C   UNL     1      -1.275  -6.179  -8.129  0.00  0.00    +0.004 A 
ATOM     30  C   UNL     1      -1.023  -6.880  -9.291  0.00  0.00    +0.000 A 
ATOM     31  C   UNL     1       0.281  -7.169  -9.651  0.00  0.00    +0.000 A 
ATOM     32  C   UNL     1       1.323  -6.756  -8.846  0.00  0.00    +0.002 A 
ATOM     33  C   UNL     1       1.071  -6.052  -7.677  0.00  0.00    -0.061 A 
ATOM     34  C   UNL     1       2.242  -5.626  -6.830  0.00  0.00    -0.043 C 
ATOM     35  N   UNL     1       1.831  -4.555  -5.907  0.00  0.00    +0.384 N 
ATOM     36  H   UNL     1       1.580  -3.721  -6.450  0.00  0.00    -0.081 HD
ENDBRANCH  25  35
ENDBRANCH  22  25
ENDBRANCH  21  22
ENDBRANCH  20  21
ENDBRANCH   6  20
TORSDOF 10
