REMARK  Name = ZINC58213894
REMARK  11 active torsions:
REMARK  status: ('A' for Active; 'I' for Inactive)
REMARK    1  A    between atoms: C_1  and  C_2
REMARK    2  A    between atoms: C_2  and  C_4
REMARK    3  A    between atoms: C_2  and  N_16
REMARK    4  A    between atoms: C_7  and  N_10
REMARK    5  A    between atoms: C_11  and  C_13
REMARK    6  A    between atoms: N_19  and  C_20
REMARK    7  A    between atoms: C_20  and  C_21
REMARK    8  A    between atoms: N_23  and  C_24
REMARK    9  A    between atoms: C_24  and  C_25
REMARK   10  A    between atoms: C_24  and  C_26
REMARK   11  A    between atoms: C_24  and  C_27
REMARK                            x       y       z     vdW  Elec       q    Type
REMARK                         _______ _______ _______ _____ _____    ______ ____
ROOT
ATOM      1  C   UNL     1       0.168   1.496  -0.118  0.00  0.00    +0.033 C 
ATOM      2  C   UNL     1       0.011  -0.022  -0.010  0.00  0.00    +0.102 C 
ENDROOT
BRANCH   2   3
ATOM      3  C   UNL     1       0.737  -0.516   1.214  0.00  0.00    -0.027 A 
ATOM      4  C   UNL     1       2.109  -0.690   1.179  0.00  0.00    +0.007 A 
ATOM      5  C   UNL     1       2.777  -1.143   2.299  0.00  0.00    +0.023 A 
ATOM      6  C   UNL     1       2.071  -1.424   3.462  0.00  0.00    +0.033 A 
ATOM      7  C   UNL     1       0.694  -1.248   3.493  0.00  0.00    +0.023 A 
ATOM      8  C   UNL     1       0.032  -0.790   2.371  0.00  0.00    +0.007 A 
BRANCH   6   9
ATOM      9  N   UNL     1       2.746  -1.883   4.598  0.00  0.00    -0.285 N 
ATOM     10  C   UNL     1       3.998  -1.458   4.856  0.00  0.00    +0.220 C 
ATOM     11  O   UNL     1       4.505  -0.605   4.159  0.00  0.00    -0.275 OA
ATOM     12  H   UNL     1       2.312  -2.508   5.200  0.00  0.00    +0.155 HD
BRANCH  10  13
ATOM     13  C   UNL     1       4.769  -2.041   6.013  0.00  0.00    +0.075 C 
ATOM     14  C   UNL     1       5.053  -1.127   7.206  0.00  0.00    +0.013 C 
ATOM     15  C   UNL     1       6.186  -1.516   6.254  0.00  0.00    +0.013 C 
ENDBRANCH  10  13
ENDBRANCH   6   9
ENDBRANCH   2   3
BRANCH   2  16
ATOM     16  N   UNL     1       0.575  -0.658  -1.203  0.00  0.00    -0.293 N 
ATOM     17  C   UNL     1      -0.175  -0.789  -2.316  0.00  0.00    +0.300 C 
ATOM     18  O   UNL     1      -1.319  -0.380  -2.329  0.00  0.00    -0.253 OA
ATOM     19  N   UNL     1       0.345  -1.374  -3.413  0.00  0.00    -0.291 N 
ATOM     20  H   UNL     1       1.488  -0.984  -1.193  0.00  0.00    +0.151 HD
ATOM     21  H   UNL     1       1.258  -1.701  -3.403  0.00  0.00    +0.151 HD
BRANCH  19  22
ATOM     22  C   UNL     1      -0.470  -1.517  -4.622  0.00  0.00    +0.201 C 
BRANCH  22  23
ATOM     23  C   UNL     1       0.339  -2.198  -5.696  0.00  0.00    +0.231 C 
ATOM     24  O   UNL     1       1.484  -2.531  -5.473  0.00  0.00    -0.274 OA
ATOM     25  N   UNL     1      -0.209  -2.436  -6.904  0.00  0.00    -0.309 N 
ATOM     26  H   UNL     1      -1.125  -2.170  -7.082  0.00  0.00    +0.149 HD
BRANCH  25  27
ATOM     27  C   UNL     1       0.577  -3.098  -7.947  0.00  0.00    +0.026 C 
ATOM     28  C   UNL     1       1.011  -4.482  -7.459  0.00  0.00    +0.031 C 
ATOM     29  C   UNL     1      -0.274  -3.247  -9.210  0.00  0.00    +0.031 C 
ATOM     30  C   UNL     1       1.815  -2.257  -8.263  0.00  0.00    +0.031 C 
ENDBRANCH  25  27
ENDBRANCH  22  23
ENDBRANCH  19  22
ENDBRANCH   2  16
TORSDOF 7
