REMARK  Name = ZINC08614897
REMARK  9 active torsions:
REMARK  status: ('A' for Active; 'I' for Inactive)
REMARK    1  A    between atoms: C_1  and  C_2
REMARK    2  A    between atoms: C_4  and  C_32
REMARK    3  A    between atoms: N_13  and  C_26
REMARK    4  A    between atoms: C_14  and  C_17
REMARK    5  A    between atoms: C_20  and  O_25
REMARK    6  A    between atoms: C_21  and  O_23
REMARK    7  A    between atoms: O_23  and  C_24
REMARK    8  A    between atoms: C_32  and  O_33
REMARK    9  A    between atoms: O_33  and  C_34
REMARK                            x       y       z     vdW  Elec       q    Type
REMARK                         _______ _______ _______ _____ _____    ______ ____
ROOT
ATOM      1  C   UNL     1       0.095   1.522   0.180  0.00  0.00    +0.065 C 
ATOM      2  C   UNL     1       0.074   0.016   0.146  0.00  0.00    +0.040 A 
ATOM      3  C   UNL     1      -0.090  -0.645  -1.062  0.00  0.00    +0.029 A 
ATOM      4  C   UNL     1      -0.111  -2.018  -1.107  0.00  0.00    -0.009 A 
ATOM      5  C   UNL     1       0.038  -2.750   0.098  0.00  0.00    +0.035 A 
ATOM      6  C   UNL     1       0.044  -4.193   0.284  0.00  0.00    +0.058 A 
ATOM      7  C   UNL     1       0.214  -4.656   1.584  0.00  0.00    +0.098 A 
ATOM      8  S   UNL     1       0.355  -3.197   2.565  0.00  0.00    -0.062 S 
ATOM      9  C   UNL     1       0.199  -1.982   1.275  0.00  0.00    +0.111 A 
ATOM     10  N   UNL     1       0.217  -0.667   1.266  0.00  0.00    -0.245 NA
ATOM     11  C   UNL     1       0.255  -6.017   1.930  0.00  0.00    +0.261 C 
ATOM     12  O   UNL     1       0.277  -6.378   3.093  0.00  0.00    -0.269 OA
ATOM     13  N   UNL     1       0.268  -6.910   0.909  0.00  0.00    -0.244 N 
ATOM     14  C   UNL     1       0.470  -6.484  -0.474  0.00  0.00    +0.198 C 
ATOM     15  N   UNL     1      -0.111  -5.160  -0.729  0.00  0.00    -0.320 N 
ATOM     16  H   UNL     1      -0.578  -4.960  -1.556  0.00  0.00    +0.148 HD
ENDROOT
BRANCH  14  17
ATOM     17  C   UNL     1       1.948  -6.434  -0.761  0.00  0.00    -0.005 A 
ATOM     18  C   UNL     1       2.808  -7.295  -0.104  0.00  0.00    +0.011 A 
ATOM     19  C   UNL     1       4.165  -7.253  -0.364  0.00  0.00    +0.049 A 
ATOM     20  C   UNL     1       4.667  -6.347  -1.285  0.00  0.00    +0.158 A 
ATOM     21  C   UNL     1       3.801  -5.481  -1.947  0.00  0.00    +0.162 A 
ATOM     22  C   UNL     1       2.441  -5.532  -1.685  0.00  0.00    +0.056 A 
BRANCH  21  23
ATOM     23  O   UNL     1       4.288  -4.591  -2.852  0.00  0.00    -0.491 OA
ATOM     24  C   UNL     1       3.341  -3.733  -3.493  0.00  0.00    +0.277 C 
ENDBRANCH  21  23
BRANCH  20  25
ATOM     25  O   UNL     1       6.001  -6.304  -1.542  0.00  0.00    -0.503 OA
ATOM     26  H   UNL     1       6.283  -6.888  -2.259  0.00  0.00    +0.292 HD
ENDBRANCH  20  25
ENDBRANCH  14  17
BRANCH  13  27
ATOM     27  C   UNL     1       0.085  -8.268   1.187  0.00  0.00    +0.039 A 
ATOM     28  C   UNL     1       0.940  -8.920   2.067  0.00  0.00    +0.023 A 
ATOM     29  C   UNL     1       0.756 -10.261   2.339  0.00  0.00    +0.002 A 
ATOM     30  C   UNL     1      -0.277 -10.956   1.736  0.00  0.00    +0.000 A 
ATOM     31  C   UNL     1      -1.129 -10.310   0.859  0.00  0.00    +0.002 A 
ATOM     32  C   UNL     1      -0.955  -8.967   0.587  0.00  0.00    +0.023 A 
ENDBRANCH  13  27
BRANCH   4  33
ATOM     33  C   UNL     1      -0.289  -2.737  -2.420  0.00  0.00    +0.195 C 
BRANCH  33  34
ATOM     34  O   UNL     1      -0.416  -1.780  -3.474  0.00  0.00    -0.378 OA
ATOM     35  C   UNL     1      -0.591  -2.360  -4.768  0.00  0.00    +0.194 C 
ENDBRANCH  33  34
ENDBRANCH   4  33
TORSDOF 6
