REMARK  Name = ZINC67529850
REMARK  4 active torsions:
REMARK  status: ('A' for Active; 'I' for Inactive)
REMARK    1  A    between atoms: C_1  and  C_2
REMARK    2  A    between atoms: N_4  and  C_5
REMARK    3  A    between atoms: C_5  and  C_6
REMARK    4  A    between atoms: C_19  and  C_21
REMARK                            x       y       z     vdW  Elec       q    Type
REMARK                         _______ _______ _______ _____ _____    ______ ____
ROOT
ATOM      1  C   UNL     1       0.018  -2.636  -2.619  0.00  0.00    +0.024 C 
ATOM      2  C   UNL     1      -0.090  -4.162  -2.629  0.00  0.00    +0.008 C 
ATOM      3  C   UNL     1      -0.135  -4.662  -4.075  0.00  0.00    +0.019 C 
ATOM      4  C   UNL     1       1.161  -4.265  -4.789  0.00  0.00    +0.109 C 
ATOM      5  N   UNL     1       1.347  -2.813  -4.658  0.00  0.00    -0.285 N 
ATOM      6  C   UNL     1       1.315  -2.214  -3.317  0.00  0.00    +0.114 C 
ATOM      7  C   UNL     1       1.542  -2.045  -5.748  0.00  0.00    +0.308 C 
ATOM      8  O   UNL     1       1.599  -0.835  -5.637  0.00  0.00    -0.252 OA
ATOM      9  N   UNL     1       1.674  -2.617  -6.961  0.00  0.00    -0.247 N 
ATOM     10  C   UNL     1       1.979  -1.835  -8.070  0.00  0.00    +0.189 A 
ATOM     11  N   UNL     1       2.181  -0.534  -8.139  0.00  0.00    -0.126 NA
ATOM     12  N   UNL     1       2.453   0.043  -9.230  0.00  0.00    -0.144 NA
ATOM     13  C   UNL     1       2.538  -0.676 -10.331  0.00  0.00    +0.107 A 
ATOM     14  S   UNL     1       2.194  -2.303  -9.675  0.00  0.00    -0.035 S 
ATOM     15  H   UNL     1       1.556  -3.575  -7.061  0.00  0.00    +0.158 HD
ENDROOT
BRANCH  13  16
ATOM     16  C   UNL     1       2.844  -0.249 -11.744  0.00  0.00    +0.047 C 
ATOM     17  C   UNL     1       4.228   0.402 -11.792  0.00  0.00    +0.010 C 
ATOM     18  C   UNL     1       4.538   0.836 -13.226  0.00  0.00    +0.001 C 
ATOM     19  C   UNL     1       3.484   1.842 -13.693  0.00  0.00    +0.000 C 
ATOM     20  C   UNL     1       2.100   1.192 -13.645  0.00  0.00    +0.001 C 
ATOM     21  C   UNL     1       1.790   0.758 -12.211  0.00  0.00    +0.010 C 
ENDBRANCH  13  16
BRANCH   1  22
ATOM     22  C   UNL     1       0.030  -2.134  -1.173  0.00  0.00    +0.109 C 
BRANCH  22  26
ATOM     23  C   UNL     1       0.006   1.504   0.016  0.00  0.00    +0.109 C 
ATOM     24  C   UNL     1       0.022  -0.003   0.007  0.00  0.00    +0.210 C 
ATOM     25  O   UNL     1       0.041  -0.615   1.053  0.00  0.00    -0.276 OA
ATOM     26  N   UNL     1       0.015  -0.669  -1.165  0.00  0.00    -0.315 N 
ATOM     27  H   UNL     1       0.000  -0.179  -2.002  0.00  0.00    +0.149 HD
ENDBRANCH  22  26
ENDBRANCH   1  22
TORSDOF 3
