REMARK  Name = ZINC50659776
REMARK  6 active torsions:
REMARK  status: ('A' for Active; 'I' for Inactive)
REMARK    1  A    between atoms: C_1  and  C_2
REMARK    2  A    between atoms: C_2  and  C_3
REMARK    3  A    between atoms: C_3  and  N_4
REMARK    4  A    between atoms: C_8  and  S_11
REMARK    5  A    between atoms: S_11  and  N_14
REMARK    6  A    between atoms: N_14  and  C_15
REMARK                            x       y       z     vdW  Elec       q    Type
REMARK                         _______ _______ _______ _____ _____    ______ ____
ROOT
ATOM      1  N   UNL     1       0.738  -1.962  -1.265  0.00  0.00    -0.329 N 
ATOM      2  C   UNL     1       1.339  -2.643  -2.317  0.00  0.00    +0.119 A 
ATOM      3  C   UNL     1       1.925  -1.928  -3.356  0.00  0.00    +0.045 A 
ATOM      4  C   UNL     1       2.520  -2.618  -4.396  0.00  0.00    +0.034 A 
ATOM      5  C   UNL     1       2.509  -4.007  -4.363  0.00  0.00    +0.129 A 
ATOM      6  C   UNL     1       1.909  -4.652  -3.300  0.00  0.00    +0.141 A 
ATOM      7  N   UNL     1       1.354  -3.967  -2.318  0.00  0.00    -0.239 NA
ATOM      8  H   UNL     1       0.332  -2.457  -0.536  0.00  0.00    +0.147 HD
ENDROOT
BRANCH   5   9
ATOM      9  S   UNL     1       3.252  -4.935  -5.663  0.00  0.00    +0.095 S 
ATOM     10  O   UNL     1       2.625  -6.210  -5.662  0.00  0.00    -0.148 OA
ATOM     11  O   UNL     1       3.263  -4.093  -6.808  0.00  0.00    -0.148 OA
BRANCH   9  12
ATOM     12  N   UNL     1       4.835  -5.185  -5.244  0.00  0.00    -0.070 NA
BRANCH  12  13
ATOM     13  C   UNL     1       5.672  -5.895  -6.090  0.00  0.00    +0.202 A 
ATOM     14  N   UNL     1       5.389  -6.435  -7.256  0.00  0.00    -0.229 NA
ATOM     15  C   UNL     1       6.308  -7.087  -7.947  0.00  0.00    +0.136 A 
ATOM     16  C   UNL     1       7.545  -7.172  -7.400  0.00  0.00    +0.076 A 
ATOM     17  S   UNL     1       7.299  -6.271  -5.878  0.00  0.00    -0.042 S 
ATOM     18 BR   UNL     1       9.105  -8.007  -8.067  0.00  0.00    -0.041 Br
ENDBRANCH  12  13
ENDBRANCH   9  12
ENDBRANCH   5   9
BRANCH   1  19
ATOM     19  C   UNL     1       0.718  -0.497  -1.257  0.00  0.00    +0.102 C 
BRANCH  19  21
ATOM     20  C   UNL     1      -0.019   1.526   0.010  0.00  0.00    +0.005 C 
ATOM     21  C   UNL     1       0.002  -0.004   0.002  0.00  0.00    +0.015 C 
ENDBRANCH  19  21
ENDBRANCH   1  19
TORSDOF 5
