REMARK  Name = ZINC59400035
REMARK  7 active torsions:
REMARK  status: ('A' for Active; 'I' for Inactive)
REMARK    1  A    between atoms: C_1  and  C_2
REMARK    2  A    between atoms: C_5  and  S_8
REMARK    3  A    between atoms: S_8  and  N_11
REMARK    4  A    between atoms: N_11  and  N_12
REMARK    5  A    between atoms: C_13  and  C_15
REMARK    6  A    between atoms: C_16  and  C_25
REMARK    7  A    between atoms: C_19  and  C_24
REMARK                            x       y       z     vdW  Elec       q    Type
REMARK                         _______ _______ _______ _____ _____    ______ ____
ROOT
ATOM      1  N   UNL     1       2.500  -4.622   1.014  0.00  0.00    -0.225 N 
ATOM      2  C   UNL     1       3.184  -5.560   1.699  0.00  0.00    +0.294 C 
ATOM      3  O   UNL     1       3.063  -6.735   1.407  0.00  0.00    -0.265 OA
ATOM      4  H   UNL     1       2.596  -3.685   1.247  0.00  0.00    +0.171 HD
ENDROOT
BRANCH   2   5
ATOM      5  C   UNL     1       4.075  -5.164   2.798  0.00  0.00    +0.195 A 
ATOM      6  C   UNL     1       4.815  -6.018   3.551  0.00  0.00    +0.008 A 
ATOM      7  C   UNL     1       5.539  -5.188   4.513  0.00  0.00    +0.024 A 
ATOM      8  C   UNL     1       6.446  -5.455   5.542  0.00  0.00    +0.015 A 
ATOM      9  C   UNL     1       6.956  -4.424   6.279  0.00  0.00    -0.050 A 
ATOM     10  C   UNL     1       6.578  -3.115   6.013  0.00  0.00    +0.007 A 
ATOM     11  C   UNL     1       5.685  -2.830   5.004  0.00  0.00    +0.047 A 
ATOM     12  C   UNL     1       5.153  -3.863   4.239  0.00  0.00    +0.136 A 
ATOM     13  O   UNL     1       4.286  -3.896   3.208  0.00  0.00    -0.450 OA
ATOM     14  C   UNL     1       7.934  -4.710   7.389  0.00  0.00    +0.044 C 
ATOM     15  C   UNL     1       4.877  -7.519   3.422  0.00  0.00    +0.048 C 
ENDBRANCH   2   5
BRANCH   1  16
ATOM     16  N   UNL     1       1.651  -4.999  -0.034  0.00  0.00    -0.108 NA
ATOM     17  H   UNL     1       1.993  -5.536  -0.767  0.00  0.00    +0.172 HD
BRANCH  16  18
ATOM     18  S   UNL     1       0.063  -4.530  -0.023  0.00  0.00    +0.074 S 
ATOM     19  O   UNL     1      -0.476  -4.950   1.223  0.00  0.00    -0.152 OA
ATOM     20  O   UNL     1      -0.490  -4.937  -1.267  0.00  0.00    -0.152 OA
BRANCH  18  25
ATOM     21  C   UNL     1      -0.018   1.503   0.010  0.00  0.00    +0.044 C 
ATOM     22  C   UNL     1       0.002  -0.004   0.002  0.00  0.00    -0.050 A 
ATOM     23  C   UNL     1       0.006  -0.689  -1.199  0.00  0.00    +0.005 A 
ATOM     24  C   UNL     1       0.025  -2.071  -1.206  0.00  0.00    +0.029 A 
ATOM     25  C   UNL     1       0.040  -2.768  -0.013  0.00  0.00    +0.107 A 
ATOM     26  C   UNL     1       0.037  -2.084   1.188  0.00  0.00    +0.029 A 
ATOM     27  C   UNL     1       0.023  -0.702   1.195  0.00  0.00    +0.005 A 
ENDBRANCH  18  25
ENDBRANCH  16  18
ENDBRANCH   1  16
TORSDOF 4
