REMARK  Name = ZINC32850751
REMARK  7 active torsions:
REMARK  status: ('A' for Active; 'I' for Inactive)
REMARK    1  A    between atoms: C_1  and  C_2
REMARK    2  A    between atoms: C_3  and  C_27
REMARK    3  A    between atoms: C_4  and  C_26
REMARK    4  A    between atoms: C_7  and  C_8
REMARK    5  A    between atoms: C_14  and  C_16
REMARK    6  A    between atoms: C_27  and  O_29
REMARK    7  A    between atoms: O_29  and  C_30
REMARK                            x       y       z     vdW  Elec       q    Type
REMARK                         _______ _______ _______ _____ _____    ______ ____
ROOT
ATOM      1  C   UNL     1       2.194  -0.100   2.195  0.00  0.00    +0.264 C 
ATOM      2  O   UNL     1       1.921   0.961   2.724  0.00  0.00    -0.268 OA
ATOM      3  N   UNL     1       2.643  -0.124   0.924  0.00  0.00    -0.289 N 
ATOM      4  C   UNL     1       3.118  -1.319   0.202  0.00  0.00    +0.109 C 
ATOM      5  C   UNL     1       4.058  -0.769  -0.899  0.00  0.00    +0.021 C 
ATOM      6  C   UNL     1       3.327   0.538  -1.309  0.00  0.00    +0.029 C 
ATOM      7  C   UNL     1       2.738   1.038   0.027  0.00  0.00    +0.107 C 
ENDROOT
BRANCH   7   8
ATOM      8  C   UNL     1       1.368   1.621  -0.203  0.00  0.00    -0.023 A 
ATOM      9  C   UNL     1       0.281   0.784  -0.373  0.00  0.00    +0.009 A 
ATOM     10  C   UNL     1      -0.976   1.316  -0.591  0.00  0.00    +0.050 A 
ATOM     11  C   UNL     1      -1.152   2.691  -0.629  0.00  0.00    +0.162 A 
ATOM     12  C   UNL     1      -0.059   3.533  -0.457  0.00  0.00    +0.162 A 
ATOM     13  C   UNL     1       1.201   2.992  -0.245  0.00  0.00    +0.055 A 
ATOM     14  O   UNL     1      -0.210   4.885  -0.488  0.00  0.00    -0.485 OA
ATOM     15  C   UNL     1      -1.418   5.385  -1.072  0.00  0.00    +0.270 C 
ATOM     16  C   UNL     1      -2.595   4.577  -0.508  0.00  0.00    +0.270 C 
ATOM     17  O   UNL     1      -2.395   3.200  -0.846  0.00  0.00    -0.485 OA
ENDBRANCH   7   8
BRANCH   1  24
ATOM     18  C   UNL     1       1.472  -0.327   5.221  0.00  0.00    +0.047 C 
ATOM     19  C   UNL     1       1.720  -1.464   4.262  0.00  0.00    -0.006 A 
ATOM     20  C   UNL     1       1.666  -2.844   4.562  0.00  0.00    +0.083 A 
ATOM     21  C   UNL     1       1.964  -3.524   3.396  0.00  0.00    +0.028 A 
ATOM     22  N   UNL     1       2.185  -2.624   2.425  0.00  0.00    -0.354 N 
ATOM     23  H   UNL     1       2.439  -2.962   1.409  0.00  0.00    +0.166 HD
ATOM     24  C   UNL     1       2.035  -1.355   2.940  0.00  0.00    +0.106 A 
ATOM     25  C   UNL     1       2.030  -5.022   3.241  0.00  0.00    +0.064 C 
BRANCH  20  26
ATOM     26  C   UNL     1       1.358  -3.443   5.871  0.00  0.00    +0.341 C 
ATOM     27  O   UNL     1       2.253  -3.672   6.661  0.00  0.00    -0.245 OA
BRANCH  26  28
ATOM     28  O   UNL     1       0.083  -3.739   6.194  0.00  0.00    -0.464 OA
ATOM     29  C   UNL     1      -0.146  -4.328   7.501  0.00  0.00    +0.280 C 
ENDBRANCH  26  28
ENDBRANCH  20  26
ENDBRANCH   1  24
TORSDOF 4
