REMARK  Name = ZINC05303360
REMARK  3 active torsions:
REMARK  status: ('A' for Active; 'I' for Inactive)
REMARK    1  A    between atoms: C_1  and  C_2
REMARK    2  A    between atoms: C_4  and  C_16
REMARK    3  A    between atoms: C_4  and  C_17
REMARK                            x       y       z     vdW  Elec       q    Type
REMARK                         _______ _______ _______ _____ _____    ______ ____
ROOT
ATOM      1  C   UNL     1      -0.051   1.525  -0.028  0.00  0.00    +0.079 C 
ATOM      2  C   UNL     1      -0.028  -0.004  -0.034  0.00  0.00    +0.183 C 
ATOM      3  C   UNL     1      -1.431  -0.591   0.156  0.00  0.00    +0.094 C 
ATOM      4  C   UNL     1      -1.910  -0.251   1.571  0.00  0.00    +0.033 C 
ATOM      5  N   UNL     1      -0.946  -0.711   2.568  0.00  0.00    -0.321 N 
ATOM      6  C   UNL     1       0.370  -0.808   2.296  0.00  0.00    +0.141 C 
ATOM      7  S   UNL     1       1.470  -1.266   3.526  0.00  0.00    -0.018 S 
ATOM      8  N   UNL     1       0.815  -0.547   1.060  0.00  0.00    -0.240 N 
ATOM      9  C   UNL     1       2.065  -0.722   0.486  0.00  0.00    +0.081 A 
ATOM     10  C   UNL     1       3.317  -0.877   1.065  0.00  0.00    +0.027 A 
ATOM     11  C   UNL     1       4.396  -1.049   0.208  0.00  0.00    +0.002 A 
ATOM     12  C   UNL     1       4.235  -1.065  -1.163  0.00  0.00    +0.004 A 
ATOM     13  C   UNL     1       2.990  -0.905  -1.755  0.00  0.00    +0.047 A 
ATOM     14  C   UNL     1       1.900  -0.728  -0.911  0.00  0.00    +0.145 A 
ATOM     15  O   UNL     1       0.599  -0.523  -1.221  0.00  0.00    -0.466 OA
ATOM     16  C   UNL     1      -2.079   1.264   1.694  0.00  0.00    +0.031 C 
ATOM     17  C   UNL     1      -3.258  -0.929   1.823  0.00  0.00    +0.031 C 
ATOM     18  H   UNL     1      -1.263  -0.952   3.452  0.00  0.00    +0.148 HD
ENDROOT
TORSDOF 0
