REMARK  Name = ZINC39674399
REMARK  10 active torsions:
REMARK  status: ('A' for Active; 'I' for Inactive)
REMARK    1  A    between atoms: C_1  and  C_2
REMARK    2  A    between atoms: C_2  and  C_3
REMARK    3  A    between atoms: C_3  and  C_5
REMARK    4  A    between atoms: C_3  and  C_11
REMARK    5  A    between atoms: C_15  and  C_24
REMARK    6  A    between atoms: N_26  and  C_27
REMARK    7  A    between atoms: C_27  and  C_29
REMARK    8  A    between atoms: C_27  and  C_30
REMARK    9  A    between atoms: C_31  and  C_37
REMARK   10  A    between atoms: C_34  and  C_36
REMARK                            x       y       z     vdW  Elec       q    Type
REMARK                         _______ _______ _______ _____ _____    ______ ____
ROOT
ATOM      1  C   UNL     1      -3.932   0.588  -2.304  0.00  0.00    +0.223 C 
ATOM      2  O   UNL     1      -4.630  -0.026  -3.082  0.00  0.00    -0.275 OA
ATOM      3  N   UNL     1      -3.674   1.894  -2.516  0.00  0.00    -0.300 N 
ATOM      4  C   UNL     1      -2.935   2.829  -1.635  0.00  0.00    +0.121 C 
ATOM      5  C   UNL     1      -2.098   3.697  -2.602  0.00  0.00    +0.100 C 
ATOM      6  C   UNL     1      -2.846   3.623  -3.943  0.00  0.00    -0.004 C 
ATOM      7  C   UNL     1      -4.060   2.718  -3.686  0.00  0.00    +0.115 C 
ATOM      8  C   UNL     1      -1.952   3.004  -5.013  0.00  0.00    -0.010 C 
ATOM      9  C   UNL     1      -2.698   2.994  -6.351  0.00  0.00    -0.082 C 
ATOM     10  N   UNL     1      -3.061   4.367  -6.722  0.00  0.00    +0.379 N 
ATOM     11  C   UNL     1      -3.995   4.922  -5.735  0.00  0.00    -0.082 C 
ATOM     12  C   UNL     1      -3.304   5.014  -4.371  0.00  0.00    -0.010 C 
ATOM     13  H   UNL     1      -2.228   4.936  -6.753  0.00  0.00    -0.086 HD
ATOM     14  H   UNL     1      -3.497   4.364  -7.631  0.00  0.00    -0.086 HD
ENDROOT
BRANCH   5  15
ATOM     15  C   UNL     1      -2.038   5.120  -2.110  0.00  0.00    +0.219 C 
ATOM     16  O   UNL     1      -2.928   5.559  -1.413  0.00  0.00    -0.275 OA
ATOM     17  N   UNL     1      -0.995   5.905  -2.444  0.00  0.00    -0.309 N 
ATOM     18  H   UNL     1      -0.283   5.554  -3.002  0.00  0.00    +0.149 HD
BRANCH  17  19
ATOM     19  C   UNL     1      -0.936   7.288  -1.966  0.00  0.00    +0.100 C 
ATOM     20  C   UNL     1      -0.250   7.327  -0.599  0.00  0.00    +0.033 C 
BRANCH  19  21
ATOM     21  C   UNL     1      -0.152   8.125  -2.945  0.00  0.00    -0.001 C 
ATOM     22  C   UNL     1      -0.555   9.214  -3.603  0.00  0.00    +0.063 C 
ATOM     23  N   UNL     1       0.432   9.690  -4.393  0.00  0.00    -0.159 NA
ATOM     24  N   UNL     1       1.480   9.041  -4.351  0.00  0.00    -0.180 NA
ATOM     25  C   UNL     1       1.281   7.929  -3.406  0.00  0.00    +0.154 C 
ATOM     26  C   UNL     1       1.441   6.583  -4.117  0.00  0.00    +0.039 C 
ATOM     27  C   UNL     1      -1.925   9.830  -3.480  0.00  0.00    +0.067 C 
ENDBRANCH  19  21
ENDBRANCH  17  19
ENDBRANCH   5  15
BRANCH   1  28
ATOM     28  C   UNL     1      -3.353  -0.108  -1.099  0.00  0.00    +0.105 C 
BRANCH  28  29
ATOM     29  C   UNL     1      -4.353  -0.076   0.028  0.00  0.00    -0.036 A 
ATOM     30  C   UNL     1      -5.592  -0.668  -0.130  0.00  0.00    +0.004 A 
ATOM     31  C   UNL     1      -6.509  -0.639   0.904  0.00  0.00    +0.000 A 
ATOM     32  C   UNL     1      -6.186  -0.019   2.096  0.00  0.00    +0.000 A 
ATOM     33  C   UNL     1      -4.947   0.572   2.255  0.00  0.00    +0.000 A 
ATOM     34  C   UNL     1      -4.028   0.539   1.222  0.00  0.00    +0.004 A 
ENDBRANCH  28  29
BRANCH  28  36
ATOM     35  C   UNL     1      -1.913  -1.595  -2.499  0.00  0.00    +0.005 C 
ATOM     36  C   UNL     1      -3.032  -1.561  -1.455  0.00  0.00    +0.014 C 
ENDBRANCH  28  36
ENDBRANCH   1  28
TORSDOF 6
