REMARK  Name = ZINC12034312
REMARK  7 active torsions:
REMARK  status: ('A' for Active; 'I' for Inactive)
REMARK    1  A    between atoms: C_1  and  C_2
REMARK    2  A    between atoms: C_2  and  C_34
REMARK    3  A    between atoms: C_7  and  C_11
REMARK    4  A    between atoms: C_11  and  N_70
REMARK    5  A    between atoms: C_14  and  C_17
REMARK    6  A    between atoms: C_17  and  C_33
REMARK    7  A    between atoms: N_20  and  C_24
REMARK                            x       y       z     vdW  Elec       q    Type
REMARK                         _______ _______ _______ _____ _____    ______ ____
ROOT
ATOM      1  C   UNL     1      -5.567   0.276   0.748  0.00  0.00    +0.112 C 
ATOM      2  C   UNL     1      -4.517   0.149  -0.337  0.00  0.00    +0.247 C 
ATOM      3  O   UNL     1      -4.705   0.048  -1.530  0.00  0.00    -0.273 OA
ATOM      4  N   UNL     1      -3.330   0.172   0.301  0.00  0.00    -0.221 N 
ATOM      5  C   UNL     1      -3.483   0.301   1.623  0.00  0.00    +0.310 C 
ATOM      6  O   UNL     1      -2.557   0.350   2.409  0.00  0.00    -0.252 OA
ATOM      7  N   UNL     1      -4.776   0.371   1.987  0.00  0.00    -0.285 N 
ATOM      8  C   UNL     1      -6.399   1.544   0.542  0.00  0.00    +0.042 C 
ATOM      9  H   UNL     1      -5.120   0.466   2.889  0.00  0.00    +0.151 HD
ENDROOT
BRANCH   4  10
ATOM     10  C   UNL     1      -2.032   0.073  -0.372  0.00  0.00    +0.094 C 
ATOM     11  C   UNL     1      -1.112   1.244   0.030  0.00  0.00    +0.058 C 
ATOM     12  C   UNL     1       0.281   0.655   0.081  0.00  0.00    -0.042 A 
ATOM     13  C   UNL     1       1.519   1.277   0.074  0.00  0.00    +0.004 A 
ATOM     14  C   UNL     1       2.676   0.524   0.122  0.00  0.00    +0.000 A 
ATOM     15  C   UNL     1       2.599  -0.855   0.176  0.00  0.00    +0.000 A 
ATOM     16  C   UNL     1       1.366  -1.477   0.183  0.00  0.00    +0.004 A 
ATOM     17  C   UNL     1       0.205  -0.724   0.135  0.00  0.00    -0.042 A 
ATOM     18  C   UNL     1      -1.246  -1.156   0.130  0.00  0.00    +0.058 C 
ENDBRANCH   4  10
BRANCH   1  21
ATOM     19  C   UNL     1      -8.468  -1.999   1.858  0.00  0.00    -0.078 C 
ATOM     20  C   UNL     1      -7.531  -0.789   1.872  0.00  0.00    -0.013 C 
ATOM     21  C   UNL     1      -6.471  -0.959   0.780  0.00  0.00    +0.018 C 
ATOM     22  C   UNL     1      -7.166  -1.119  -0.575  0.00  0.00    -0.013 C 
ATOM     23  C   UNL     1      -8.114  -2.319  -0.518  0.00  0.00    -0.078 C 
ATOM     24  N   UNL     1      -9.124  -2.083   0.536  0.00  0.00    +0.382 N 
ATOM     25  H   UNL     1      -9.603  -1.196   0.344  0.00  0.00    -0.081 HD
BRANCH  24  26
ATOM     26  C   UNL     1     -10.119  -3.175   0.534  0.00  0.00    -0.047 C 
BRANCH  26  32
ATOM     27  C   UNL     1     -10.426  -6.139  -3.527  0.00  0.00    +0.012 C 
ATOM     28  C   UNL     1     -11.050  -5.049  -2.654  0.00  0.00    -0.025 C 
ATOM     29  C   UNL     1     -11.384  -3.752  -3.419  0.00  0.00    -0.000 C 
ATOM     30  C   UNL     1     -12.334  -2.865  -2.602  0.00  0.00    +0.031 C 
ATOM     31  C   UNL     1     -11.792  -2.694  -1.203  0.00  0.00    -0.029 C 
ATOM     32  C   UNL     1     -10.691  -3.317  -0.853  0.00  0.00    -0.086 C 
ATOM     33  C   UNL     1     -10.018  -4.191  -1.897  0.00  0.00    +0.019 C 
ATOM     34  C   UNL     1      -9.904  -3.387  -3.216  0.00  0.00    +0.012 C 
ATOM     35  C   UNL     1     -12.192  -5.562  -1.776  0.00  0.00    +0.012 C 
ENDBRANCH  26  32
ENDBRANCH  24  26
ENDBRANCH   1  21
TORSDOF 4
