REMARK  Name = ZINC59008624
REMARK  6 active torsions:
REMARK  status: ('A' for Active; 'I' for Inactive)
REMARK    1  A    between atoms: C_3  and  O_10
REMARK    2  A    between atoms: C_6  and  N_7
REMARK    3  A    between atoms: O_10  and  C_11
REMARK    4  A    between atoms: C_11  and  C_12
REMARK    5  A    between atoms: C_12  and  C_13
REMARK    6  A    between atoms: C_13  and  N_14
REMARK                            x       y       z     vdW  Elec       q    Type
REMARK                         _______ _______ _______ _____ _____    ______ ____
ROOT
ATOM      1  N   UNL     1       8.398   2.374  -0.067  0.00  0.00    -0.224 N 
ATOM      2  C   UNL     1       8.978   2.895  -1.171  0.00  0.00    +0.246 C 
ATOM      3  O   UNL     1       8.513   3.007  -2.279  0.00  0.00    -0.273 OA
ATOM      4  C   UNL     1      10.377   3.272  -0.714  0.00  0.00    +0.113 C 
ATOM      5  C   UNL     1      11.256   2.025  -0.770  0.00  0.00    +0.035 C 
ATOM      6  C   UNL     1      12.742   2.378  -0.718  0.00  0.00    +0.003 C 
ATOM      7  C   UNL     1      13.248   2.604   0.719  0.00  0.00    +0.000 C 
ATOM      8  C   UNL     1      12.775   3.992   1.187  0.00  0.00    +0.000 C 
ATOM      9  C   UNL     1      12.952   5.006   0.056  0.00  0.00    +0.000 C 
ATOM     10  C   UNL     1      11.607   5.453  -0.506  0.00  0.00    +0.003 C 
ATOM     11  C   UNL     1      10.978   4.440  -1.461  0.00  0.00    +0.035 C 
ATOM     12  N   UNL     1      10.053   3.642   0.680  0.00  0.00    -0.285 N 
ATOM     13  C   UNL     1       9.012   2.846   1.025  0.00  0.00    +0.309 C 
ATOM     14  O   UNL     1       8.688   2.600   2.164  0.00  0.00    -0.252 OA
ATOM     15  H   UNL     1      10.386   4.358   1.219  0.00  0.00    +0.151 HD
ENDROOT
BRANCH   1  16
ATOM     16  C   UNL     1       7.252   1.471  -0.060  0.00  0.00    +0.121 C 
BRANCH  16  17
ATOM     17  C   UNL     1       5.958   2.288  -0.043  0.00  0.00    +0.060 C 
BRANCH  17  18
ATOM     18  C   UNL     1       4.756   1.341  -0.037  0.00  0.00    +0.230 C 
BRANCH  18  19
ATOM     19  O   UNL     1       3.548   2.104  -0.021  0.00  0.00    -0.492 OA
BRANCH  19  22
ATOM     20  C   UNL     1      -0.017   1.378   0.010  0.00  0.00    +0.036 A 
ATOM     21  C   UNL     1       1.169   2.087   0.002  0.00  0.00    +0.048 A 
ATOM     22  C   UNL     1       2.380   1.409  -0.013  0.00  0.00    +0.121 A 
ATOM     23  C   UNL     1       2.396   0.022  -0.021  0.00  0.00    +0.048 A 
ATOM     24  C   UNL     1       1.207  -0.681  -0.013  0.00  0.00    +0.036 A 
ATOM     25  C   UNL     1       0.002  -0.004   0.002  0.00  0.00    +0.126 A 
BRANCH  25  26
ATOM     26  N   UNL     1      -1.270  -0.760   0.011  0.00  0.00    +0.056 N 
ATOM     27  O   UNL     1      -2.325  -0.169   0.024  0.00  0.00    -0.126 OA
ATOM     28  O   UNL     1      -1.255  -1.969   0.004  0.00  0.00    -0.126 OA
ENDBRANCH  25  26
ENDBRANCH  19  22
ENDBRANCH  18  19
ENDBRANCH  17  18
ENDBRANCH  16  17
ENDBRANCH   1  16
TORSDOF 6
