REMARK  Name = ZINC13051866
REMARK  9 active torsions:
REMARK  status: ('A' for Active; 'I' for Inactive)
REMARK    1  A    between atoms: C_1  and  C_2
REMARK    2  A    between atoms: C_2  and  C_4
REMARK    3  A    between atoms: C_2  and  O_33
REMARK    4  A    between atoms: C_4  and  N_5
REMARK    5  A    between atoms: C_11  and  C_31
REMARK    6  A    between atoms: C_15  and  S_16
REMARK    7  A    between atoms: S_16  and  C_17
REMARK    8  A    between atoms: C_17  and  C_19
REMARK    9  A    between atoms: C_17  and  C_20
REMARK                            x       y       z     vdW  Elec       q    Type
REMARK                         _______ _______ _______ _____ _____    ______ ____
ROOT
ATOM      1  N   UNL     1       0.328  -6.775   0.536  0.00  0.00    -0.285 N 
ATOM      2  C   UNL     1       1.446  -7.535   0.478  0.00  0.00    +0.262 A 
ATOM      3  O   UNL     1       1.414  -8.724   0.734  0.00  0.00    -0.267 OA
ATOM      4  C   UNL     1       2.702  -6.870   0.095  0.00  0.00    +0.065 A 
ATOM      5  C   UNL     1       3.904  -7.572   0.007  0.00  0.00    +0.016 A 
ATOM      6  C   UNL     1       5.048  -6.919  -0.351  0.00  0.00    +0.016 A 
ATOM      7  C   UNL     1       5.027  -5.547  -0.635  0.00  0.00    +0.065 A 
ATOM      8  C   UNL     1       3.841  -4.829  -0.554  0.00  0.00    +0.043 A 
ATOM      9  C   UNL     1       2.663  -5.486  -0.188  0.00  0.00    +0.080 A 
ATOM     10  N   UNL     1       1.484  -4.828  -0.101  0.00  0.00    -0.223 NA
ATOM     11  C   UNL     1       0.380  -5.441   0.248  0.00  0.00    +0.173 A 
ENDROOT
BRANCH   7  12
ATOM     12  C   UNL     1       6.278  -4.858  -1.022  0.00  0.00    +0.387 C 
ATOM     13  O   UNL     1       6.265  -3.669  -1.269  0.00  0.00    -0.241 OA
ATOM     14  O   UNL     1       7.431  -5.550  -1.102  0.00  0.00    -0.241 OA
ENDBRANCH   7  12
BRANCH   1  15
ATOM     15  C   UNL     1      -0.948  -7.388   0.913  0.00  0.00    +0.158 C 
BRANCH  15  17
ATOM     16  C   UNL     1      -2.995  -8.531   0.050  0.00  0.00    +0.039 C 
ATOM     17  C   UNL     1      -1.663  -7.891  -0.343  0.00  0.00    +0.131 C 
BRANCH  17  18
ATOM     18  O   UNL     1      -1.903  -6.794  -1.226  0.00  0.00    -0.390 OA
ATOM     19  H   UNL     1      -2.454  -6.096  -0.845  0.00  0.00    +0.210 HD
ENDBRANCH  17  18
ENDBRANCH  15  17
ENDBRANCH   1  15
BRANCH  11  20
ATOM     20  S   UNL     1      -1.109  -4.503   0.341  0.00  0.00    -0.075 S 
BRANCH  20  21
ATOM     21  C   UNL     1      -0.481  -2.870  -0.123  0.00  0.00    +0.137 C 
ATOM     22  C   UNL     1       0.012  -2.905  -1.571  0.00  0.00    +0.029 C 
BRANCH  21  23
ATOM     23  C   UNL     1      -1.585  -1.852   0.008  0.00  0.00    +0.233 C 
ATOM     24  O   UNL     1      -2.743  -2.198  -0.087  0.00  0.00    -0.274 OA
ATOM     25  N   UNL     1      -1.284  -0.557   0.230  0.00  0.00    -0.270 N 
ATOM     26  C   UNL     1       0.065  -0.036   0.466  0.00  0.00    +0.118 C 
ATOM     27  C   UNL     1      -0.115   1.478   0.657  0.00  0.00    +0.056 C 
ATOM     28  C   UNL     1      -1.603   1.706   0.517  0.00  0.00    -0.024 A 
ATOM     29  C   UNL     1      -2.214   0.486   0.269  0.00  0.00    +0.040 A 
ATOM     30  C   UNL     1      -3.599   0.445   0.097  0.00  0.00    +0.024 A 
ATOM     31  C   UNL     1      -4.344   1.602   0.174  0.00  0.00    +0.002 A 
ATOM     32  C   UNL     1      -3.725   2.813   0.423  0.00  0.00    +0.000 A 
ATOM     33  C   UNL     1      -2.354   2.862   0.593  0.00  0.00    +0.005 A 
ENDBRANCH  21  23
ENDBRANCH  20  21
ENDBRANCH  11  20
TORSDOF 7
