REMARK  Name = ZINC12373389
REMARK  7 active torsions:
REMARK  status: ('A' for Active; 'I' for Inactive)
REMARK    1  A    between atoms: C_1  and  S_2
REMARK    2  A    between atoms: S_2  and  C_3
REMARK    3  A    between atoms: C_7  and  C_9
REMARK    4  A    between atoms: C_9  and  N_53
REMARK    5  A    between atoms: C_14  and  C_16
REMARK    6  A    between atoms: N_18  and  C_19
REMARK    7  A    between atoms: C_22  and  N_25
REMARK                            x       y       z     vdW  Elec       q    Type
REMARK                         _______ _______ _______ _____ _____    ______ ____
ROOT
ATOM      1  C   UNL     1      -9.765  -3.111  -0.082  0.00  0.00    -0.077 C 
ATOM      2  C   UNL     1     -10.419  -2.643  -1.384  0.00  0.00    -0.019 C 
ATOM      3  C   UNL     1     -10.106  -1.160  -1.602  0.00  0.00    -0.003 C 
ATOM      4  C   UNL     1      -8.587  -0.967  -1.632  0.00  0.00    -0.006 C 
ATOM      5  C   UNL     1      -7.987  -1.483  -0.323  0.00  0.00    +0.020 C 
ATOM      6  N   UNL     1      -8.303  -2.921  -0.184  0.00  0.00    +0.390 N 
ATOM      7  H   UNL     1      -7.959  -3.419  -1.013  0.00  0.00    -0.080 HD
ENDROOT
BRANCH   5   8
ATOM      8  C   UNL     1      -6.489  -1.312  -0.355  0.00  0.00    +0.204 C 
ATOM      9  O   UNL     1      -5.787  -2.204  -0.782  0.00  0.00    -0.277 OA
ATOM     10  N   UNL     1      -5.932  -0.169   0.090  0.00  0.00    -0.287 N 
ATOM     11  H   UNL     1      -6.486   0.513   0.500  0.00  0.00    +0.155 HD
BRANCH  10  12
ATOM     12  C   UNL     1      -4.553   0.034  -0.040  0.00  0.00    +0.033 A 
ATOM     13  C   UNL     1      -3.861   0.748   0.930  0.00  0.00    +0.025 A 
ATOM     14  C   UNL     1      -2.502   0.948   0.802  0.00  0.00    +0.030 A 
ATOM     15  C   UNL     1      -1.825   0.435  -0.297  0.00  0.00    +0.069 A 
ATOM     16  C   UNL     1      -2.517  -0.274  -1.270  0.00  0.00    +0.030 A 
ATOM     17  C   UNL     1      -3.876  -0.479  -1.139  0.00  0.00    +0.025 A 
BRANCH  15  18
ATOM     18  N   UNL     1      -0.443   0.639  -0.428  0.00  0.00    -0.200 N 
ATOM     19  C   UNL     1       0.358   0.211  -1.427  0.00  0.00    +0.250 A 
ATOM     20  N   UNL     1       1.569   0.625  -1.157  0.00  0.00    -0.116 NA
ATOM     21  N   UNL     1       1.589   1.280  -0.053  0.00  0.00    -0.023 NA
ATOM     22  N   UNL     1       0.405   1.332   0.455  0.00  0.00    -0.039 NA
ENDBRANCH  15  18
ENDBRANCH  10  12
ENDBRANCH   5   8
BRANCH   6  23
ATOM     23  C   UNL     1      -7.637  -3.470   1.015  0.00  0.00    -0.042 C 
BRANCH  23  28
ATOM     24  C   UNL     1      -9.572  -6.509   2.163  0.00  0.00    +0.008 A 
ATOM     25  C   UNL     1      -8.861  -7.534   1.549  0.00  0.00    +0.015 A 
ATOM     26  C   UNL     1      -7.761  -7.238   0.769  0.00  0.00    +0.001 A 
ATOM     27  C   UNL     1      -7.367  -5.923   0.597  0.00  0.00    +0.002 A 
ATOM     28  C   UNL     1      -8.072  -4.901   1.206  0.00  0.00    -0.063 A 
ATOM     29  C   UNL     1      -9.169  -5.190   1.992  0.00  0.00    +0.016 A 
BRANCH  24  31
ATOM     30  C   UNL     1     -11.098  -8.690   3.087  0.00  0.00    +0.090 C 
ATOM     31  S   UNL     1     -10.976  -6.882   3.160  0.00  0.00    -0.129 S 
ENDBRANCH  24  31
ENDBRANCH  23  28
ENDBRANCH   6  23
TORSDOF 6
