REMARK  Name = ZINC39675930
REMARK  10 active torsions:
REMARK  status: ('A' for Active; 'I' for Inactive)
REMARK    1  A    between atoms: C_1  and  C_2
REMARK    2  A    between atoms: C_7  and  C_8
REMARK    3  A    between atoms: C_8  and  C_9
REMARK    4  A    between atoms: C_13  and  C_22
REMARK    5  A    between atoms: N_24  and  C_25
REMARK    6  A    between atoms: C_25  and  C_26
REMARK    7  A    between atoms: C_26  and  C_28
REMARK    8  A    between atoms: C_26  and  N_34
REMARK    9  A    between atoms: N_34  and  C_35
REMARK   10  A    between atoms: N_34  and  C_36
REMARK                            x       y       z     vdW  Elec       q    Type
REMARK                         _______ _______ _______ _____ _____    ______ ____
ROOT
ATOM      1  C   UNL     1      -1.549   1.696   2.035  0.00  0.00    +0.220 C 
ATOM      2  O   UNL     1      -2.479   1.589   1.264  0.00  0.00    -0.275 OA
ATOM      3  N   UNL     1      -1.745   2.227   3.258  0.00  0.00    -0.300 N 
ATOM      4  C   UNL     1      -0.741   2.443   4.326  0.00  0.00    +0.121 C 
ATOM      5  C   UNL     1      -1.116   3.809   4.944  0.00  0.00    +0.100 C 
ATOM      6  C   UNL     1      -2.609   3.988   4.622  0.00  0.00    -0.004 C 
ATOM      7  C   UNL     1      -3.013   2.732   3.836  0.00  0.00    +0.115 C 
ATOM      8  C   UNL     1      -2.819   5.231   3.763  0.00  0.00    -0.010 C 
ATOM      9  C   UNL     1      -4.317   5.420   3.504  0.00  0.00    -0.082 C 
ATOM     10  N   UNL     1      -5.022   5.560   4.784  0.00  0.00    +0.379 N 
ATOM     11  C   UNL     1      -4.892   4.325   5.565  0.00  0.00    -0.082 C 
ATOM     12  C   UNL     1      -3.419   4.089   5.911  0.00  0.00    -0.010 C 
ATOM     13  H   UNL     1      -4.624   6.329   5.303  0.00  0.00    -0.086 HD
ATOM     14  H   UNL     1      -5.998   5.745   4.609  0.00  0.00    -0.086 HD
ENDROOT
BRANCH   5  15
ATOM     15  C   UNL     1      -0.897   3.789   6.435  0.00  0.00    +0.218 C 
ATOM     16  O   UNL     1      -1.031   2.754   7.053  0.00  0.00    -0.275 OA
ATOM     17  N   UNL     1      -0.551   4.920   7.080  0.00  0.00    -0.316 N 
ATOM     18  H   UNL     1      -0.443   5.747   6.585  0.00  0.00    +0.149 HD
BRANCH  17  19
ATOM     19  C   UNL     1      -0.338   4.900   8.530  0.00  0.00    +0.093 C 
BRANCH  19  20
ATOM     20  C   UNL     1      -0.079   6.324   9.026  0.00  0.00    -0.021 C 
BRANCH  20  21
ATOM     21  C   UNL     1      -1.308   7.166   8.800  0.00  0.00    -0.059 A 
ATOM     22  C   UNL     1      -2.368   7.093   9.684  0.00  0.00    +0.002 A 
ATOM     23  C   UNL     1      -3.496   7.865   9.477  0.00  0.00    +0.000 A 
ATOM     24  C   UNL     1      -3.563   8.711   8.386  0.00  0.00    +0.000 A 
ATOM     25  C   UNL     1      -2.502   8.785   7.502  0.00  0.00    +0.000 A 
ATOM     26  C   UNL     1      -1.373   8.016   7.712  0.00  0.00    +0.002 A 
ENDBRANCH  20  21
BRANCH  20  27
ATOM     27  N   UNL     1       0.236   6.292  10.461  0.00  0.00    +0.382 N 
ATOM     28  C   UNL     1       1.458   5.506  10.677  0.00  0.00    -0.096 C 
ATOM     29  C   UNL     1       0.443   7.663  10.947  0.00  0.00    -0.096 C 
ATOM     30  H   UNL     1      -0.529   5.869  10.964  0.00  0.00    -0.082 HD
ENDBRANCH  20  27
ENDBRANCH  19  20
ENDBRANCH  17  19
ENDBRANCH   5  15
BRANCH   1  31
ATOM     31  C   UNL     1      -0.174   1.234   1.626  0.00  0.00    +0.131 C 
BRANCH  31  38
ATOM     32  C   UNL     1       0.055   3.020  -0.634  0.00  0.00    +0.044 C 
ATOM     33  C   UNL     1      -0.116   1.540  -0.858  0.00  0.00    -0.047 A 
ATOM     34  C   UNL     1      -0.157   1.035  -2.144  0.00  0.00    +0.003 A 
ATOM     35  C   UNL     1      -0.313  -0.323  -2.350  0.00  0.00    +0.000 A 
ATOM     36  C   UNL     1      -0.428  -1.177  -1.268  0.00  0.00    +0.000 A 
ATOM     37  C   UNL     1      -0.386  -0.672   0.018  0.00  0.00    +0.004 A 
ATOM     38  C   UNL     1      -0.225   0.685   0.223  0.00  0.00    -0.036 A 
ENDBRANCH  31  38
ENDBRANCH   1  31
TORSDOF 7
