REMARK  Name = ZINC63362412
REMARK  5 active torsions:
REMARK  status: ('A' for Active; 'I' for Inactive)
REMARK    1  A    between atoms: C_1  and  C_2
REMARK    2  A    between atoms: C_2  and  C_4
REMARK    3  A    between atoms: C_2  and  N_14
REMARK    4  A    between atoms: N_6  and  C_7
REMARK    5  A    between atoms: C_17  and  C_33
REMARK                            x       y       z     vdW  Elec       q    Type
REMARK                         _______ _______ _______ _____ _____    ______ ____
ROOT
ATOM      1  N   UNL     1      -1.372  -0.511   0.012  0.00  0.00    -0.212 N 
ATOM      2  C   UNL     1      -1.898  -1.296  -0.951  0.00  0.00    +0.249 C 
ATOM      3  O   UNL     1      -1.355  -1.671  -1.968  0.00  0.00    -0.273 OA
ATOM      4  C   UNL     1      -3.306  -1.611  -0.497  0.00  0.00    +0.136 C 
ATOM      5  C   UNL     1      -4.326  -1.127  -1.527  0.00  0.00    +0.139 C 
ATOM      6  C   UNL     1      -5.078   0.041  -0.906  0.00  0.00    -0.034 C 
ATOM      7  C   UNL     1      -4.937   1.063  -1.747  0.00  0.00    -0.001 A 
ATOM      8  C   UNL     1      -5.486   2.428  -1.725  0.00  0.00    +0.010 A 
ATOM      9  C   UNL     1      -5.124   3.235  -2.758  0.00  0.00    +0.001 A 
ATOM     10  C   UNL     1      -4.282   2.825  -3.796  0.00  0.00    +0.002 A 
ATOM     11  C   UNL     1      -3.736   1.587  -3.897  0.00  0.00    +0.026 A 
ATOM     12  C   UNL     1      -4.046   0.647  -2.872  0.00  0.00    +0.043 A 
ATOM     13  N   UNL     1      -3.679  -0.607  -2.733  0.00  0.00    -0.375 N 
ATOM     14  C   UNL     1      -5.757  -0.022   0.440  0.00  0.00    +0.052 C 
ATOM     15  C   UNL     1      -4.721  -0.572   1.441  0.00  0.00    +0.115 C 
ATOM     16  N   UNL     1      -3.464  -0.785   0.718  0.00  0.00    -0.269 N 
ATOM     17  C   UNL     1      -2.261  -0.257   0.983  0.00  0.00    +0.313 C 
ATOM     18  O   UNL     1      -2.006   0.381   1.985  0.00  0.00    -0.252 OA
ATOM     19  C   UNL     1      -3.471  -3.100  -0.186  0.00  0.00    +0.044 C 
ATOM     20  H   UNL     1      -3.085  -1.104  -3.317  0.00  0.00    +0.160 HD
ENDROOT
BRANCH   1  22
ATOM     21  C   UNL     1      -0.019   1.526   0.010  0.00  0.00    +0.038 C 
ATOM     22  C   UNL     1       0.002  -0.004   0.002  0.00  0.00    +0.168 C 
BRANCH  22  23
ATOM     23  C   UNL     1       0.731  -0.503   1.223  0.00  0.00    +0.234 C 
ATOM     24  O   UNL     1       0.159  -1.213   2.023  0.00  0.00    -0.274 OA
ATOM     25  N   UNL     1       2.019  -0.161   1.426  0.00  0.00    -0.311 N 
ATOM     26  H   UNL     1       2.476   0.406   0.786  0.00  0.00    +0.149 HD
BRANCH  25  27
ATOM     27  C   UNL     1       2.727  -0.647   2.613  0.00  0.00    +0.073 C 
ATOM     28  C   UNL     1       2.377   0.261   3.809  0.00  0.00    +0.022 C 
ATOM     29  C   UNL     1       2.662  -0.492   5.080  0.00  0.00    +0.002 C 
ATOM     30  C   UNL     1       4.069  -0.199   5.636  0.00  0.00    +0.000 C 
ATOM     31  C   UNL     1       5.147  -0.146   4.537  0.00  0.00    +0.000 C 
ATOM     32  C   UNL     1       4.976  -1.233   3.510  0.00  0.00    +0.002 C 
ATOM     33  C   UNL     1       4.155  -0.670   2.332  0.00  0.00    +0.022 C 
ENDBRANCH  25  27
ENDBRANCH  22  23
ENDBRANCH   1  22
TORSDOF 3
