REMARK  Name = ZINC07118274
REMARK  9 active torsions:
REMARK  status: ('A' for Active; 'I' for Inactive)
REMARK    1  A    between atoms: C_1  and  C_2
REMARK    2  A    between atoms: C_4  and  C_28
REMARK    3  A    between atoms: C_9  and  C_10
REMARK    4  A    between atoms: C_10  and  N_11
REMARK    5  A    between atoms: C_12  and  C_14
REMARK    6  A    between atoms: C_21  and  C_24
REMARK    7  A    between atoms: C_24  and  C_25
REMARK    8  A    between atoms: C_24  and  C_26
REMARK    9  A    between atoms: C_24  and  C_27
REMARK                            x       y       z     vdW  Elec       q    Type
REMARK                         _______ _______ _______ _____ _____    ______ ____
ROOT
ATOM      1  N   UNL     1      -1.348   0.142   2.992  0.00  0.00    -0.307 N 
ATOM      2  C   UNL     1      -1.592   0.762   4.163  0.00  0.00    +0.251 C 
ATOM      3  O   UNL     1      -0.670   1.228   4.808  0.00  0.00    -0.270 OA
ATOM      4  H   UNL     1      -2.083  -0.230   2.478  0.00  0.00    +0.149 HD
ENDROOT
BRANCH   2   5
ATOM      5  C   UNL     1      -2.966   0.874   4.662  0.00  0.00    +0.074 A 
ATOM      6  C   UNL     1      -3.426   1.468   5.823  0.00  0.00    +0.024 A 
ATOM      7  C   UNL     1      -4.795   1.427   6.046  0.00  0.00    -0.036 A 
ATOM      8  C   UNL     1      -5.552   0.805   5.098  0.00  0.00    -0.006 A 
ATOM      9  S   UNL     1      -4.480   0.287   3.927  0.00  0.00    -0.088 S 
ATOM     10  C   UNL     1      -7.042   0.634   5.110  0.00  0.00    +0.043 C 
ATOM     11  C   UNL     1      -7.632   1.588   6.157  0.00  0.00    +0.009 C 
ATOM     12  C   UNL     1      -6.838   1.442   7.458  0.00  0.00    -0.001 C 
ATOM     13  C   UNL     1      -5.442   2.041   7.284  0.00  0.00    +0.040 C 
BRANCH  12  14
ATOM     14  C   UNL     1      -7.569   2.178   8.584  0.00  0.00    -0.035 C 
ATOM     15  C   UNL     1      -8.963   1.575   8.767  0.00  0.00    +0.011 C 
ATOM     16  C   UNL     1      -6.776   2.033   9.885  0.00  0.00    +0.011 C 
ATOM     17  C   UNL     1      -7.696   3.660   8.227  0.00  0.00    +0.011 C 
ENDBRANCH  12  14
ENDBRANCH   2   5
BRANCH   1  18
ATOM     18  C   UNL     1       0.025   0.030   2.493  0.00  0.00    +0.145 C 
BRANCH  18  27
ATOM     19  C   UNL     1      -0.018   1.503   0.010  0.00  0.00    +0.044 C 
ATOM     20  C   UNL     1       0.002  -0.004   0.002  0.00  0.00    -0.039 A 
ATOM     21  C   UNL     1       0.006  -0.706  -1.212  0.00  0.00    +0.024 A 
ATOM     22  C   UNL     1       0.025  -2.059  -1.209  0.00  0.00    +0.016 A 
ATOM     23  N   UNL     1       0.040  -2.750  -0.040  0.00  0.00    -0.326 N 
ATOM     24  H   UNL     1       0.054  -3.720  -0.057  0.00  0.00    +0.169 HD
ATOM     25  C   UNL     1       0.037  -2.105   1.141  0.00  0.00    +0.254 A 
ATOM     26  O   UNL     1       0.051  -2.740   2.183  0.00  0.00    -0.268 OA
ATOM     27  C   UNL     1       0.023  -0.700   1.175  0.00  0.00    +0.037 A 
ATOM     28  C   UNL     1       0.029  -2.807  -2.517  0.00  0.00    +0.063 C 
ENDBRANCH  18  27
ENDBRANCH   1  18
TORSDOF 4
