REMARK  Name = ZINC36610084
REMARK  13 active torsions:
REMARK  status: ('A' for Active; 'I' for Inactive)
REMARK    1  A    between atoms: C_1  and  C_2
REMARK    2  A    between atoms: C_2  and  C_4
REMARK    3  A    between atoms: C_2  and  C_10
REMARK    4  A    between atoms: C_10  and  C_12
REMARK    5  A    between atoms: C_10  and  N_19
REMARK    6  A    between atoms: N_14  and  C_15
REMARK    7  A    between atoms: C_15  and  C_16
REMARK    8  A    between atoms: C_15  and  C_17
REMARK    9  A    between atoms: C_15  and  C_18
REMARK   10  A    between atoms: N_19  and  C_20
REMARK   11  A    between atoms: C_26  and  C_28
REMARK   12  A    between atoms: C_29  and  O_35
REMARK   13  A    between atoms: C_33  and  O_34
REMARK                            x       y       z     vdW  Elec       q    Type
REMARK                         _______ _______ _______ _____ _____    ______ ____
ROOT
ATOM      1  N   UNL     1       0.558  -1.256   2.036  0.00  0.00    -0.255 N 
ATOM      2  C   UNL     1       0.298  -2.454   2.597  0.00  0.00    +0.259 C 
ATOM      3  O   UNL     1       0.530  -3.477   1.982  0.00  0.00    -0.269 OA
ENDROOT
BRANCH   1   4
ATOM      4  C   UNL     1       0.365  -0.083   2.771  0.00  0.00    +0.037 A 
ATOM      5  C   UNL     1       1.335   0.342   3.670  0.00  0.00    +0.023 A 
ATOM      6  C   UNL     1       1.142   1.502   4.395  0.00  0.00    +0.002 A 
ATOM      7  C   UNL     1      -0.016   2.240   4.226  0.00  0.00    +0.000 A 
ATOM      8  C   UNL     1      -0.983   1.819   3.333  0.00  0.00    +0.002 A 
ATOM      9  C   UNL     1      -0.793   0.664   2.600  0.00  0.00    +0.023 A 
ENDBRANCH   1   4
BRANCH   2  10
ATOM     10  C   UNL     1      -0.266  -2.523   3.955  0.00  0.00    +0.120 A 
ATOM     11  C   UNL     1      -1.645  -2.365   4.156  0.00  0.00    +0.133 A 
ATOM     12  C   UNL     1      -2.165  -2.433   5.439  0.00  0.00    +0.046 A 
ATOM     13  C   UNL     1      -1.330  -2.655   6.518  0.00  0.00    +0.007 A 
ATOM     14  C   UNL     1       0.031  -2.812   6.331  0.00  0.00    +0.046 A 
ATOM     15  C   UNL     1       0.571  -2.753   5.057  0.00  0.00    +0.133 A 
BRANCH  15  16
ATOM     16  O   UNL     1       1.906  -2.913   4.876  0.00  0.00    -0.506 OA
ATOM     17  H   UNL     1       2.413  -2.092   4.939  0.00  0.00    +0.292 HD
ENDBRANCH  15  16
BRANCH  11  18
ATOM     18  O   UNL     1      -2.466  -2.146   3.099  0.00  0.00    -0.506 OA
ATOM     19  H   UNL     1      -2.818  -2.954   2.700  0.00  0.00    +0.292 HD
ENDBRANCH  11  18
ENDBRANCH   2  10
BRANCH   1  20
ATOM     20  C   UNL     1       1.041  -1.185   0.655  0.00  0.00    +0.174 C 
BRANCH  20  21
ATOM     21  C   UNL     1       2.369  -0.473   0.624  0.00  0.00    +0.235 C 
ATOM     22  O   UNL     1       2.654   0.319   1.498  0.00  0.00    -0.274 OA
ATOM     23  N   UNL     1       3.241  -0.716  -0.375  0.00  0.00    -0.309 N 
ATOM     24  H   UNL     1       2.982  -1.284  -1.117  0.00  0.00    +0.149 HD
BRANCH  23  25
ATOM     25  C   UNL     1       4.580  -0.121  -0.339  0.00  0.00    +0.026 C 
ATOM     26  C   UNL     1       5.282  -0.524   0.959  0.00  0.00    +0.031 C 
ATOM     27  C   UNL     1       5.392  -0.622  -1.535  0.00  0.00    +0.031 C 
ATOM     28  C   UNL     1       4.463   1.403  -0.404  0.00  0.00    +0.031 C 
ENDBRANCH  23  25
ENDBRANCH  20  21
BRANCH  20  30
ATOM     29  C   UNL     1       0.598  -0.223  -1.608  0.00  0.00    +0.015 C 
ATOM     30  C   UNL     1       0.031  -0.417  -0.200  0.00  0.00    +0.046 C 
BRANCH  30  31
ATOM     31  C   UNL     1      -1.256  -1.197  -0.280  0.00  0.00    -0.042 A 
ATOM     32  C   UNL     1      -1.236  -2.525  -0.664  0.00  0.00    +0.004 A 
ATOM     33  C   UNL     1      -2.417  -3.240  -0.737  0.00  0.00    +0.000 A 
ATOM     34  C   UNL     1      -3.616  -2.628  -0.425  0.00  0.00    +0.000 A 
ATOM     35  C   UNL     1      -3.636  -1.301  -0.040  0.00  0.00    +0.000 A 
ATOM     36  C   UNL     1      -2.455  -0.586   0.037  0.00  0.00    +0.004 A 
ENDBRANCH  30  31
ENDBRANCH  20  30
ENDBRANCH   1  20
TORSDOF 9
