REMARK  Name = ZINC63723287
REMARK  8 active torsions:
REMARK  status: ('A' for Active; 'I' for Inactive)
REMARK    1  A    between atoms: C_1  and  C_2
REMARK    2  A    between atoms: C_6  and  C_8
REMARK    3  A    between atoms: N_13  and  C_14
REMARK    4  A    between atoms: C_14  and  C_15
REMARK    5  A    between atoms: N_21  and  C_24
REMARK    6  A    between atoms: C_24  and  C_25
REMARK    7  A    between atoms: C_24  and  C_26
REMARK    8  A    between atoms: C_24  and  C_27
REMARK                            x       y       z     vdW  Elec       q    Type
REMARK                         _______ _______ _______ _____ _____    ______ ____
ROOT
ATOM      1  C   UNL     1       1.546  -5.479   2.292  0.00  0.00    +0.221 C 
ENDROOT
BRANCH   1   2
ATOM      2  C   UNL     1       2.933  -5.775   1.781  0.00  0.00    +0.235 C 
ATOM      3  O   UNL     1       3.901  -5.335   2.365  0.00  0.00    -0.274 OA
ATOM      4  N   UNL     1       3.097  -6.527   0.675  0.00  0.00    -0.302 N 
ATOM      5  C   UNL     1       1.900  -7.044  -0.019  0.00  0.00    +0.106 C 
ATOM      6  C   UNL     1       2.054  -6.932  -1.546  0.00  0.00    +0.000 C 
ATOM      7  C   UNL     1       2.725  -5.620  -1.890  0.00  0.00    -0.076 C 
ATOM      8  N   UNL     1       4.167  -5.831  -2.001  0.00  0.00    +0.384 N 
ATOM      9  C   UNL     1       4.882  -5.705  -0.789  0.00  0.00    -0.059 C 
ATOM     10  C   UNL     1       4.441  -6.795   0.206  0.00  0.00    +0.089 C 
ATOM     11  H   UNL     1       4.326  -6.757  -2.369  0.00  0.00    -0.081 HD
BRANCH   8  12
ATOM     12  C   UNL     1       4.705  -4.858  -2.961  0.00  0.00    -0.074 C 
ATOM     13  C   UNL     1       4.328  -3.443  -2.518  0.00  0.00    -0.010 C 
ATOM     14  C   UNL     1       6.229  -4.986  -3.017  0.00  0.00    -0.010 C 
ATOM     15  C   UNL     1       4.119  -5.131  -4.347  0.00  0.00    -0.010 C 
ENDBRANCH   8  12
ENDBRANCH   1   2
BRANCH   1  21
ATOM     16  C   UNL     1       1.605  -3.276   3.563  0.00  0.00    +0.165 A 
ATOM     17  N   UNL     1       1.709  -2.949   4.830  0.00  0.00    -0.128 NA
ATOM     18  N   UNL     1       1.808  -4.009   5.550  0.00  0.00    -0.121 NA
ATOM     19  C   UNL     1       1.772  -5.078   4.786  0.00  0.00    +0.203 A 
ATOM     20  S   UNL     1       1.873  -6.753   5.325  0.00  0.00    -0.009 SA
ATOM     21  N   UNL     1       1.636  -4.649   3.496  0.00  0.00    -0.293 N 
BRANCH  16  27
ATOM     22  C   UNL     1       0.497   1.260   1.803  0.00  0.00    +0.044 C 
ATOM     23  C   UNL     1       0.940  -0.162   1.572  0.00  0.00    -0.050 A 
ATOM     24  C   UNL     1       1.224  -0.597   0.289  0.00  0.00    +0.003 A 
ATOM     25  C   UNL     1       1.630  -1.900   0.069  0.00  0.00    +0.001 A 
ATOM     26  C   UNL     1       1.756  -2.775   1.128  0.00  0.00    +0.011 A 
ATOM     27  C   UNL     1       1.472  -2.343   2.424  0.00  0.00    +0.020 A 
ATOM     28  C   UNL     1       1.067  -1.025   2.640  0.00  0.00    +0.015 A 
ENDBRANCH  16  27
ENDBRANCH   1  21
TORSDOF 4
