REMARK  Name = ZINC04202612
REMARK  5 active torsions:
REMARK  status: ('A' for Active; 'I' for Inactive)
REMARK    1  A    between atoms: C_13  and  C_14
REMARK    2  A    between atoms: C_14  and  O_15
REMARK    3  A    between atoms: O_15  and  C_16
REMARK    4  A    between atoms: C_22  and  O_31
REMARK    5  A    between atoms: C_27  and  C_29
REMARK                            x       y       z     vdW  Elec       q    Type
REMARK                         _______ _______ _______ _____ _____    ______ ____
ROOT
ATOM      1  C   UNL     1      -2.459   2.447  -2.833  0.00  0.00    +0.404 C 
ATOM      2  O   UNL     1      -2.030   1.686  -3.678  0.00  0.00    -0.226 OA
ATOM      3  N   UNL     1      -1.922   2.451  -1.596  0.00  0.00    -0.249 N 
ATOM      4  C   UNL     1      -2.486   3.276  -0.523  0.00  0.00    +0.147 C 
ATOM      5  C   UNL     1      -2.567   2.469   0.749  0.00  0.00    -0.023 A 
ATOM      6  C   UNL     1      -3.286   3.003   1.808  0.00  0.00    +0.050 A 
ATOM      7  C   UNL     1      -3.390   2.314   3.005  0.00  0.00    +0.117 A 
ATOM      8  C   UNL     1      -2.768   1.081   3.142  0.00  0.00    +0.045 A 
ATOM      9  C   UNL     1      -2.058   0.552   2.086  0.00  0.00    +0.007 A 
ATOM     10  C   UNL     1      -1.958   1.242   0.882  0.00  0.00    -0.040 A 
ATOM     11  C   UNL     1      -1.174   0.593  -0.228  0.00  0.00    +0.069 C 
ATOM     12  C   UNL     1      -0.747   1.627  -1.268  0.00  0.00    +0.197 C 
ENDROOT
BRANCH  12  13
ATOM     13  C   UNL     1      -0.251   0.928  -2.508  0.00  0.00    +0.376 C 
ATOM     14  O   UNL     1      -0.840  -0.037  -2.934  0.00  0.00    -0.244 OA
ATOM     15  O   UNL     1       0.846   1.378  -3.139  0.00  0.00    -0.244 OA
ENDBRANCH  12  13
BRANCH   7  16
ATOM     16  O   UNL     1      -4.097   2.842   4.038  0.00  0.00    -0.507 OA
ATOM     17  H   UNL     1      -5.031   2.594   4.043  0.00  0.00    +0.292 HD
ENDBRANCH   7  16
BRANCH   1  18
ATOM     18  O   UNL     1      -3.469   3.285  -3.131  0.00  0.00    -0.449 OA
BRANCH  18  19
ATOM     19  C   UNL     1      -3.998   3.225  -4.482  0.00  0.00    +0.246 C 
BRANCH  19  32
ATOM     20  C   UNL     1      -8.779   3.030  -2.807  0.00  0.00    +0.001 A 
ATOM     21  C   UNL     1      -7.710   3.221  -1.950  0.00  0.00    +0.000 A 
ATOM     22  C   UNL     1      -6.482   3.616  -2.450  0.00  0.00    +0.005 A 
ATOM     23  C   UNL     1      -6.321   3.820  -3.804  0.00  0.00    -0.029 A 
ATOM     24  C   UNL     1      -7.391   3.630  -4.674  0.00  0.00    -0.014 A 
ATOM     25  C   UNL     1      -8.627   3.232  -4.163  0.00  0.00    +0.009 A 
ATOM     26  C   UNL     1      -6.953   3.914  -6.064  0.00  0.00    -0.014 A 
ATOM     27  C   UNL     1      -7.648   3.867  -7.274  0.00  0.00    +0.009 A 
ATOM     28  C   UNL     1      -7.002   4.182  -8.451  0.00  0.00    +0.001 A 
ATOM     29  C   UNL     1      -5.667   4.546  -8.439  0.00  0.00    +0.000 A 
ATOM     30  C   UNL     1      -4.973   4.594  -7.243  0.00  0.00    +0.005 A 
ATOM     31  C   UNL     1      -5.611   4.280  -6.061  0.00  0.00    -0.029 A 
ATOM     32  C   UNL     1      -5.132   4.242  -4.631  0.00  0.00    +0.088 C 
ENDBRANCH  19  32
ENDBRANCH  18  19
ENDBRANCH   1  18
TORSDOF 5
