REMARK  Name = ZINC39361345
REMARK  4 active torsions:
REMARK  status: ('A' for Active; 'I' for Inactive)
REMARK    1  A    between atoms: C_1  and  C_2
REMARK    2  A    between atoms: N_5  and  C_11
REMARK    3  A    between atoms: C_7  and  C_10
REMARK    4  A    between atoms: N_14  and  C_19
REMARK                            x       y       z     vdW  Elec       q    Type
REMARK                         _______ _______ _______ _____ _____    ______ ____
ROOT
ATOM      1  C   UNL     1       2.788   0.521  -2.189  0.00  0.00    +0.074 A 
ATOM      2  C   UNL     1       2.117   0.765  -3.406  0.00  0.00    +0.157 A 
ATOM      3  N   UNL     1       2.722   1.382  -4.381  0.00  0.00    -0.171 NA
ATOM      4  N   UNL     1       4.045   1.817  -4.249  0.00  0.00    -0.186 N 
ATOM      5  C   UNL     1       4.724   1.606  -3.105  0.00  0.00    +0.291 A 
ATOM      6  O   UNL     1       5.879   1.989  -2.996  0.00  0.00    -0.264 OA
ATOM      7  C   UNL     1       4.095   0.949  -2.037  0.00  0.00    +0.129 A 
ATOM      8 CL   UNL     1       4.946   0.671  -0.549  0.00  0.00    -0.076 Cl
ENDROOT
BRANCH   4   9
ATOM      9  C   UNL     1       4.697   2.507  -5.364  0.00  0.00    +0.305 C 
ATOM     10  N   UNL     1       4.668   1.664  -6.566  0.00  0.00    -0.345 N 
ATOM     11  C   UNL     1       4.003   2.308  -7.480  0.00  0.00    +0.062 A 
ATOM     12  C   UNL     1       3.644   1.986  -8.868  0.00  0.00    +0.027 A 
ATOM     13  C   UNL     1       2.929   2.871  -9.592  0.00  0.00    +0.002 A 
ATOM     14  C   UNL     1       2.505   4.107  -9.075  0.00  0.00    +0.002 A 
ATOM     15  C   UNL     1       2.781   4.501  -7.815  0.00  0.00    +0.027 A 
ATOM     16  C   UNL     1       3.554   3.618  -6.932  0.00  0.00    +0.062 A 
ATOM     17  N   UNL     1       3.959   3.732  -5.700  0.00  0.00    -0.345 N 
ATOM     18  H   UNL     1       5.072   0.787  -6.661  0.00  0.00    +0.163 HD
ATOM     19  H   UNL     1       3.802   4.487  -5.112  0.00  0.00    +0.163 HD
ENDBRANCH   4   9
BRANCH   1  23
ATOM     20  C   UNL     1      -0.645  -0.834  -1.876  0.00  0.00    +0.039 C 
ATOM     21  C   UNL     1       0.220  -1.605  -0.877  0.00  0.00    +0.133 C 
ATOM     22  C   UNL     1       1.690  -1.526  -1.305  0.00  0.00    +0.136 C 
ATOM     23  N   UNL     1       2.143  -0.135  -1.154  0.00  0.00    -0.323 N 
ATOM     24  C   UNL     1       1.891   0.539   0.130  0.00  0.00    +0.136 C 
ATOM     25  C   UNL     1       0.412   0.360   0.488  0.00  0.00    +0.133 C 
ATOM     26  O   UNL     1       0.076  -1.029   0.424  0.00  0.00    -0.371 OA
ATOM     27  C   UNL     1       0.162   0.881   1.905  0.00  0.00    +0.039 C 
ENDBRANCH   1  23
TORSDOF 2
