REMARK  Name = ZINC39683225
REMARK  16 active torsions:
REMARK  status: ('A' for Active; 'I' for Inactive)
REMARK    1  A    between atoms: C_1  and  C_2
REMARK    2  A    between atoms: C_2  and  C_3
REMARK    3  A    between atoms: C_2  and  C_4
REMARK    4  A    between atoms: C_4  and  O_5
REMARK    5  A    between atoms: O_5  and  C_6
REMARK    6  A    between atoms: C_6  and  C_7
REMARK    7  A    between atoms: C_7  and  C_8
REMARK    8  A    between atoms: C_8  and  N_9
REMARK    9  A    between atoms: C_10  and  C_12
REMARK   10  A    between atoms: C_23  and  C_25
REMARK   11  A    between atoms: C_27  and  O_35
REMARK   12  A    between atoms: C_28  and  O_33
REMARK   13  A    between atoms: C_29  and  O_31
REMARK   14  A    between atoms: O_31  and  C_32
REMARK   15  A    between atoms: O_33  and  C_34
REMARK   16  A    between atoms: O_35  and  C_36
REMARK                            x       y       z     vdW  Elec       q    Type
REMARK                         _______ _______ _______ _____ _____    ______ ____
ROOT
ATOM      1  C   UNL     1      -4.987  -8.063  -1.086  0.00  0.00    +0.100 C 
ATOM      2  C   UNL     1      -4.271  -8.679  -2.309  0.00  0.00    +0.121 C 
ATOM      3  N   UNL     1      -5.006  -9.936  -2.580  0.00  0.00    -0.296 N 
ATOM      4  C   UNL     1      -6.429  -9.588  -2.347  0.00  0.00    +0.115 C 
ATOM      5  C   UNL     1      -6.403  -8.662  -1.115  0.00  0.00    -0.004 C 
ATOM      6  C   UNL     1      -7.442  -7.555  -1.267  0.00  0.00    -0.010 C 
ATOM      7  C   UNL     1      -8.845  -8.169  -1.234  0.00  0.00    -0.082 C 
ATOM      8  N   UNL     1      -9.040  -8.880   0.035  0.00  0.00    +0.379 N 
ATOM      9  C   UNL     1      -8.097 -10.001   0.131  0.00  0.00    -0.082 C 
ATOM     10  C   UNL     1      -6.663  -9.464   0.156  0.00  0.00    -0.010 C 
ATOM     11  C   UNL     1      -4.498 -11.127  -2.953  0.00  0.00    +0.247 C 
ATOM     12  O   UNL     1      -3.293 -11.292  -2.979  0.00  0.00    -0.270 OA
ATOM     13  H   UNL     1      -8.883  -8.244   0.802  0.00  0.00    -0.086 HD
ATOM     14  H   UNL     1      -9.985  -9.232   0.080  0.00  0.00    -0.086 HD
ENDROOT
BRANCH  11  15
ATOM     15  C   UNL     1      -5.402 -12.231  -3.329  0.00  0.00    +0.044 A 
ATOM     16  C   UNL     1      -6.713 -11.957  -3.726  0.00  0.00    +0.062 A 
ATOM     17  C   UNL     1      -7.559 -12.992  -4.079  0.00  0.00    +0.166 A 
ATOM     18  C   UNL     1      -7.104 -14.308  -4.038  0.00  0.00    +0.204 A 
ATOM     19  C   UNL     1      -5.798 -14.584  -3.643  0.00  0.00    +0.166 A 
ATOM     20  C   UNL     1      -4.947 -13.551  -3.295  0.00  0.00    +0.062 A 
BRANCH  19  21
ATOM     21  O   UNL     1      -5.357 -15.870  -3.604  0.00  0.00    -0.491 OA
ATOM     22  C   UNL     1      -4.006 -16.080  -3.189  0.00  0.00    +0.277 C 
ENDBRANCH  19  21
BRANCH  18  23
ATOM     23  O   UNL     1      -7.937 -15.324  -4.385  0.00  0.00    -0.488 OA
ATOM     24  C   UNL     1      -7.949 -15.713  -5.760  0.00  0.00    +0.277 C 
ENDBRANCH  18  23
BRANCH  17  25
ATOM     25  O   UNL     1      -8.835 -12.726  -4.465  0.00  0.00    -0.491 OA
ATOM     26  C   UNL     1      -9.235 -11.354  -4.482  0.00  0.00    +0.277 C 
ENDBRANCH  17  25
ENDBRANCH  11  15
BRANCH   1  28
ATOM     27  N   UNL     1      -5.050  -5.790  -0.111  0.00  0.00    -0.315 N 
ATOM     28  C   UNL     1      -5.049  -6.562  -1.216  0.00  0.00    +0.218 C 
ATOM     29  O   UNL     1      -5.098  -6.050  -2.313  0.00  0.00    -0.275 OA
ATOM     30  H   UNL     1      -5.011  -6.200   0.767  0.00  0.00    +0.149 HD
BRANCH  27  31
ATOM     31  C   UNL     1      -5.110  -4.332  -0.236  0.00  0.00    +0.106 C 
BRANCH  31  32
ATOM     32  C   UNL     1      -5.098  -3.699   1.157  0.00  0.00    +0.047 C 
BRANCH  32  33
ATOM     33  C   UNL     1      -5.161  -2.176   1.026  0.00  0.00    +0.161 C 
BRANCH  33  34
ATOM     34  O   UNL     1      -5.150  -1.585   2.327  0.00  0.00    -0.379 OA
BRANCH  34  35
ATOM     35  C   UNL     1      -5.206  -0.158   2.317  0.00  0.00    +0.162 C 
BRANCH  35  37
ATOM     36  C   UNL     1      -5.123   1.892   3.744  0.00  0.00    +0.009 C 
ATOM     37  C   UNL     1      -5.189   0.363   3.756  0.00  0.00    +0.009 C 
ATOM     38  C   UNL     1      -6.461  -0.087   4.477  0.00  0.00    +0.009 C 
ENDBRANCH  35  37
ENDBRANCH  34  35
ENDBRANCH  33  34
ENDBRANCH  32  33
ENDBRANCH  31  32
ENDBRANCH  27  31
ENDBRANCH   1  28
TORSDOF 11
