REMARK  Name = ZINC39774273
REMARK  4 active torsions:
REMARK  status: ('A' for Active; 'I' for Inactive)
REMARK    1  A    between atoms: C_1  and  N_2
REMARK    2  A    between atoms: N_15  and  N_16
REMARK    3  A    between atoms: C_17  and  C_18
REMARK    4  A    between atoms: C_23  and  O_24
REMARK                            x       y       z     vdW  Elec       q    Type
REMARK                         _______ _______ _______ _____ _____    ______ ____
ROOT
ATOM      1  C   UNL     1       2.921   1.299   0.485  0.00  0.00    +0.151 C 
ATOM      2  N   UNL     1       2.454  -0.084   0.358  0.00  0.00    -0.326 N 
ATOM      3  C   UNL     1       2.460  -0.816  -0.819  0.00  0.00    +0.053 A 
ATOM      4  C   UNL     1       2.868  -0.504  -2.112  0.00  0.00    +0.027 A 
ATOM      5  C   UNL     1       2.760  -1.444  -3.115  0.00  0.00    +0.017 A 
ATOM      6  C   UNL     1       2.247  -2.705  -2.849  0.00  0.00    +0.019 A 
ATOM      7  C   UNL     1       1.838  -3.032  -1.573  0.00  0.00    +0.027 A 
ATOM      8  C   UNL     1       1.942  -2.091  -0.551  0.00  0.00    +0.030 A 
ATOM      9  C   UNL     1       1.607  -2.111   0.884  0.00  0.00    +0.138 A 
ATOM     10  C   UNL     1       1.954  -0.840   1.389  0.00  0.00    +0.165 A 
ATOM     11  N   UNL     1       1.754  -0.599   2.680  0.00  0.00    -0.192 NA
ATOM     12  C   UNL     1       1.242  -1.553   3.447  0.00  0.00    +0.256 A 
ATOM     13  N   UNL     1       0.927  -2.744   2.949  0.00  0.00    -0.111 NA
ATOM     14  N   UNL     1       1.095  -3.019   1.701  0.00  0.00    -0.142 NA
ATOM     15  N   UNL     1       1.033  -1.303   4.793  0.00  0.00    -0.204 N 
ATOM     16 BR   UNL     1       2.108  -3.979  -4.239  0.00  0.00    -0.050 Br
ATOM     17  H   UNL     1       1.260  -0.437   5.166  0.00  0.00    +0.177 HD
ENDROOT
BRANCH  15  18
ATOM     18  N   UNL     1       0.493  -2.301   5.615  0.00  0.00    -0.187 NA
ATOM     19  C   UNL     1       0.197  -2.034   6.850  0.00  0.00    +0.142 C 
BRANCH  19  20
ATOM     20  C   UNL     1       0.183  -0.637   7.320  0.00  0.00    +0.037 A 
ATOM     21  C   UNL     1      -0.050   0.404   6.418  0.00  0.00    +0.013 A 
ATOM     22  C   UNL     1      -0.062   1.709   6.864  0.00  0.00    +0.002 A 
ATOM     23  C   UNL     1       0.156   1.993   8.201  0.00  0.00    +0.024 A 
ATOM     24  C   UNL     1       0.388   0.971   9.104  0.00  0.00    +0.083 A 
ATOM     25  C   UNL     1       0.398  -0.347   8.673  0.00  0.00    +0.144 A 
ATOM     26 CL   UNL     1       0.661   1.338  10.778  0.00  0.00    -0.080 Cl
BRANCH  25  27
ATOM     27  O   UNL     1       0.621  -1.352   9.560  0.00  0.00    -0.505 OA
ATOM     28  H   UNL     1       1.544  -1.635   9.610  0.00  0.00    +0.292 HD
ENDBRANCH  25  27
ENDBRANCH  19  20
ENDBRANCH  15  18
TORSDOF 3
