REMARK  Name = ZINC05257863
REMARK  3 active torsions:
REMARK  status: ('A' for Active; 'I' for Inactive)
REMARK    1  A    between atoms: C_12  and  C_16
REMARK    2  A    between atoms: C_18  and  C_21
REMARK    3  A    between atoms: C_24  and  N_27
REMARK                            x       y       z     vdW  Elec       q    Type
REMARK                         _______ _______ _______ _____ _____    ______ ____
ROOT
ATOM      1  C   UNL     1      -0.013   1.076   0.008  0.00  0.00    +0.001 A 
ATOM      2  C   UNL     1      -1.227   1.745   0.017  0.00  0.00    +0.001 A 
ATOM      3  C   UNL     1      -1.268   3.126   0.029  0.00  0.00    +0.009 A 
ATOM      4  C   UNL     1      -0.081   3.853   0.023  0.00  0.00    -0.007 A 
ATOM      5  C   UNL     1       1.161   3.176   0.008  0.00  0.00    -0.017 A 
ATOM      6  C   UNL     1       1.176   1.773   0.000  0.00  0.00    +0.008 A 
ATOM      7  C   UNL     1       2.366   3.910  -0.001  0.00  0.00    +0.012 A 
ATOM      8  C   UNL     1       2.383   5.281   0.005  0.00  0.00    +0.047 A 
ATOM      9  C   UNL     1       1.205   6.024   0.021  0.00  0.00    +0.138 A 
ATOM     10  C   UNL     1      -0.082   5.323   0.030  0.00  0.00    +0.026 A 
ATOM     11  C   UNL     1      -1.269   6.043   0.045  0.00  0.00    +0.028 A 
ATOM     12  C   UNL     1      -1.203   7.457   0.050  0.00  0.00    +0.067 A 
ATOM     13  C   UNL     1       0.122   8.111   0.040  0.00  0.00    +0.202 A 
ATOM     14  N   UNL     1       0.203   9.410   0.045  0.00  0.00    -0.369 N 
ATOM     15  O   UNL     1       1.249   7.369   0.026  0.00  0.00    -0.439 OA
ATOM     16  H   UNL     1       1.188   9.900   0.037  0.00  0.00    +0.159 HD
ATOM     17  H   UNL     1      -0.714  10.018   0.056  0.00  0.00    +0.159 HD
ENDROOT
BRANCH  12  18
ATOM     18  C   UNL     1      -2.378   8.227   0.066  0.00  0.00    +0.114 A 
ATOM     19  N   UNL     1      -2.510   9.560   0.073  0.00  0.00    -0.239 NA
ATOM     20  C   UNL     1      -3.691  10.103   0.086  0.00  0.00    +0.079 A 
ATOM     21  C   UNL     1      -4.828   9.245   0.093  0.00  0.00    +0.075 A 
ATOM     22  S   UNL     1      -4.077   7.678   0.072  0.00  0.00    -0.075 S 
BRANCH  20  23
ATOM     23  C   UNL     1      -3.850  11.571   0.094  0.00  0.00    +0.001 A 
ATOM     24  C   UNL     1      -5.128  12.139   0.102  0.00  0.00    +0.012 A 
ATOM     25  C   UNL     1      -5.269  13.511   0.114  0.00  0.00    +0.033 A 
ATOM     26  C   UNL     1      -4.148  14.325   0.107  0.00  0.00    +0.126 A 
ATOM     27  C   UNL     1      -2.880  13.770   0.094  0.00  0.00    +0.033 A 
ATOM     28  C   UNL     1      -2.724  12.400   0.087  0.00  0.00    +0.012 A 
BRANCH  26  29
ATOM     29  N   UNL     1      -4.308  15.797   0.114  0.00  0.00    +0.056 N 
ATOM     30  O   UNL     1      -3.245  16.574   0.107  0.00  0.00    -0.126 OA
ATOM     31  O   UNL     1      -5.513  16.328   0.127  0.00  0.00    -0.126 OA
ENDBRANCH  26  29
ENDBRANCH  20  23
ENDBRANCH  12  18
TORSDOF 3
