REMARK  Name = ZINC22503142
REMARK  4 active torsions:
REMARK  status: ('A' for Active; 'I' for Inactive)
REMARK    1  A    between atoms: C_4  and  C_7
REMARK    2  A    between atoms: C_8  and  C_9
REMARK    3  A    between atoms: C_12  and  C_17
REMARK    4  A    between atoms: C_19  and  C_23
REMARK                            x       y       z     vdW  Elec       q    Type
REMARK                         _______ _______ _______ _____ _____    ______ ____
ROOT
ATOM      1  C   UNL     1       1.249   1.827  -0.000  0.00  0.00    +0.125 A 
ATOM      2  N   UNL     1       2.480   1.372  -0.009  0.00  0.00    -0.156 NA
ATOM      3  N   UNL     1       3.564   2.239  -0.020  0.00  0.00    -0.184 N 
ATOM      4  C   UNL     1       4.953   2.200  -0.034  0.00  0.00    +0.203 A 
ATOM      5  N   UNL     1       5.388   3.441  -0.031  0.00  0.00    -0.125 NA
ATOM      6  N   UNL     1       4.391   4.255  -0.017  0.00  0.00    -0.120 NA
ATOM      7  C   UNL     1       3.277   3.582  -0.010  0.00  0.00    +0.219 A 
ATOM      8  S   UNL     1       1.502   3.595   0.008  0.00  0.00    -0.027 S 
ENDROOT
BRANCH   4   9
ATOM      9  C   UNL     1       5.787   0.986  -0.049  0.00  0.00    +0.105 A 
ATOM     10  C   UNL     1       7.136   0.920   0.225  0.00  0.00    +0.061 A 
ATOM     11  C   UNL     1       7.529  -0.423   0.097  0.00  0.00    +0.093 A 
ATOM     12  N   UNL     1       6.473  -1.135  -0.237  0.00  0.00    -0.173 NA
ATOM     13  N   UNL     1       5.367  -0.282  -0.331  0.00  0.00    -0.273 N 
ATOM     14  H   UNL     1       4.311  -0.470  -0.574  0.00  0.00    +0.189 HD
BRANCH  11  15
ATOM     15  C   UNL     1       8.901  -0.949   0.303  0.00  0.00    +0.002 A 
ATOM     16  C   UNL     1       9.937  -0.084   0.651  0.00  0.00    +0.010 A 
ATOM     17  C   UNL     1      11.210  -0.579   0.846  0.00  0.00    +0.001 A 
ATOM     18  C   UNL     1      11.461  -1.930   0.687  0.00  0.00    +0.000 A 
ATOM     19  C   UNL     1      10.438  -2.792   0.337  0.00  0.00    +0.001 A 
ATOM     20  C   UNL     1       9.160  -2.308   0.144  0.00  0.00    +0.010 A 
ENDBRANCH  11  15
ENDBRANCH   4   9
BRANCH   1  22
ATOM     21  C   UNL     1      -1.186   1.732   0.017  0.00  0.00    +0.010 C 
ATOM     22  C   UNL     1      -0.013   1.076   0.008  0.00  0.00    +0.037 C 
BRANCH  21  26
ATOM     23  C   UNL     1      -4.832  -0.439   0.021  0.00  0.00    +0.000 A 
ATOM     24  C   UNL     1      -4.855   0.945   0.030  0.00  0.00    +0.001 A 
ATOM     25  C   UNL     1      -3.674   1.657   0.029  0.00  0.00    +0.008 A 
ATOM     26  C   UNL     1      -2.452   0.979   0.019  0.00  0.00    -0.025 A 
ATOM     27  C   UNL     1      -2.437  -0.419   0.005  0.00  0.00    +0.008 A 
ATOM     28  C   UNL     1      -3.626  -1.118   0.012  0.00  0.00    +0.001 A 
ENDBRANCH  21  26
ENDBRANCH   1  22
TORSDOF 4
