REMARK  Name = ZINC54032041
REMARK  6 active torsions:
REMARK  status: ('A' for Active; 'I' for Inactive)
REMARK    1  A    between atoms: C_1  and  N_2
REMARK    2  A    between atoms: N_2  and  C_3
REMARK    3  A    between atoms: N_2  and  C_22
REMARK    4  A    between atoms: C_3  and  C_4
REMARK    5  A    between atoms: C_4  and  N_6
REMARK    6  A    between atoms: N_15  and  C_16
REMARK                            x       y       z     vdW  Elec       q    Type
REMARK                         _______ _______ _______ _____ _____    ______ ____
ROOT
ATOM      1  N   UNL     1      -3.328  -0.485  -1.485  0.00  0.00    -0.148 NA
ATOM      2  C   UNL     1      -3.971  -0.045  -2.562  0.00  0.00    +0.206 A 
ATOM      3  N   UNL     1      -3.416   0.679  -3.570  0.00  0.00    -0.326 N 
ATOM      4  C   UNL     1      -4.405   0.948  -4.511  0.00  0.00    +0.066 A 
ATOM      5  C   UNL     1      -4.402   1.636  -5.717  0.00  0.00    +0.028 A 
ATOM      6  C   UNL     1      -5.567   1.740  -6.451  0.00  0.00    +0.002 A 
ATOM      7  C   UNL     1      -6.738   1.162  -5.990  0.00  0.00    +0.002 A 
ATOM      8  C   UNL     1      -6.751   0.476  -4.792  0.00  0.00    +0.028 A 
ATOM      9  C   UNL     1      -5.585   0.365  -4.046  0.00  0.00    +0.073 A 
ATOM     10  N   UNL     1      -5.289  -0.252  -2.834  0.00  0.00    -0.280 N 
ATOM     11  H   UNL     1      -2.489   0.960  -3.624  0.00  0.00    +0.169 HD
ENDROOT
BRANCH  10  12
ATOM     12  C   UNL     1      -6.191  -0.960  -2.031  0.00  0.00    +0.050 A 
ATOM     13  C   UNL     1      -6.533  -0.476  -0.775  0.00  0.00    +0.026 A 
ATOM     14  C   UNL     1      -7.424  -1.177   0.015  0.00  0.00    +0.002 A 
ATOM     15  C   UNL     1      -7.974  -2.360  -0.444  0.00  0.00    +0.000 A 
ATOM     16  C   UNL     1      -7.635  -2.845  -1.694  0.00  0.00    +0.002 A 
ATOM     17  C   UNL     1      -6.750  -2.145  -2.491  0.00  0.00    +0.026 A 
ENDBRANCH  10  12
BRANCH   1  18
ATOM     18  C   UNL     1      -2.066  -0.124  -1.269  0.00  0.00    +0.223 C 
ATOM     19  O   UNL     1      -1.470   0.530  -2.104  0.00  0.00    -0.276 OA
BRANCH  18  20
ATOM     20  C   UNL     1      -1.375  -0.524   0.009  0.00  0.00    +0.021 C 
BRANCH  20  22
ATOM     21  C   UNL     1      -0.029   1.462   0.022  0.00  0.00    -0.095 C 
ATOM     22  N   UNL     1      -0.000  -0.007   0.005  0.00  0.00    +0.387 N 
ATOM     23  H   UNL     1       0.476  -0.324  -0.827  0.00  0.00    -0.081 HD
BRANCH  22  24
ATOM     24  C   UNL     1       0.711  -0.497   1.193  0.00  0.00    -0.046 C 
ATOM     25  C   UNL     1       2.161   0.013   1.178  0.00  0.00    +0.009 C 
ATOM     26  C   UNL     1       2.999  -0.746   2.235  0.00  0.00    +0.164 C 
ATOM     27  S   UNL     1       2.139  -2.368   2.343  0.00  0.00    -0.033 S 
ATOM     28  O   UNL     1       1.620  -2.529   3.656  0.00  0.00    -0.174 OA
ATOM     29  O   UNL     1       2.979  -3.374   1.795  0.00  0.00    -0.174 OA
ATOM     30  C   UNL     1       0.744  -2.052   1.181  0.00  0.00    +0.151 C 
ENDBRANCH  22  24
ENDBRANCH  20  22
ENDBRANCH  18  20
ENDBRANCH   1  18
TORSDOF 5
