REMARK  Name = ZINC22922382
REMARK  16 active torsions:
REMARK  status: ('A' for Active; 'I' for Inactive)
REMARK    1  A    between atoms: C_1  and  N_2
REMARK    2  A    between atoms: N_2  and  C_3
REMARK    3  A    between atoms: N_2  and  C_4
REMARK    4  A    between atoms: C_4  and  C_5
REMARK    5  A    between atoms: C_5  and  N_6
REMARK    6  A    between atoms: N_6  and  C_7
REMARK    7  A    between atoms: C_7  and  C_8
REMARK    8  A    between atoms: C_11  and  C_14
REMARK    9  A    between atoms: C_18  and  C_20
REMARK   10  A    between atoms: C_23  and  C_26
REMARK   11  A    between atoms: C_26  and  N_27
REMARK   12  A    between atoms: N_27  and  C_28
REMARK   13  A    between atoms: C_28  and  C_29
REMARK   14  A    between atoms: C_29  and  N_30
REMARK   15  A    between atoms: N_30  and  C_31
REMARK   16  A    between atoms: N_30  and  C_32
REMARK                            x       y       z     vdW  Elec       q    Type
REMARK                         _______ _______ _______ _____ _____    ______ ____
ROOT
ATOM      1  C   UNL     1      -9.258  -2.516  -3.153  0.00  0.00    +0.072 A 
ATOM      2  C   UNL     1     -10.338  -1.743  -2.730  0.00  0.00    +0.028 A 
ATOM      3  C   UNL     1     -11.618  -2.264  -2.813  0.00  0.00    +0.004 A 
ATOM      4  C   UNL     1     -11.782  -3.544  -3.317  0.00  0.00    +0.028 A 
ATOM      5  C   UNL     1     -10.660  -4.265  -3.723  0.00  0.00    +0.072 A 
ATOM      6  N   UNL     1      -9.448  -3.736  -3.636  0.00  0.00    -0.247 NA
ENDROOT
BRANCH   1  10
ATOM      7  C   UNL     1      -5.317  -0.940  -2.909  0.00  0.00    -0.064 A 
ATOM      8  C   UNL     1      -5.520  -2.212  -3.412  0.00  0.00    +0.002 A 
ATOM      9  C   UNL     1      -6.797  -2.729  -3.493  0.00  0.00    +0.010 A 
ATOM     10  C   UNL     1      -7.883  -1.966  -3.067  0.00  0.00    +0.000 A 
ATOM     11  C   UNL     1      -7.672  -0.685  -2.562  0.00  0.00    +0.010 A 
ATOM     12  C   UNL     1      -6.390  -0.180  -2.480  0.00  0.00    +0.002 A 
BRANCH   7  13
ATOM     13  C   UNL     1      -3.920  -0.381  -2.822  0.00  0.00    -0.047 C 
BRANCH  13  14
ATOM     14  N   UNL     1      -3.333  -0.730  -1.522  0.00  0.00    +0.383 N 
ATOM     15  H   UNL     1      -3.300  -1.734  -1.426  0.00  0.00    -0.085 HD
ATOM     16  H   UNL     1      -3.897  -0.340  -0.782  0.00  0.00    -0.085 HD
BRANCH  14  17
ATOM     17  C   UNL     1      -1.971  -0.185  -1.437  0.00  0.00    -0.067 C 
BRANCH  17  18
ATOM     18  C   UNL     1      -1.360  -0.549  -0.083  0.00  0.00    +0.065 C 
BRANCH  18  20
ATOM     19  C   UNL     1      -0.018   1.465   0.010  0.00  0.00    +0.104 C 
ATOM     20  N   UNL     1       0.002  -0.004   0.002  0.00  0.00    -0.310 NA
ATOM     21  C   UNL     1       0.706  -0.527   1.180  0.00  0.00    +0.104 C 
ENDBRANCH  18  20
ENDBRANCH  17  18
ENDBRANCH  14  17
ENDBRANCH  13  14
ENDBRANCH   7  13
ENDBRANCH   1  10
BRANCH   5  22
ATOM     22  C   UNL     1     -10.825  -5.637  -4.264  0.00  0.00    +0.000 A 
ATOM     23  C   UNL     1     -12.096  -6.199  -4.370  0.00  0.00    +0.010 A 
ATOM     24  C   UNL     1     -12.244  -7.475  -4.874  0.00  0.00    +0.002 A 
ATOM     25  C   UNL     1     -11.133  -8.197  -5.272  0.00  0.00    -0.064 A 
ATOM     26  C   UNL     1      -9.869  -7.644  -5.168  0.00  0.00    +0.002 A 
ATOM     27  C   UNL     1      -9.710  -6.366  -4.672  0.00  0.00    +0.010 A 
BRANCH  25  28
ATOM     28  C   UNL     1     -11.300  -9.590  -5.821  0.00  0.00    -0.047 C 
BRANCH  28  29
ATOM     29  N   UNL     1     -11.477  -9.525  -7.278  0.00  0.00    +0.383 N 
ATOM     30  H   UNL     1     -12.297  -8.978  -7.493  0.00  0.00    -0.085 HD
ATOM     31  H   UNL     1     -10.666  -9.094  -7.696  0.00  0.00    -0.085 HD
BRANCH  29  32
ATOM     32  C   UNL     1     -11.640 -10.883  -7.812  0.00  0.00    -0.067 C 
BRANCH  32  33
ATOM     33  C   UNL     1     -11.824 -10.816  -9.330  0.00  0.00    +0.065 C 
BRANCH  33  34
ATOM     34  N   UNL     1     -11.987 -12.174  -9.865  0.00  0.00    -0.310 NA
ATOM     35  C   UNL     1     -12.400 -12.139 -11.274  0.00  0.00    +0.104 C 
ATOM     36  C   UNL     1     -10.756 -12.957  -9.697  0.00  0.00    +0.104 C 
ENDBRANCH  33  34
ENDBRANCH  32  33
ENDBRANCH  29  32
ENDBRANCH  28  29
ENDBRANCH  25  28
ENDBRANCH   5  22
TORSDOF 12
