REMARK  Name = ZINC09329935
REMARK  6 active torsions:
REMARK  status: ('A' for Active; 'I' for Inactive)
REMARK    1  A    between atoms: C_1  and  C_2
REMARK    2  A    between atoms: C_5  and  C_8
REMARK    3  A    between atoms: C_8  and  C_10
REMARK    4  A    between atoms: C_12  and  C_30
REMARK    5  A    between atoms: C_22  and  C_29
REMARK    6  A    between atoms: C_33  and  N_36
REMARK                            x       y       z     vdW  Elec       q    Type
REMARK                         _______ _______ _______ _____ _____    ______ ____
ROOT
ATOM      1  C   UNL     1      -1.235   1.908  -0.023  0.00  0.00    +0.069 C 
ATOM      2  C   UNL     1      -1.767   2.296  -1.421  0.00  0.00    +0.016 C 
ATOM      3  C   UNL     1      -3.296   2.174  -1.299  0.00  0.00    -0.047 C 
ATOM      4  C   UNL     1      -3.922   3.587  -1.318  0.00  0.00    +0.052 C 
ATOM      5  S   UNL     1      -5.305   3.340  -0.117  0.00  0.00    -0.181 S 
ATOM      6  C   UNL     1      -4.464   2.057   0.909  0.00  0.00    -0.005 C 
ATOM      7  C   UNL     1      -2.337   1.004   0.544  0.00  0.00    +0.052 C 
ATOM      8  C   UNL     1      -2.034  -0.447   0.287  0.00  0.00    -0.027 A 
ATOM      9  C   UNL     1      -1.842  -1.185  -0.860  0.00  0.00    +0.008 A 
ATOM     10  C   UNL     1      -1.573  -2.539  -0.775  0.00  0.00    -0.050 A 
ATOM     11  C   UNL     1      -1.498  -3.150   0.464  0.00  0.00    +0.005 A 
ATOM     12  C   UNL     1      -1.688  -2.414   1.615  0.00  0.00    +0.024 A 
ATOM     13  C   UNL     1      -1.958  -1.050   1.538  0.00  0.00    +0.036 A 
ATOM     14  N   UNL     1      -2.182  -0.106   2.543  0.00  0.00    -0.286 N 
ATOM     15  C   UNL     1      -2.412   1.123   2.044  0.00  0.00    +0.212 C 
ATOM     16  O   UNL     1      -2.636   2.131   2.679  0.00  0.00    -0.277 OA
ATOM     17  C   UNL     1      -1.362  -3.348  -2.029  0.00  0.00    +0.044 C 
ATOM     18  H   UNL     1      -2.173  -0.312   3.491  0.00  0.00    +0.155 HD
ATOM     19  N   UNL     1      -3.594   1.355  -0.089  0.00  0.00    +0.401 N 
ATOM     20  H   UNL     1      -4.075   0.498  -0.388  0.00  0.00    -0.078 HD
ENDROOT
BRANCH   2  21
ATOM     21  C   UNL     1      -1.378   3.712  -1.758  0.00  0.00    -0.045 A 
ATOM     22  C   UNL     1      -1.181   4.079  -3.076  0.00  0.00    +0.006 A 
ATOM     23  C   UNL     1      -0.829   5.380  -3.386  0.00  0.00    +0.033 A 
ATOM     24  C   UNL     1      -0.663   6.310  -2.377  0.00  0.00    +0.126 A 
ATOM     25  C   UNL     1      -0.855   5.941  -1.058  0.00  0.00    +0.033 A 
ATOM     26  C   UNL     1      -1.212   4.642  -0.749  0.00  0.00    +0.006 A 
BRANCH  24  27
ATOM     27  N   UNL     1      -0.281   7.701  -2.708  0.00  0.00    +0.056 N 
ATOM     28  O   UNL     1      -0.135   8.521  -1.819  0.00  0.00    -0.126 OA
ATOM     29  O   UNL     1      -0.113   8.026  -3.869  0.00  0.00    -0.126 OA
ENDBRANCH  24  27
ENDBRANCH   2  21
BRANCH   1  30
ATOM     30  C   UNL     1       0.063   1.151  -0.141  0.00  0.00    +0.166 C 
ATOM     31  O   UNL     1       0.314   0.531  -1.152  0.00  0.00    -0.292 OA
BRANCH  30  36
ATOM     32  C   UNL     1       3.838   1.228   4.195  0.00  0.00    +0.044 C 
ATOM     33  C   UNL     1       2.848   1.208   3.058  0.00  0.00    -0.050 A 
ATOM     34  C   UNL     1       3.138   0.498   1.906  0.00  0.00    +0.004 A 
ATOM     35  C   UNL     1       2.238   0.475   0.862  0.00  0.00    +0.011 A 
ATOM     36  C   UNL     1       1.029   1.171   0.969  0.00  0.00    +0.018 A 
ATOM     37  C   UNL     1       0.747   1.890   2.135  0.00  0.00    +0.011 A 
ATOM     38  C   UNL     1       1.655   1.899   3.172  0.00  0.00    +0.004 A 
ENDBRANCH  30  36
ENDBRANCH   1  30
TORSDOF 4
