REMARK  Name = ZINC08075686
REMARK  4 active torsions:
REMARK  status: ('A' for Active; 'I' for Inactive)
REMARK    1  A    between atoms: C_4  and  C_7
REMARK    2  A    between atoms: C_7  and  C_24
REMARK    3  A    between atoms: N_10  and  C_14
REMARK    4  A    between atoms: C_14  and  C_15
REMARK                            x       y       z     vdW  Elec       q    Type
REMARK                         _______ _______ _______ _____ _____    ______ ____
ROOT
ATOM      1  C   UNL     1       2.164   0.734  -0.015  0.00  0.00    +0.164 C 
ATOM      2  C   UNL     1       1.474  -0.394   0.726  0.00  0.00    +0.256 C 
ATOM      3  O   UNL     1       2.000  -1.322   1.302  0.00  0.00    -0.272 OA
ATOM      4  N   UNL     1       0.153  -0.151   0.611  0.00  0.00    -0.215 N 
ATOM      5  C   UNL     1      -0.084   0.962  -0.092  0.00  0.00    +0.310 C 
ATOM      6  O   UNL     1      -1.198   1.384  -0.333  0.00  0.00    -0.252 OA
ATOM      7  N   UNL     1       1.048   1.559  -0.507  0.00  0.00    -0.278 N 
ATOM      8  H   UNL     1       1.115   2.373  -1.030  0.00  0.00    +0.152 HD
ENDROOT
BRANCH   1  12
ATOM      9  C   UNL     1       4.637   2.985   2.643  0.00  0.00    +0.000 A 
ATOM     10  C   UNL     1       3.753   3.636   1.803  0.00  0.00    +0.000 A 
ATOM     11  C   UNL     1       2.953   2.908   0.943  0.00  0.00    +0.006 A 
ATOM     12  C   UNL     1       3.037   1.528   0.923  0.00  0.00    -0.011 A 
ATOM     13  C   UNL     1       3.917   0.876   1.766  0.00  0.00    +0.006 A 
ATOM     14  C   UNL     1       4.721   1.605   2.623  0.00  0.00    +0.000 A 
ENDBRANCH   1  12
BRANCH   1  15
ATOM     15  C   UNL     1       2.973   0.195  -1.166  0.00  0.00    -0.011 A 
ATOM     16  C   UNL     1       3.877  -0.830  -0.955  0.00  0.00    +0.006 A 
ATOM     17  C   UNL     1       4.616  -1.328  -2.012  0.00  0.00    +0.000 A 
ATOM     18  C   UNL     1       4.458  -0.794  -3.278  0.00  0.00    +0.000 A 
ATOM     19  C   UNL     1       3.558   0.234  -3.487  0.00  0.00    +0.000 A 
ATOM     20  C   UNL     1       2.816   0.728  -2.431  0.00  0.00    +0.006 A 
ENDBRANCH   1  15
BRANCH   4  21
ATOM     21  C   UNL     1      -0.893  -1.000   1.186  0.00  0.00    +0.214 C 
BRANCH  21  22
ATOM     22  C   UNL     1      -1.289  -2.056   0.186  0.00  0.00    +0.215 A 
ATOM     23  N   UNL     1      -0.734  -3.227   0.084  0.00  0.00    -0.212 NA
ATOM     24  C   UNL     1      -1.344  -3.915  -0.919  0.00  0.00    +0.110 A 
ATOM     25  C   UNL     1      -1.171  -5.189  -1.461  0.00  0.00    +0.031 A 
ATOM     26  C   UNL     1      -1.966  -5.601  -2.507  0.00  0.00    +0.002 A 
ATOM     27  C   UNL     1      -2.939  -4.757  -3.024  0.00  0.00    +0.004 A 
ATOM     28  C   UNL     1      -3.122  -3.495  -2.498  0.00  0.00    +0.048 A 
ATOM     29  C   UNL     1      -2.329  -3.064  -1.445  0.00  0.00    +0.155 A 
ATOM     30  O   UNL     1      -2.261  -1.920  -0.730  0.00  0.00    -0.438 OA
ENDBRANCH  21  22
ENDBRANCH   4  21
TORSDOF 4
