REMARK  Name = ZINC17196851
REMARK  5 active torsions:
REMARK  status: ('A' for Active; 'I' for Inactive)
REMARK    1  A    between atoms: C_1  and  N_2
REMARK    2  A    between atoms: C_9  and  O_32
REMARK    3  A    between atoms: C_11  and  C_13
REMARK    4  A    between atoms: N_19  and  C_22
REMARK    5  A    between atoms: O_32  and  C_33
REMARK                            x       y       z     vdW  Elec       q    Type
REMARK                         _______ _______ _______ _____ _____    ______ ____
ROOT
ATOM      1  C   UNL     1       4.242  -4.035   0.655  0.00  0.00    +0.072 A 
ATOM      2  C   UNL     1       4.571  -4.712  -0.533  0.00  0.00    +0.258 A 
ATOM      3  O   UNL     1       5.521  -5.476  -0.561  0.00  0.00    -0.267 OA
ATOM      4  N   UNL     1       3.828  -4.511  -1.639  0.00  0.00    -0.302 N 
ATOM      5  C   UNL     1       2.779  -3.670  -1.615  0.00  0.00    +0.168 A 
ATOM      6  S   UNL     1       1.853  -3.434  -3.035  0.00  0.00    -0.012 S 
ATOM      7  N   UNL     1       2.446  -3.011  -0.489  0.00  0.00    -0.256 N 
ATOM      8  C   UNL     1       3.178  -3.183   0.660  0.00  0.00    +0.265 A 
ATOM      9  O   UNL     1       2.845  -2.516   1.785  0.00  0.00    -0.267 OA
ATOM     10  H   UNL     1       4.086  -5.042  -2.568  0.00  0.00    +0.171 HD
ENDROOT
BRANCH   1  21
ATOM     11  C   UNL     1       6.609  -2.493   1.287  0.00  0.00    -0.095 C 
ATOM     12  N   UNL     1       6.460  -3.914   1.629  0.00  0.00    +0.386 N 
ATOM     13  C   UNL     1       7.303  -4.271   2.781  0.00  0.00    -0.073 C 
ATOM     14  C   UNL     1       7.397  -5.795   2.861  0.00  0.00    +0.017 C 
ATOM     15  C   UNL     1       6.018  -6.400   2.796  0.00  0.00    -0.040 A 
ATOM     16  C   UNL     1       5.856  -7.717   3.199  0.00  0.00    +0.053 A 
ATOM     17  C   UNL     1       4.610  -8.318   3.153  0.00  0.00    +0.170 A 
ATOM     18  C   UNL     1       3.512  -7.595   2.699  0.00  0.00    +0.208 A 
ATOM     19  C   UNL     1       3.677  -6.277   2.299  0.00  0.00    +0.167 A 
ATOM     20  C   UNL     1       4.932  -5.678   2.348  0.00  0.00    -0.008 A 
ATOM     21  C   UNL     1       5.059  -4.244   1.905  0.00  0.00    +0.008 C 
ATOM     22  O   UNL     1       2.409  -8.399   2.746  0.00  0.00    -0.449 OA
ATOM     23  C   UNL     1       2.917  -9.742   2.847  0.00  0.00    +0.467 C 
ATOM     24  O   UNL     1       4.197  -9.576   3.486  0.00  0.00    -0.452 OA
ATOM     25  H   UNL     1       6.789  -4.502   0.759  0.00  0.00    -0.081 HD
BRANCH  19  26
ATOM     26  O   UNL     1       2.606  -5.566   1.855  0.00  0.00    -0.491 OA
ATOM     27  C   UNL     1       1.781  -4.949   2.845  0.00  0.00    +0.277 C 
ENDBRANCH  19  26
ENDBRANCH   1  21
BRANCH   7  28
ATOM     28  C   UNL     1       1.350  -2.143  -0.491  0.00  0.00    +0.060 A 
ATOM     29  C   UNL     1       0.092  -2.610  -0.178  0.00  0.00    +0.027 A 
ATOM     30  C   UNL     1      -1.005  -1.754  -0.177  0.00  0.00    +0.003 A 
ATOM     31  C   UNL     1      -0.868  -0.435  -0.485  0.00  0.00    +0.008 A 
ATOM     32  C   UNL     1       0.398   0.081  -0.811  0.00  0.00    -0.016 A 
ATOM     33  C   UNL     1       1.523  -0.781  -0.815  0.00  0.00    +0.006 A 
ATOM     34  C   UNL     1       2.787  -0.263  -1.140  0.00  0.00    +0.010 A 
ATOM     35  C   UNL     1       2.916   1.057  -1.446  0.00  0.00    +0.001 A 
ATOM     36  C   UNL     1       1.810   1.905  -1.444  0.00  0.00    +0.001 A 
ATOM     37  C   UNL     1       0.570   1.439  -1.133  0.00  0.00    +0.008 A 
ENDBRANCH   7  28
TORSDOF 3
