REMARK  Name = ZINC15730764
REMARK  7 active torsions:
REMARK  status: ('A' for Active; 'I' for Inactive)
REMARK    1  A    between atoms: C_1  and  C_2
REMARK    2  A    between atoms: C_2  and  C_3
REMARK    3  A    between atoms: C_7  and  C_27
REMARK    4  A    between atoms: C_8  and  N_9
REMARK    5  A    between atoms: N_9  and  S_10
REMARK    6  A    between atoms: S_10  and  C_13
REMARK    7  A    between atoms: C_22  and  C_26
REMARK                            x       y       z     vdW  Elec       q    Type
REMARK                         _______ _______ _______ _____ _____    ______ ____
ROOT
ATOM      1  S   UNL     1       5.250   4.150   0.643  0.00  0.00    +0.072 S 
ATOM      2  O   UNL     1       5.640   5.362   1.274  0.00  0.00    -0.150 OA
ATOM      3  O   UNL     1       5.429   2.881   1.256  0.00  0.00    -0.150 OA
ENDROOT
BRANCH   1   4
ATOM      4  C   UNL     1       3.532   4.299   0.285  0.00  0.00    +0.110 A 
ATOM      5  C   UNL     1       2.935   5.546   0.242  0.00  0.00    +0.030 A 
ATOM      6  C   UNL     1       1.595   5.643  -0.046  0.00  0.00    +0.018 A 
ATOM      7  C   UNL     1       0.811   4.507  -0.295  0.00  0.00    +0.029 A 
ATOM      8  C   UNL     1       1.403   3.255  -0.241  0.00  0.00    +0.049 A 
ATOM      9  C   UNL     1       2.776   3.177   0.046  0.00  0.00    +0.053 A 
ATOM     10  N   UNL     1       0.796   2.045  -0.451  0.00  0.00    -0.284 N 
ATOM     11  C   UNL     1      -0.367   1.510  -0.575  0.00  0.00    +0.221 C 
ATOM     12  O   UNL     1      -0.389   0.298  -0.513  0.00  0.00    -0.275 OA
ATOM     13  C   UNL     1      -1.689   2.158  -0.789  0.00  0.00    +0.082 C 
ATOM     14  C   UNL     1      -1.830   3.434  -0.005  0.00  0.00    +0.087 C 
ATOM     15  S   UNL     1      -0.873   4.791  -0.664  0.00  0.00    -0.123 S 
ATOM     16  C   UNL     1      -2.792   1.188  -0.360  0.00  0.00    +0.018 C 
ATOM     17  H   UNL     1       1.475   1.357  -0.536  0.00  0.00    +0.155 HD
ENDBRANCH   1   4
BRANCH   1  18
ATOM     18  N   UNL     1       6.050   4.093  -0.806  0.00  0.00    -0.216 N 
ATOM     19  H   UNL     1       6.499   3.278  -1.080  0.00  0.00    +0.174 HD
BRANCH  18  25
ATOM     20  C   UNL     1       6.901   6.292  -1.320  0.00  0.00    -0.025 A 
ATOM     21  C   UNL     1       6.930   7.401  -2.143  0.00  0.00    +0.005 A 
ATOM     22  C   UNL     1       6.132   7.447  -3.272  0.00  0.00    +0.001 A 
ATOM     23  C   UNL     1       5.307   6.382  -3.583  0.00  0.00    +0.005 A 
ATOM     24  C   UNL     1       5.277   5.268  -2.768  0.00  0.00    -0.028 A 
ATOM     25  C   UNL     1       6.077   5.218  -1.633  0.00  0.00    +0.054 A 
ATOM     26  C   UNL     1       4.378   4.108  -3.108  0.00  0.00    +0.046 C 
BRANCH  20  28
ATOM     27  C   UNL     1       9.178   5.797  -0.472  0.00  0.00    +0.009 C 
ATOM     28  C   UNL     1       7.766   6.245  -0.087  0.00  0.00    +0.033 C 
ENDBRANCH  20  28
ENDBRANCH  18  25
ENDBRANCH   1  18
TORSDOF 4
