REMARK  Name = ZINC07011390
REMARK  6 active torsions:
REMARK  status: ('A' for Active; 'I' for Inactive)
REMARK    1  A    between atoms: C_1  and  C_2
REMARK    2  A    between atoms: C_2  and  C_31
REMARK    3  A    between atoms: C_7  and  C_11
REMARK    4  A    between atoms: N_13  and  N_14
REMARK    5  A    between atoms: C_15  and  C_17
REMARK    6  A    between atoms: C_17  and  C_18
REMARK                            x       y       z     vdW  Elec       q    Type
REMARK                         _______ _______ _______ _____ _____    ______ ____
ROOT
ATOM      1  N   UNL     1       4.396   6.153  -1.720  0.00  0.00    -0.234 N 
ATOM      2  C   UNL     1       3.100   6.412  -1.459  0.00  0.00    +0.234 C 
ATOM      3  O   UNL     1       2.294   6.449  -2.365  0.00  0.00    -0.274 OA
ATOM      4  H   UNL     1       5.041   6.124  -0.996  0.00  0.00    +0.173 HD
ENDROOT
BRANCH   1   7
ATOM      5  C   UNL     1       6.110   5.667  -3.299  0.00  0.00    +0.239 C 
ATOM      6  O   UNL     1       6.916   5.630  -2.393  0.00  0.00    -0.273 OA
ATOM      7  N   UNL     1       4.813   5.926  -3.038  0.00  0.00    -0.234 N 
ATOM      8  H   UNL     1       4.169   5.955  -3.763  0.00  0.00    +0.173 HD
BRANCH   5  14
ATOM      9  C   UNL     1       7.406   2.468  -6.427  0.00  0.00    +0.016 C 
ATOM     10  C   UNL     1       6.854   3.886  -6.578  0.00  0.00    -0.010 C 
ATOM     11  C   UNL     1       8.006   4.932  -6.474  0.00  0.00    +0.000 C 
ATOM     12  C   UNL     1       7.340   6.282  -6.881  0.00  0.00    +0.006 C 
ATOM     13  C   UNL     1       6.356   6.608  -5.708  0.00  0.00    +0.021 C 
ATOM     14  C   UNL     1       6.559   5.422  -4.717  0.00  0.00    +0.070 C 
ATOM     15  C   UNL     1       8.083   5.107  -4.915  0.00  0.00    +0.025 C 
ATOM     16  C   UNL     1       5.921   4.217  -5.422  0.00  0.00    -0.056 C 
ATOM     17  C   UNL     1       4.809   3.603  -5.098  0.00  0.00    +0.009 C 
ATOM     18  C   UNL     1       6.120   4.032  -7.913  0.00  0.00    +0.016 C 
ENDBRANCH   5  14
ENDBRANCH   1   7
BRANCH   2  19
ATOM     19  C   UNL     1       2.651   6.657  -0.041  0.00  0.00    +0.136 C 
BRANCH  19  20
ATOM     20  C   UNL     1       1.167   6.921  -0.022  0.00  0.00    +0.007 A 
ATOM     21  C   UNL     1       0.560   8.119  -0.042  0.00  0.00    +0.200 A 
ATOM     22  O   UNL     1      -0.773   7.956  -0.015  0.00  0.00    -0.463 OA
ATOM     23  C   UNL     1      -1.098   6.648   0.023  0.00  0.00    +0.136 A 
ATOM     24  C   UNL     1       0.099   5.925   0.019  0.00  0.00    +0.031 A 
ATOM     25  C   UNL     1       0.053   4.469   0.058  0.00  0.00    -0.007 A 
ATOM     26  C   UNL     1       1.217   3.693   0.059  0.00  0.00    +0.009 A 
ATOM     27  C   UNL     1       1.123   2.333   0.097  0.00  0.00    +0.001 A 
ATOM     28  C   UNL     1      -0.118   1.704   0.134  0.00  0.00    +0.001 A 
ATOM     29  C   UNL     1      -1.271   2.429   0.129  0.00  0.00    +0.008 A 
ATOM     30  C   UNL     1      -1.211   3.832   0.096  0.00  0.00    -0.017 A 
ATOM     31  C   UNL     1      -2.382   4.614   0.096  0.00  0.00    +0.012 A 
ATOM     32  C   UNL     1      -2.321   5.968   0.061  0.00  0.00    +0.047 A 
ENDBRANCH  19  20
ENDBRANCH   2  19
TORSDOF 4
