REMARK  Name = ZINC02433709
REMARK  5 active torsions:
REMARK  status: ('A' for Active; 'I' for Inactive)
REMARK    1  A    between atoms: C_1  and  C_2
REMARK    2  A    between atoms: C_2  and  N_3
REMARK    3  A    between atoms: N_3  and  C_4
REMARK    4  A    between atoms: C_4  and  C_5
REMARK    5  A    between atoms: C_5  and  O_6
REMARK                            x       y       z     vdW  Elec       q    Type
REMARK                         _______ _______ _______ _____ _____    ______ ____
ROOT
ATOM      1  N   UNL     1      -6.787   4.294   3.839  0.00  0.00    -0.312 N 
ATOM      2  C   UNL     1      -6.153   3.777   2.719  0.00  0.00    +0.139 A 
ATOM      3  C   UNL     1      -4.871   3.252   2.806  0.00  0.00    +0.080 A 
ATOM      4  C   UNL     1      -4.229   2.730   1.676  0.00  0.00    +0.093 A 
ATOM      5  C   UNL     1      -2.870   2.201   1.894  0.00  0.00    +0.035 A 
ATOM      6  C   UNL     1      -2.005   1.621   0.935  0.00  0.00    -0.029 A 
ATOM      7  C   UNL     1      -0.770   1.185   1.320  0.00  0.00    -0.005 A 
ATOM      8  C   UNL     1      -0.371   1.312   2.652  0.00  0.00    +0.103 A 
ATOM      9  C   UNL     1      -2.381   2.286   3.208  0.00  0.00    +0.089 A 
ATOM     10  S   UNL     1      -3.701   3.048   4.120  0.00  0.00    -0.066 S 
ATOM     11  N   UNL     1       0.885   0.868   3.040  0.00  0.00    -0.312 N 
ATOM     12  C   UNL     1       1.069  -0.552   2.704  0.00  0.00    +0.134 C 
ATOM     13  C   UNL     1       2.485  -0.984   3.094  0.00  0.00    +0.178 C 
ATOM     14  O   UNL     1       2.690  -0.727   4.486  0.00  0.00    -0.377 OA
ATOM     15  C   UNL     1       2.519   0.646   4.849  0.00  0.00    +0.178 C 
ATOM     16  C   UNL     1       1.104   1.095   4.476  0.00  0.00    +0.134 C 
ATOM     17  C   UNL     1      -0.036   0.609   0.127  0.00  0.00    +0.039 C 
ATOM     18  C   UNL     1      -0.796   1.137  -1.109  0.00  0.00    +0.009 C 
ATOM     19  C   UNL     1      -2.212   1.380  -0.542  0.00  0.00    +0.036 C 
ATOM     20  N   UNL     1      -4.932   2.773   0.521  0.00  0.00    -0.234 NA
ATOM     21  C   UNL     1      -6.140   3.276   0.477  0.00  0.00    +0.224 A 
ATOM     22  N   UNL     1      -6.759   3.772   1.532  0.00  0.00    -0.220 NA
ATOM     23  N   UNL     1      -1.160   1.861   3.619  0.00  0.00    -0.337 N 
ATOM     24  H   UNL     1      -0.851   1.947   4.594  0.00  0.00    +0.168 HD
ENDROOT
BRANCH   1  26
ATOM     25  C   UNL     1      -6.485   5.611   5.881  0.00  0.00    +0.024 C 
ATOM     26  C   UNL     1      -5.976   5.349   4.462  0.00  0.00    +0.103 C 
ENDBRANCH   1  26
BRANCH   1  27
ATOM     27  C   UNL     1      -8.128   4.789   3.503  0.00  0.00    +0.134 C 
BRANCH  27  28
ATOM     28  C   UNL     1      -9.082   3.605   3.333  0.00  0.00    +0.174 C 
BRANCH  28  29
ATOM     29  O   UNL     1      -9.229   2.929   4.584  0.00  0.00    -0.393 OA
ATOM     30  H   UNL     1      -9.759   2.122   4.535  0.00  0.00    +0.209 HD
ENDBRANCH  28  29
ENDBRANCH  27  28
ENDBRANCH   1  27
TORSDOF 4
