REMARK  Name = ZINC02097942
REMARK  8 active torsions:
REMARK  status: ('A' for Active; 'I' for Inactive)
REMARK    1  A    between atoms: C_1  and  C_2
REMARK    2  A    between atoms: C_3  and  O_16
REMARK    3  A    between atoms: O_16  and  C_17
REMARK    4  A    between atoms: C_17  and  C_19
REMARK    5  A    between atoms: C_17  and  C_20
REMARK    6  A    between atoms: N_22  and  CA_23
REMARK    7  A    between atoms: CA_23  and  C_25
REMARK    8  A    between atoms: CA_23  and  C_31
REMARK                            x       y       z     vdW  Elec       q    Type
REMARK                         _______ _______ _______ _____ _____    ______ ____
ROOT
ATOM      1  O   UNL     1       5.226   4.206   2.485  0.00  0.00    -0.480 OA
ENDROOT
BRANCH   1   4
ATOM      2  C   UNL     1       6.289   4.324   5.092  0.00  0.00    +0.051 C 
ATOM      3  C   UNL     1       6.822   5.161   3.958  0.00  0.00    +0.034 A 
ATOM      4  C   UNL     1       6.259   5.061   2.695  0.00  0.00    +0.128 A 
ATOM      5  C   UNL     1       6.742   5.834   1.642  0.00  0.00    +0.047 A 
ATOM      6  C   UNL     1       7.780   6.699   1.837  0.00  0.00    +0.015 A 
ATOM      7  C   UNL     1       8.363   6.809   3.104  0.00  0.00    +0.022 A 
ATOM      8  C   UNL     1       7.881   6.030   4.172  0.00  0.00    +0.146 A 
ATOM      9  O   UNL     1       8.448   6.141   5.392  0.00  0.00    -0.422 OA
ATOM     10  C   UNL     1       9.468   6.982   5.617  0.00  0.00    +0.341 A 
ATOM     11  O   UNL     1       9.947   7.047   6.735  0.00  0.00    -0.245 OA
ATOM     12  C   UNL     1      10.003   7.796   4.593  0.00  0.00    +0.041 A 
ATOM     13  C   UNL     1       9.476   7.731   3.344  0.00  0.00    -0.027 A 
ATOM     14  C   UNL     1      10.199   8.681   2.418  0.00  0.00    +0.036 C 
ATOM     15  C   UNL     1      10.952   9.654   3.351  0.00  0.00    +0.010 C 
ATOM     16  C   UNL     1      11.134   8.801   4.625  0.00  0.00    +0.043 C 
ENDBRANCH   1   4
BRANCH   1  17
ATOM     17  C   UNL     1       4.608   4.240   1.197  0.00  0.00    +0.255 C 
ATOM     18  C   UNL     1       5.390   3.346   0.233  0.00  0.00    +0.062 C 
BRANCH  17  19
ATOM     19  C   UNL     1       3.190   3.741   1.306  0.00  0.00    +0.254 C 
ATOM     20  O   UNL     1       2.780   3.306   2.362  0.00  0.00    -0.272 OA
ATOM     21  N   UNL     1       2.378   3.778   0.232  0.00  0.00    -0.296 N 
ATOM     22  H   UNL     1       2.706   4.126  -0.612  0.00  0.00    +0.150 HD
BRANCH  21  23
ATOM     23  CA  UNL     1       0.999   3.293   0.338  0.00  0.00    +0.217 C 
BRANCH  23  24
ATOM     24  C   UNL     1       0.148   3.965  -0.709  0.00  0.00    -0.016 A 
ATOM     25  C   UNL     1       0.653   4.177  -1.978  0.00  0.00    +0.006 A 
ATOM     26  C   UNL     1      -0.129   4.789  -2.939  0.00  0.00    +0.000 A 
ATOM     27  C   UNL     1      -1.413   5.197  -2.629  0.00  0.00    +0.000 A 
ATOM     28  C   UNL     1      -1.916   4.989  -1.358  0.00  0.00    +0.000 A 
ATOM     29  C   UNL     1      -1.135   4.373  -0.398  0.00  0.00    +0.006 A 
ENDBRANCH  23  24
BRANCH  23  30
ATOM     30  C   UNL     1       0.974   1.802   0.126  0.00  0.00    +0.380 C 
ATOM     31  O   UNL     1       2.002   1.205  -0.093  0.00  0.00    -0.244 OA
ATOM     32  OXT UNL     1      -0.191   1.136   0.179  0.00  0.00    -0.244 OA
ENDBRANCH  23  30
ENDBRANCH  21  23
ENDBRANCH  17  19
ENDBRANCH   1  17
TORSDOF 6
