REMARK  Name = ZINC15676196
REMARK  5 active torsions:
REMARK  status: ('A' for Active; 'I' for Inactive)
REMARK    1  A    between atoms: C_1  and  C_2
REMARK    2  A    between atoms: C_2  and  N_3
REMARK    3  A    between atoms: C_15  and  C_17
REMARK    4  A    between atoms: N_19  and  C_20
REMARK    5  A    between atoms: C_20  and  C_21
REMARK                            x       y       z     vdW  Elec       q    Type
REMARK                         _______ _______ _______ _____ _____    ______ ____
ROOT
ATOM      1  N   UNL     1       0.689  -0.476  -1.203  0.00  0.00    -0.299 N 
ATOM      2  C   UNL     1       0.827  -1.799  -1.425  0.00  0.00    +0.303 C 
ATOM      3  O   UNL     1       0.464  -2.598  -0.584  0.00  0.00    -0.253 OA
ATOM      4  N   UNL     1       1.367  -2.235  -2.580  0.00  0.00    -0.268 N 
ATOM      5  C   UNL     1       1.917  -1.284  -3.563  0.00  0.00    +0.165 C 
ATOM      6  C   UNL     1       1.435  -1.719  -4.926  0.00  0.00    +0.054 A 
ATOM      7  C   UNL     1       0.835  -2.905  -5.166  0.00  0.00    +0.040 A 
ATOM      8  N   UNL     1       0.549  -2.944  -6.497  0.00  0.00    -0.349 N 
ATOM      9  H   UNL     1       0.117  -3.670  -6.974  0.00  0.00    +0.166 HD
ATOM     10  C   UNL     1       0.980  -1.777  -7.030  0.00  0.00    +0.171 A 
ATOM     11  N   UNL     1       1.509  -1.051  -6.080  0.00  0.00    -0.348 N 
ATOM     12  C   UNL     1       0.551  -3.953  -4.122  0.00  0.00    +0.087 C 
ATOM     13  C   UNL     1       1.427  -3.672  -2.888  0.00  0.00    +0.169 C 
ATOM     14  H   UNL     1       1.046   0.162  -1.840  0.00  0.00    +0.150 HD
ATOM     15  H   UNL     1       1.893  -0.168  -6.194  0.00  0.00    +0.166 HD
ENDROOT
BRANCH  13  16
ATOM     16  C   UNL     1       2.853  -4.066  -3.177  0.00  0.00    +0.234 C 
ATOM     17  O   UNL     1       3.733  -3.232  -3.132  0.00  0.00    -0.274 OA
ATOM     18  N   UNL     1       3.150  -5.343  -3.486  0.00  0.00    -0.310 N 
ATOM     19  H   UNL     1       2.446  -6.010  -3.522  0.00  0.00    +0.149 HD
BRANCH  18  20
ATOM     20  C   UNL     1       4.536  -5.726  -3.768  0.00  0.00    +0.139 C 
BRANCH  20  21
ATOM     21  C   UNL     1       4.596  -7.199  -4.083  0.00  0.00    -0.030 A 
ATOM     22  C   UNL     1       4.787  -8.116  -3.066  0.00  0.00    +0.006 A 
ATOM     23  C   UNL     1       4.842  -9.466  -3.354  0.00  0.00    +0.020 A 
ATOM     24  C   UNL     1       4.707  -9.900  -4.661  0.00  0.00    +0.041 A 
ATOM     25  C   UNL     1       4.516  -8.982  -5.678  0.00  0.00    +0.020 A 
ATOM     26  C   UNL     1       4.455  -7.632  -5.388  0.00  0.00    +0.006 A 
ATOM     27 CL   UNL     1       4.777 -11.597  -5.024  0.00  0.00    -0.084 Cl
ENDBRANCH  20  21
ENDBRANCH  18  20
ENDBRANCH  13  16
BRANCH   1  29
ATOM     28  C   UNL     1      -0.017   1.526   0.011  0.00  0.00    +0.024 C 
ATOM     29  C   UNL     1       0.002  -0.004   0.002  0.00  0.00    +0.102 C 
ENDBRANCH   1  29
TORSDOF 4
