REMARK  Name = ZINC13936074
REMARK  8 active torsions:
REMARK  status: ('A' for Active; 'I' for Inactive)
REMARK    1  A    between atoms: C_1  and  C_2
REMARK    2  A    between atoms: C_5  and  N_8
REMARK    3  A    between atoms: N_8  and  C_9
REMARK    4  A    between atoms: C_9  and  N_11
REMARK    5  A    between atoms: N_11  and  C_12
REMARK    6  A    between atoms: C_15  and  S_18
REMARK    7  A    between atoms: S_18  and  N_21
REMARK    8  A    between atoms: N_21  and  C_22
REMARK                            x       y       z     vdW  Elec       q    Type
REMARK                         _______ _______ _______ _____ _____    ______ ____
ROOT
ATOM      1  C   UNL     1       6.574  -2.247   0.581  0.00  0.00    +0.033 A 
ATOM      2  C   UNL     1       5.918  -3.226   1.314  0.00  0.00    +0.025 A 
ATOM      3  C   UNL     1       4.728  -3.753   0.852  0.00  0.00    +0.030 A 
ATOM      4  C   UNL     1       4.189  -3.305  -0.340  0.00  0.00    +0.109 A 
ATOM      5  C   UNL     1       4.843  -2.333  -1.076  0.00  0.00    +0.030 A 
ATOM      6  C   UNL     1       6.031  -1.799  -0.617  0.00  0.00    +0.025 A 
ENDROOT
BRANCH   4   7
ATOM      7  S   UNL     1       2.671  -3.978  -0.927  0.00  0.00    +0.072 S 
ATOM      8  O   UNL     1       2.478  -5.206  -0.238  0.00  0.00    -0.150 OA
ATOM      9  O   UNL     1       2.711  -3.898  -2.345  0.00  0.00    -0.150 OA
BRANCH   7  10
ATOM     10  N   UNL     1       1.460  -2.963  -0.430  0.00  0.00    -0.216 N 
ATOM     11  H   UNL     1       0.919  -2.497  -1.086  0.00  0.00    +0.174 HD
BRANCH  10  12
ATOM     12  C   UNL     1       1.220  -2.778   0.934  0.00  0.00    +0.048 A 
ATOM     13  C   UNL     1       0.991  -1.502   1.433  0.00  0.00    +0.026 A 
ATOM     14  C   UNL     1       0.754  -1.322   2.782  0.00  0.00    +0.022 A 
ATOM     15  C   UNL     1       0.743  -2.411   3.636  0.00  0.00    +0.041 A 
ATOM     16  C   UNL     1       0.971  -3.683   3.141  0.00  0.00    +0.022 A 
ATOM     17  C   UNL     1       1.208  -3.869   1.793  0.00  0.00    +0.026 A 
ATOM     18 CL   UNL     1       0.445  -2.181   5.330  0.00  0.00    -0.084 Cl
ENDBRANCH  10  12
ENDBRANCH   7  10
ENDBRANCH   4   7
BRANCH   1  19
ATOM     19  N   UNL     1       7.780  -1.711   1.046  0.00  0.00    -0.297 N 
ATOM     20  H   UNL     1       7.862  -1.434   1.972  0.00  0.00    +0.154 HD
BRANCH  19  21
ATOM     21  C   UNL     1       8.827  -1.580   0.209  0.00  0.00    +0.139 C 
ATOM     22  S   UNL     1       8.650  -1.965  -1.450  0.00  0.00    -0.018 S 
BRANCH  21  23
ATOM     23  N   UNL     1      10.014  -1.145   0.676  0.00  0.00    -0.297 N 
ATOM     24  H   UNL     1      10.130  -0.977   1.625  0.00  0.00    +0.154 HD
BRANCH  23  29
ATOM     25  C   UNL     1      14.333  -0.292  -2.901  0.00  0.00    +0.044 C 
ATOM     26  C   UNL     1      13.186  -0.519  -1.951  0.00  0.00    -0.050 A 
ATOM     27  C   UNL     1      12.920   0.406  -0.957  0.00  0.00    +0.005 A 
ATOM     28  C   UNL     1      11.869   0.201  -0.085  0.00  0.00    +0.023 A 
ATOM     29  C   UNL     1      11.079  -0.934  -0.206  0.00  0.00    +0.033 A 
ATOM     30  C   UNL     1      11.352  -1.864  -1.201  0.00  0.00    +0.023 A 
ATOM     31  C   UNL     1      12.400  -1.650  -2.074  0.00  0.00    +0.005 A 
ENDBRANCH  23  29
ENDBRANCH  21  23
ENDBRANCH  19  21
ENDBRANCH   1  19
TORSDOF 7
