REMARK  Name = ZINC08789335
REMARK  13 active torsions:
REMARK  status: ('A' for Active; 'I' for Inactive)
REMARK    1  A    between atoms: C_1  and  C_2
REMARK    2  A    between atoms: C_2  and  C_4
REMARK    3  A    between atoms: C_2  and  O_34
REMARK    4  A    between atoms: C_4  and  N_5
REMARK    5  A    between atoms: N_5  and  C_6
REMARK    6  A    between atoms: C_14  and  N_30
REMARK    7  A    between atoms: C_20  and  O_28
REMARK    8  A    between atoms: C_21  and  O_26
REMARK    9  A    between atoms: C_22  and  O_24
REMARK   10  A    between atoms: O_24  and  C_25
REMARK   11  A    between atoms: O_26  and  C_27
REMARK   12  A    between atoms: O_28  and  C_29
REMARK   13  A    between atoms: C_31  and  C_33
REMARK                            x       y       z     vdW  Elec       q    Type
REMARK                         _______ _______ _______ _____ _____    ______ ____
ROOT
ATOM      1  C   UNL     1       2.296  -1.060  -4.708  0.00  0.00    +0.075 A 
ATOM      2  C   UNL     1       3.549  -1.232  -4.198  0.00  0.00    +0.027 A 
ATOM      3  C   UNL     1       3.930  -1.310  -2.911  0.00  0.00    +0.011 A 
ATOM      4  C   UNL     1       3.242  -1.214  -1.728  0.00  0.00    -0.009 A 
ATOM      5  C   UNL     1       1.880  -0.947  -1.588  0.00  0.00    -0.016 A 
ATOM      6  C   UNL     1       1.001  -0.841  -2.600  0.00  0.00    +0.058 A 
ATOM      7  C   UNL     1       1.132  -0.917  -3.957  0.00  0.00    +0.200 A 
ATOM      8  O   UNL     1       0.091  -0.849  -4.596  0.00  0.00    -0.286 OA
ATOM      9  C   UNL     1       1.322  -0.761  -0.192  0.00  0.00    +0.104 C 
ATOM     10  C   UNL     1       1.092  -2.089   0.503  0.00  0.00    +0.032 C 
ATOM     11  C   UNL     1       2.281  -3.024   0.307  0.00  0.00    +0.038 C 
ATOM     12  C   UNL     1       3.566  -2.264   0.516  0.00  0.00    -0.032 A 
ATOM     13  C   UNL     1       4.031  -1.405  -0.475  0.00  0.00    +0.031 A 
ATOM     14  C   UNL     1       5.229  -0.707  -0.297  0.00  0.00    +0.173 A 
ATOM     15  C   UNL     1       5.946  -0.871   0.881  0.00  0.00    +0.204 A 
ATOM     16  C   UNL     1       5.469  -1.724   1.871  0.00  0.00    +0.165 A 
ATOM     17  C   UNL     1       4.280  -2.419   1.685  0.00  0.00    +0.054 A 
ENDROOT
BRANCH   9  18
ATOM     18  N   UNL     1       0.049  -0.041  -0.278  0.00  0.00    -0.309 N 
ATOM     19  C   UNL     1       0.041   1.303  -0.373  0.00  0.00    +0.210 C 
ATOM     20  O   UNL     1       1.087   1.917  -0.387  0.00  0.00    -0.276 OA
ATOM     21  C   UNL     1      -1.268   2.044  -0.468  0.00  0.00    +0.109 C 
ATOM     22  H   UNL     1      -0.787  -0.532  -0.267  0.00  0.00    +0.149 HD
ENDBRANCH   9  18
BRANCH   1  23
ATOM     23  N   UNL     1       2.171  -1.025  -6.087  0.00  0.00    -0.338 N 
ATOM     24  H   UNL     1       1.298  -0.905  -6.491  0.00  0.00    +0.146 HD
BRANCH  23  25
ATOM     25  C   UNL     1       3.357  -1.171  -6.934  0.00  0.00    +0.132 C 
BRANCH  25  27
ATOM     26  C   UNL     1       4.184  -1.248  -9.290  0.00  0.00    +0.039 C 
ATOM     27  C   UNL     1       2.945  -1.097  -8.406  0.00  0.00    +0.128 C 
BRANCH  27  28
ATOM     28  O   UNL     1       2.021  -2.148  -8.695  0.00  0.00    -0.391 OA
ATOM     29  H   UNL     1       1.717  -2.162  -9.613  0.00  0.00    +0.210 HD
ENDBRANCH  27  28
ENDBRANCH  25  27
ENDBRANCH  23  25
ENDBRANCH   1  23
BRANCH  16  30
ATOM     30  O   UNL     1       6.170  -1.879   3.025  0.00  0.00    -0.491 OA
ATOM     31  C   UNL     1       5.625  -2.770   4.000  0.00  0.00    +0.277 C 
ENDBRANCH  16  30
BRANCH  15  32
ATOM     32  O   UNL     1       7.113  -0.196   1.068  0.00  0.00    -0.488 OA
ATOM     33  C   UNL     1       8.312  -0.845   0.640  0.00  0.00    +0.277 C 
ENDBRANCH  15  32
BRANCH  14  34
ATOM     34  O   UNL     1       5.688   0.125  -1.269  0.00  0.00    -0.491 OA
ATOM     35  C   UNL     1       5.361   1.510  -1.144  0.00  0.00    +0.277 C 
ENDBRANCH  14  34
TORSDOF 8
