REMARK  Name = ZINC41665615
REMARK  7 active torsions:
REMARK  status: ('A' for Active; 'I' for Inactive)
REMARK    1  A    between atoms: C_1  and  C_2
REMARK    2  A    between atoms: C_3  and  N_16
REMARK    3  A    between atoms: C_4  and  C_15
REMARK    4  A    between atoms: N_5  and  C_7
REMARK    5  A    between atoms: C_7  and  C_8
REMARK    6  A    between atoms: N_20  and  C_26
REMARK    7  A    between atoms: N_23  and  C_25
REMARK                            x       y       z     vdW  Elec       q    Type
REMARK                         _______ _______ _______ _____ _____    ______ ____
ROOT
ATOM      1  C   UNL     1      -2.316   0.104  -0.211  0.00  0.00    +0.069 C 
ATOM      2  C   UNL     1      -1.002  -0.626  -0.098  0.00  0.00    +0.081 A 
ATOM      3  C   UNL     1      -0.081  -0.823  -1.137  0.00  0.00    +0.076 A 
ATOM      4  C   UNL     1       0.969  -1.522  -0.635  0.00  0.00    +0.058 A 
ATOM      5  N   UNL     1       0.714  -1.756   0.680  0.00  0.00    -0.262 N 
ATOM      6  N   UNL     1      -0.524  -1.179   0.987  0.00  0.00    -0.174 NA
ATOM      7  C   UNL     1       2.193  -1.960  -1.396  0.00  0.00    +0.067 C 
ENDROOT
BRANCH   3   8
ATOM      8  N   UNL     1      -0.221  -0.377  -2.464  0.00  0.00    -0.291 N 
ATOM      9  C   UNL     1       0.143   0.925  -2.804  0.00  0.00    +0.209 A 
ATOM     10  C   UNL     1      -0.095   1.438  -4.163  0.00  0.00    +0.297 A 
ATOM     11  O   UNL     1      -0.613   0.731  -5.007  0.00  0.00    -0.264 OA
ATOM     12  N   UNL     1       0.269   2.703  -4.460  0.00  0.00    -0.260 N 
ATOM     13  C   UNL     1       0.841   3.478  -3.521  0.00  0.00    +0.348 A 
ATOM     14  O   UNL     1       1.165   4.617  -3.801  0.00  0.00    -0.245 OA
ATOM     15  N   UNL     1       1.061   3.016  -2.277  0.00  0.00    -0.216 N 
ATOM     16  N   UNL     1       0.697   1.713  -1.918  0.00  0.00    -0.146 NA
ATOM     17  C   UNL     1       1.687   3.890  -1.283  0.00  0.00    +0.178 C 
ATOM     18  C   UNL     1       0.041   3.232  -5.807  0.00  0.00    +0.157 C 
ATOM     19  H   UNL     1      -0.570  -0.976  -3.143  0.00  0.00    +0.154 HD
ENDBRANCH   3   8
BRANCH   5  20
ATOM     20  C   UNL     1       1.584  -2.479   1.611  0.00  0.00    +0.179 C 
BRANCH  20  21
ATOM     21  C   UNL     1       2.529  -1.510   2.272  0.00  0.00    -0.026 A 
ATOM     22  C   UNL     1       3.754  -1.236   1.694  0.00  0.00    +0.006 A 
ATOM     23  C   UNL     1       4.621  -0.346   2.300  0.00  0.00    +0.015 A 
ATOM     24  C   UNL     1       4.262   0.271   3.485  0.00  0.00    +0.018 A 
ATOM     25  C   UNL     1       3.036  -0.003   4.063  0.00  0.00    +0.015 A 
ATOM     26  C   UNL     1       2.167  -0.889   3.454  0.00  0.00    +0.006 A 
ATOM     27 BR   UNL     1       5.448   1.488   4.315  0.00  0.00    -0.050 Br
ENDBRANCH  20  21
ENDBRANCH   5  20
TORSDOF 3
