REMARK  Name = ZINC58837191
REMARK  9 active torsions:
REMARK  status: ('A' for Active; 'I' for Inactive)
REMARK    1  A    between atoms: C_1  and  N_2
REMARK    2  A    between atoms: N_2  and  C_3
REMARK    3  A    between atoms: N_2  and  C_4
REMARK    4  A    between atoms: C_7  and  C_10
REMARK    5  A    between atoms: N_11  and  C_12
REMARK    6  A    between atoms: C_16  and  C_21
REMARK    7  A    between atoms: C_21  and  C_22
REMARK    8  A    between atoms: N_24  and  C_25
REMARK    9  A    between atoms: C_28  and  N_31
REMARK                            x       y       z     vdW  Elec       q    Type
REMARK                         _______ _______ _______ _____ _____    ______ ____
ROOT
ATOM      1  C   UNL     1      -0.011  -2.867  -7.290  0.00  0.00    +0.227 C 
ATOM      2  C   UNL     1      -1.291  -2.572  -7.994  0.00  0.00    +0.056 C 
ATOM      3  N   UNL     1      -2.446  -2.819  -7.502  0.00  0.00    -0.305 NA
ATOM      4  C   UNL     1      -1.075  -1.948  -9.354  0.00  0.00    +0.109 C 
ATOM      5  S   UNL     1       0.746  -1.847  -9.497  0.00  0.00    -0.076 S 
ATOM      6  C   UNL     1       1.238  -2.501  -8.039  0.00  0.00    +0.220 C 
ATOM      7  O   UNL     1       2.381  -2.650  -7.660  0.00  0.00    -0.282 OA
ATOM      8  H   UNL     1      -2.522  -3.221  -6.622  0.00  0.00    +0.186 HD
ENDROOT
BRANCH   1  10
ATOM      9  C   UNL     1       0.011  -2.800  -4.899  0.00  0.00    +0.114 C 
ATOM     10  N   UNL     1      -0.011  -2.144  -6.016  0.00  0.00    -0.273 NA
BRANCH   9  14
ATOM     11  C   UNL     1       0.012  -0.705  -1.207  0.00  0.00    +0.029 A 
ATOM     12  C   UNL     1       0.034  -2.097  -1.216  0.00  0.00    +0.024 A 
ATOM     13  C   UNL     1       0.034  -2.779  -2.411  0.00  0.00    +0.011 A 
ATOM     14  C   UNL     1       0.011  -2.073  -3.618  0.00  0.00    -0.007 A 
ATOM     15  C   UNL     1      -0.012  -0.675  -3.605  0.00  0.00    +0.011 A 
ATOM     16  C   UNL     1      -0.017   0.001  -2.406  0.00  0.00    +0.024 A 
BRANCH  11  18
ATOM     17  C   UNL     1      -0.018   1.446   0.015  0.00  0.00    +0.129 C 
ATOM     18  N   UNL     1       0.012  -0.019   0.004  0.00  0.00    -0.336 N 
ATOM     19  C   UNL     1       0.042  -0.760   1.266  0.00  0.00    +0.129 C 
ENDBRANCH  11  18
ENDBRANCH   9  14
ENDBRANCH   1  10
BRANCH   4  20
ATOM     20  C   UNL     1      -1.656  -2.840 -10.453  0.00  0.00    +0.116 C 
BRANCH  20  21
ATOM     21  C   UNL     1      -1.537  -2.140 -11.782  0.00  0.00    +0.219 C 
ATOM     22  O   UNL     1      -1.037  -1.037 -11.844  0.00  0.00    -0.275 OA
ATOM     23  N   UNL     1      -1.986  -2.740 -12.902  0.00  0.00    -0.285 N 
ATOM     24  H   UNL     1      -2.324  -3.649 -12.864  0.00  0.00    +0.155 HD
BRANCH  23  25
ATOM     25  C   UNL     1      -1.964  -2.053 -14.121  0.00  0.00    +0.034 A 
ATOM     26  C   UNL     1      -2.979  -2.250 -15.049  0.00  0.00    +0.025 A 
ATOM     27  C   UNL     1      -2.955  -1.570 -16.251  0.00  0.00    +0.034 A 
ATOM     28  C   UNL     1      -1.922  -0.694 -16.531  0.00  0.00    +0.126 A 
ATOM     29  C   UNL     1      -0.910  -0.496 -15.609  0.00  0.00    +0.034 A 
ATOM     30  C   UNL     1      -0.932  -1.169 -14.403  0.00  0.00    +0.025 A 
BRANCH  28  31
ATOM     31  N   UNL     1      -1.899   0.033 -17.820  0.00  0.00    +0.056 N 
ATOM     32  O   UNL     1      -2.783  -0.140 -18.627  0.00  0.00    -0.126 OA
ATOM     33  O   UNL     1      -0.997   0.799 -18.066  0.00  0.00    -0.126 OA
ENDBRANCH  28  31
ENDBRANCH  23  25
ENDBRANCH  20  21
ENDBRANCH   4  20
TORSDOF 7
