REMARK  Name = ZINC37742615
REMARK  3 active torsions:
REMARK  status: ('A' for Active; 'I' for Inactive)
REMARK    1  A    between atoms: C_8  and  C_13
REMARK    2  A    between atoms: N_9  and  C_10
REMARK    3  A    between atoms: C_18  and  N_19
REMARK                            x       y       z     vdW  Elec       q    Type
REMARK                         _______ _______ _______ _____ _____    ______ ____
ROOT
ATOM      1  C   UNL     1      -0.027   1.335   0.449  0.00  0.00    +0.002 A 
ATOM      2  C   UNL     1       1.140   2.068   0.292  0.00  0.00    +0.002 A 
ATOM      3  C   UNL     1       2.344   1.430   0.084  0.00  0.00    +0.028 A 
ATOM      4  C   UNL     1       2.388   0.044   0.032  0.00  0.00    +0.069 A 
ATOM      5  C   UNL     1       1.206  -0.700   0.192  0.00  0.00    +0.090 A 
ATOM      6  C   UNL     1      -0.004  -0.030   0.401  0.00  0.00    +0.030 A 
ATOM      7  N   UNL     1       1.541  -2.010   0.097  0.00  0.00    -0.227 NA
ATOM      8  C   UNL     1       2.831  -2.121  -0.108  0.00  0.00    +0.144 A 
ATOM      9  N   UNL     1       3.401  -0.877  -0.156  0.00  0.00    -0.320 N 
ENDROOT
BRANCH   8  10
ATOM     10  C   UNL     1       3.560  -3.396  -0.263  0.00  0.00    +0.038 A 
ATOM     11  C   UNL     1       4.732  -3.627   0.459  0.00  0.00    +0.014 A 
ATOM     12  C   UNL     1       5.409  -4.819   0.310  0.00  0.00    +0.016 A 
ATOM     13  C   UNL     1       4.930  -5.792  -0.553  0.00  0.00    +0.020 A 
ATOM     14  C   UNL     1       3.771  -5.577  -1.274  0.00  0.00    +0.038 A 
ATOM     15  C   UNL     1       3.075  -4.385  -1.132  0.00  0.00    +0.036 A 
ATOM     16 BR   UNL     1       5.869  -7.421  -0.747  0.00  0.00    -0.050 Br
BRANCH  15  17
ATOM     17  N   UNL     1       1.903  -4.169  -1.852  0.00  0.00    -0.357 N 
ATOM     18  H   UNL     1       1.466  -3.303  -1.819  0.00  0.00    +0.142 HD
ATOM     19  H   UNL     1       1.524  -4.883  -2.387  0.00  0.00    +0.142 HD
ENDBRANCH  15  17
ENDBRANCH   8  10
BRANCH   9  20
ATOM     20  C   UNL     1       4.820  -0.578  -0.368  0.00  0.00    +0.089 C 
ATOM     21  C   UNL     1       5.169   0.499  -1.396  0.00  0.00    +0.027 C 
ATOM     22  C   UNL     1       5.432  -0.974  -1.713  0.00  0.00    +0.027 C 
ENDBRANCH   9  20
TORSDOF 3
