REMARK  Name = ZINC65192924
REMARK  5 active torsions:
REMARK  status: ('A' for Active; 'I' for Inactive)
REMARK    1  A    between atoms: C_1  and  C_2
REMARK    2  A    between atoms: C_10  and  C_11
REMARK    3  A    between atoms: N_13  and  N_14
REMARK    4  A    between atoms: N_17  and  C_18
REMARK    5  A    between atoms: C_18  and  C_19
REMARK                            x       y       z     vdW  Elec       q    Type
REMARK                         _______ _______ _______ _____ _____    ______ ____
ROOT
ATOM      1  C   UNL     1       0.029  -0.162   2.546  0.00  0.00    +0.267 C 
ATOM      2  O   UNL     1       0.015   1.040   2.734  0.00  0.00    -0.268 OA
ATOM      3  N   UNL     1       0.051  -1.008   3.595  0.00  0.00    -0.229 N 
ATOM      4  H   UNL     1       0.063  -1.966   3.445  0.00  0.00    +0.173 HD
ENDROOT
BRANCH   1  14
ATOM      5  C   UNL     1      -0.018   1.503   0.010  0.00  0.00    +0.046 C 
ATOM      6  C   UNL     1       0.002  -0.004   0.002  0.00  0.00    -0.021 A 
ATOM      7  C   UNL     1       0.005  -0.701  -1.219  0.00  0.00    +0.028 A 
ATOM      8  C   UNL     1      -0.009  -0.167  -2.536  0.00  0.00    +0.132 A 
ATOM      9  C   UNL     1      -0.004  -0.998  -3.625  0.00  0.00    +0.039 A 
ATOM     10  C   UNL     1       0.015  -2.380  -3.483  0.00  0.00    +0.004 A 
ATOM     11  C   UNL     1       0.031  -2.934  -2.219  0.00  0.00    +0.016 A 
ATOM     12  C   UNL     1       0.025  -2.112  -1.113  0.00  0.00    +0.023 A 
ATOM     13  S   UNL     1       0.039  -2.393   0.640  0.00  0.00    -0.083 S 
ATOM     14  C   UNL     1       0.023  -0.691   1.175  0.00  0.00    +0.079 A 
ATOM     15  F   UNL     1      -0.029   1.172  -2.715  0.00  0.00    -0.205 F 
ENDBRANCH   1  14
BRANCH   3  16
ATOM     16  N   UNL     1       0.057  -0.503   4.902  0.00  0.00    -0.218 N 
ATOM     17  C   UNL     1       0.079  -1.349   5.951  0.00  0.00    +0.316 C 
ATOM     18  O   UNL     1       0.084  -0.911   7.085  0.00  0.00    -0.251 OA
ATOM     19  N   UNL     1       0.095  -2.680   5.742  0.00  0.00    -0.298 N 
ATOM     20  H   UNL     1       0.046   0.455   5.052  0.00  0.00    +0.174 HD
ATOM     21  H   UNL     1       0.091  -3.030   4.838  0.00  0.00    +0.150 HD
BRANCH  19  22
ATOM     22  C   UNL     1       0.119  -3.600   6.883  0.00  0.00    +0.109 C 
BRANCH  22  23
ATOM     23  C   UNL     1       0.134  -5.043   6.374  0.00  0.00    +0.006 C 
ATOM     24  C   UNL     1      -1.067  -5.926   6.719  0.00  0.00    +0.005 C 
ATOM     25  C   UNL     1       0.278  -6.157   7.413  0.00  0.00    +0.005 C 
ENDBRANCH  22  23
ENDBRANCH  19  22
ENDBRANCH   3  16
TORSDOF 4
