REMARK  Name = ZINC63557209
REMARK  9 active torsions:
REMARK  status: ('A' for Active; 'I' for Inactive)
REMARK    1  A    between atoms: C_1  and  C_2
REMARK    2  A    between atoms: C_2  and  C_3
REMARK    3  A    between atoms: C_2  and  C_4
REMARK    4  A    between atoms: C_4  and  C_5
REMARK    5  A    between atoms: C_9  and  N_12
REMARK    6  A    between atoms: C_13  and  C_15
REMARK    7  A    between atoms: N_20  and  C_22
REMARK    8  A    between atoms: C_22  and  C_23
REMARK    9  A    between atoms: C_23  and  C_24
REMARK                            x       y       z     vdW  Elec       q    Type
REMARK                         _______ _______ _______ _____ _____    ______ ____
ROOT
ATOM      1  C   UNL     1       4.398   3.203  -5.630  0.00  0.00    +0.101 C 
ATOM      2  C   UNL     1       3.475   2.348  -6.529  0.00  0.00    +0.110 C 
ATOM      3  C   UNL     1       3.978   2.609  -7.932  0.00  0.00    +0.216 C 
ATOM      4  O   UNL     1       3.365   2.358  -8.948  0.00  0.00    -0.276 OA
ATOM      5  N   UNL     1       5.203   3.161  -7.888  0.00  0.00    -0.300 N 
ATOM      6  C   UNL     1       5.665   3.326  -6.505  0.00  0.00    +0.121 C 
ENDROOT
BRANCH   1   8
ATOM      7  N   UNL     1       3.710   2.229  -3.463  0.00  0.00    -0.290 N 
ATOM      8  C   UNL     1       4.702   2.491  -4.337  0.00  0.00    +0.220 C 
ATOM      9  O   UNL     1       5.839   2.153  -4.084  0.00  0.00    -0.275 OA
ATOM     10  H   UNL     1       2.801   2.499  -3.666  0.00  0.00    +0.151 HD
BRANCH   7  14
ATOM     11  C   UNL     1       2.230  -0.292  -1.091  0.00  0.00    +0.130 C 
ATOM     12  N   UNL     1       2.958  -0.664  -2.345  0.00  0.00    -0.241 NA
ATOM     13  N   UNL     1       4.210   0.079  -2.434  0.00  0.00    -0.227 NA
ATOM     14  C   UNL     1       4.006   1.536  -2.206  0.00  0.00    +0.216 C 
ATOM     15  S   UNL     1       2.537   1.528  -1.091  0.00  0.00    -0.102 S 
ATOM     16  H   UNL     1       3.124  -1.658  -2.385  0.00  0.00    +0.142 HD
ATOM     17  H   UNL     1       4.897  -0.294  -1.796  0.00  0.00    +0.143 HD
BRANCH  11  18
ATOM     18  C   UNL     1       0.737  -0.607  -1.197  0.00  0.00    +0.034 C 
BRANCH  18  20
ATOM     19  C   UNL     1      -1.490  -0.293  -0.108  0.00  0.00    +0.007 C 
ATOM     20  C   UNL     1       0.020  -0.107   0.059  0.00  0.00    -0.015 C 
ATOM     21  C   UNL     1       0.501  -0.905   1.272  0.00  0.00    +0.007 C 
ENDBRANCH  18  20
ENDBRANCH  11  18
ENDBRANCH   7  14
ENDBRANCH   1   8
BRANCH   5  22
ATOM     22  C   UNL     1       5.978   3.549  -9.070  0.00  0.00    +0.112 C 
BRANCH  22  23
ATOM     23  C   UNL     1       5.654   4.998  -9.439  0.00  0.00    +0.052 C 
BRANCH  23  24
ATOM     24  C   UNL     1       6.451   5.397 -10.654  0.00  0.00    -0.040 C 
ATOM     25  C   UNL     1       6.040   5.363 -11.942  0.00  0.00    +0.002 A 
ATOM     26  C   UNL     1       4.778   4.960 -12.573  0.00  0.00    +0.048 A 
ATOM     27  C   UNL     1       4.662   5.038 -13.920  0.00  0.00    +0.124 A 
ATOM     28  C   UNL     1       5.717   5.494 -14.725  0.00  0.00    +0.040 A 
ATOM     29  C   UNL     1       6.906   5.881 -14.217  0.00  0.00    +0.029 A 
ATOM     30  C   UNL     1       7.137   5.841 -12.814  0.00  0.00    +0.043 A 
ATOM     31  N   UNL     1       8.185   6.157 -12.093  0.00  0.00    -0.380 N 
ATOM     32  C   UNL     1       7.869   5.923 -10.680  0.00  0.00    +0.144 C 
ATOM     33  F   UNL     1       3.501   4.667 -14.503  0.00  0.00    -0.205 F 
ATOM     34  H   UNL     1       9.027   6.494 -12.436  0.00  0.00    +0.160 HD
ENDBRANCH  23  24
ENDBRANCH  22  23
ENDBRANCH   5  22
TORSDOF 7
