REMARK  Name = ZINC39664691
REMARK  9 active torsions:
REMARK  status: ('A' for Active; 'I' for Inactive)
REMARK    1  A    between atoms: C_1  and  N_2
REMARK    2  A    between atoms: N_2  and  C_3
REMARK    3  A    between atoms: N_2  and  C_4
REMARK    4  A    between atoms: C_4  and  C_5
REMARK    5  A    between atoms: C_5  and  C_7
REMARK    6  A    between atoms: C_5  and  N_13
REMARK    7  A    between atoms: C_14  and  C_16
REMARK    8  A    between atoms: C_27  and  C_29
REMARK    9  A    between atoms: C_29  and  C_30
REMARK                            x       y       z     vdW  Elec       q    Type
REMARK                         _______ _______ _______ _____ _____    ______ ____
ROOT
ATOM      1  C   UNL     1       1.416  -2.634  -2.485  0.00  0.00    +0.100 C 
ATOM      2  C   UNL     1       0.900  -3.957  -3.093  0.00  0.00    +0.121 C 
ATOM      3  N   UNL     1       2.099  -4.582  -3.701  0.00  0.00    -0.300 N 
ATOM      4  C   UNL     1       3.189  -4.303  -2.736  0.00  0.00    +0.115 C 
ATOM      5  C   UNL     1       2.918  -2.865  -2.251  0.00  0.00    -0.004 C 
ATOM      6  C   UNL     1       3.248  -2.739  -0.766  0.00  0.00    -0.010 C 
ATOM      7  C   UNL     1       4.755  -2.915  -0.566  0.00  0.00    -0.082 C 
ATOM      8  N   UNL     1       5.476  -1.895  -1.336  0.00  0.00    +0.379 N 
ATOM      9  C   UNL     1       5.227  -2.082  -2.771  0.00  0.00    -0.082 C 
ATOM     10  C   UNL     1       3.739  -1.870  -3.065  0.00  0.00    -0.010 C 
ATOM     11  C   UNL     1       2.179  -5.251  -4.868  0.00  0.00    +0.220 C 
ATOM     12  O   UNL     1       3.242  -5.708  -5.232  0.00  0.00    -0.275 OA
ATOM     13  H   UNL     1       5.158  -0.978  -1.058  0.00  0.00    -0.086 HD
ATOM     14  H   UNL     1       6.465  -1.974  -1.155  0.00  0.00    -0.086 HD
ENDROOT
BRANCH   1  16
ATOM     15  N   UNL     1       0.645  -3.307  -0.233  0.00  0.00    -0.310 N 
ATOM     16  C   UNL     1       0.719  -2.350  -1.179  0.00  0.00    +0.219 C 
ATOM     17  O   UNL     1       0.225  -1.260  -0.980  0.00  0.00    -0.275 OA
ATOM     18  H   UNL     1       1.086  -4.160  -0.370  0.00  0.00    +0.149 HD
BRANCH  15  19
ATOM     19  C   UNL     1      -0.103  -3.059   1.002  0.00  0.00    +0.087 C 
BRANCH  19  20
ATOM     20  C   UNL     1       0.676  -3.593   2.177  0.00  0.00    -0.029 A 
ATOM     21  C   UNL     1       1.351  -4.795   2.070  0.00  0.00    +0.005 A 
ATOM     22  C   UNL     1       2.066  -5.285   3.147  0.00  0.00    +0.000 A 
ATOM     23  C   UNL     1       2.106  -4.572   4.331  0.00  0.00    +0.000 A 
ATOM     24  C   UNL     1       1.432  -3.370   4.438  0.00  0.00    +0.000 A 
ATOM     25  C   UNL     1       0.721  -2.878   3.359  0.00  0.00    +0.005 A 
ENDBRANCH  19  20
BRANCH  19  26
ATOM     26  C   UNL     1      -1.459  -3.763   0.928  0.00  0.00    -0.052 C 
BRANCH  26  28
ATOM     27  C   UNL     1      -3.424  -4.067  -0.415  0.00  0.00    -0.097 C 
ATOM     28  N   UNL     1      -2.205  -3.268  -0.237  0.00  0.00    +0.377 N 
ATOM     29  C   UNL     1      -2.569  -1.861  -0.023  0.00  0.00    -0.097 C 
ATOM     30  H   UNL     1      -1.629  -3.344  -1.062  0.00  0.00    -0.083 HD
ENDBRANCH  26  28
ENDBRANCH  19  26
ENDBRANCH  15  19
ENDBRANCH   1  16
BRANCH  11  31
ATOM     31  C   UNL     1       0.950  -5.432  -5.720  0.00  0.00    +0.131 C 
BRANCH  31  32
ATOM     32  C   UNL     1       1.307  -6.209  -6.960  0.00  0.00    -0.039 A 
ATOM     33  C   UNL     1       1.722  -5.541  -8.098  0.00  0.00    +0.005 A 
ATOM     34  C   UNL     1       2.050  -6.253  -9.236  0.00  0.00    +0.020 A 
ATOM     35  C   UNL     1       1.964  -7.634  -9.237  0.00  0.00    +0.041 A 
ATOM     36  C   UNL     1       1.549  -8.301  -8.098  0.00  0.00    +0.020 A 
ATOM     37  C   UNL     1       1.226  -7.589  -6.959  0.00  0.00    +0.005 A 
ATOM     38 CL   UNL     1       2.376  -8.529 -10.666  0.00  0.00    -0.084 Cl
ENDBRANCH  31  32
ENDBRANCH  11  31
TORSDOF 7
