REMARK  Name = ZINC36646170
REMARK  5 active torsions:
REMARK  status: ('A' for Active; 'I' for Inactive)
REMARK    1  A    between atoms: N_4  and  C_7
REMARK    2  A    between atoms: C_7  and  C_8
REMARK    3  A    between atoms: C_8  and  S_9
REMARK    4  A    between atoms: S_9  and  C_10
REMARK    5  A    between atoms: N_23  and  N_24
REMARK                            x       y       z     vdW  Elec       q    Type
REMARK                         _______ _______ _______ _____ _____    ______ ____
ROOT
ATOM      1  C   UNL     1       4.039  -4.431  -3.259  0.00  0.00    +0.190 A 
ATOM      2  N   UNL     1       3.438  -4.925  -2.195  0.00  0.00    -0.215 NA
ATOM      3  C   UNL     1       3.455  -6.230  -1.949  0.00  0.00    +0.117 A 
ATOM      4  C   UNL     1       4.105  -7.142  -2.797  0.00  0.00    +0.077 A 
ATOM      5  C   UNL     1       4.039  -8.548  -2.395  0.00  0.00    -0.023 A 
ATOM      6  C   UNL     1       3.367  -8.829  -1.260  0.00  0.00    -0.004 A 
ATOM      7  S   UNL     1       2.790  -7.261  -0.667  0.00  0.00    -0.073 S 
ATOM      8  C   UNL     1       3.156 -10.176  -0.639  0.00  0.00    +0.043 C 
ATOM      9  C   UNL     1       3.505 -11.249  -1.681  0.00  0.00    +0.005 C 
ATOM     10  C   UNL     1       4.850 -10.895  -2.320  0.00  0.00    +0.005 C 
ATOM     11  C   UNL     1       4.694  -9.661  -3.208  0.00  0.00    +0.037 C 
ATOM     12  C   UNL     1       4.747  -6.578  -3.945  0.00  0.00    +0.280 A 
ATOM     13  O   UNL     1       5.336  -7.293  -4.738  0.00  0.00    -0.265 OA
ATOM     14  N   UNL     1       4.689  -5.247  -4.139  0.00  0.00    -0.209 N 
ENDROOT
BRANCH  14  15
ATOM     15  N   UNL     1       5.295  -4.703  -5.235  0.00  0.00    -0.293 N 
ATOM     16  H   UNL     1       5.176  -3.701  -5.254  0.00  0.00    +0.163 HD
ATOM     17  H   UNL     1       6.272  -4.952  -5.269  0.00  0.00    +0.163 HD
ENDBRANCH  14  15
BRANCH   1  18
ATOM     18  S   UNL     1       3.995  -2.695  -3.554  0.00  0.00    -0.088 S 
BRANCH  18  19
ATOM     19  C   UNL     1       3.045  -2.036  -2.156  0.00  0.00    +0.059 C 
BRANCH  19  20
ATOM     20  C   UNL     1       2.930  -0.516  -2.289  0.00  0.00    -0.068 C 
BRANCH  20  24
ATOM     21  C   UNL     1      -0.019   1.527   0.010  0.00  0.00    -0.004 C 
ATOM     22  C   UNL     1       1.422   2.047  -0.001  0.00  0.00    -0.019 C 
ATOM     23  C   UNL     1       2.152   1.484  -1.221  0.00  0.00    -0.079 C 
ATOM     24  N   UNL     1       2.161   0.018  -1.157  0.00  0.00    +0.380 N 
ATOM     25  C   UNL     1       0.785  -0.491  -1.219  0.00  0.00    -0.079 C 
ATOM     26  C   UNL     1       0.002  -0.004   0.002  0.00  0.00    -0.019 C 
ATOM     27  H   UNL     1       2.589  -0.278  -0.293  0.00  0.00    -0.082 HD
ENDBRANCH  20  24
ENDBRANCH  19  20
ENDBRANCH  18  19
ENDBRANCH   1  18
TORSDOF 5
