REMARK  Name = ZINC05111256
REMARK  11 active torsions:
REMARK  status: ('A' for Active; 'I' for Inactive)
REMARK    1  A    between atoms: C_1  and  C_2
REMARK    2  A    between atoms: C_2  and  O_3
REMARK    3  A    between atoms: O_3  and  C_4
REMARK    4  A    between atoms: C_4  and  C_5
REMARK    5  A    between atoms: C_5  and  C_6
REMARK    6  A    between atoms: C_6  and  N_7
REMARK    7  A    between atoms: C_8  and  C_10
REMARK    8  A    between atoms: N_21  and  C_24
REMARK    9  A    between atoms: C_22  and  N_23
REMARK   10  A    between atoms: C_27  and  C_31
REMARK   11  A    between atoms: C_28  and  C_30
REMARK                            x       y       z     vdW  Elec       q    Type
REMARK                         _______ _______ _______ _____ _____    ______ ____
ROOT
ATOM      1  C   UNL     1      -2.443   0.876   0.018  0.00  0.00    +0.104 A 
ATOM      2  C   UNL     1      -3.191   0.414   1.199  0.00  0.00    +0.123 A 
ATOM      3  C   UNL     1      -4.369  -0.276   0.667  0.00  0.00    +0.166 A 
ATOM      4  N   UNL     1      -5.241  -0.803   1.500  0.00  0.00    -0.225 NA
ATOM      5  C   UNL     1      -5.049  -0.699   2.821  0.00  0.00    +0.092 A 
ATOM      6  C   UNL     1      -5.976  -1.259   3.719  0.00  0.00    +0.030 A 
ATOM      7  C   UNL     1      -5.773  -1.147   5.060  0.00  0.00    +0.002 A 
ATOM      8  C   UNL     1      -4.655  -0.485   5.563  0.00  0.00    +0.002 A 
ATOM      9  C   UNL     1      -3.736   0.069   4.727  0.00  0.00    +0.030 A 
ATOM     10  C   UNL     1      -3.912  -0.025   3.333  0.00  0.00    +0.090 A 
ATOM     11  N   UNL     1      -3.015   0.517   2.501  0.00  0.00    -0.241 NA
ATOM     12  N   UNL     1      -4.285  -0.215  -0.710  0.00  0.00    -0.280 N 
ATOM     13  C   UNL     1      -3.162   0.456  -1.095  0.00  0.00    +0.117 A 
ENDROOT
BRANCH  12  14
ATOM     14  C   UNL     1      -5.223  -0.768  -1.591  0.00  0.00    +0.050 A 
ATOM     15  C   UNL     1      -5.405  -2.144  -1.641  0.00  0.00    +0.026 A 
ATOM     16  C   UNL     1      -6.331  -2.686  -2.511  0.00  0.00    +0.005 A 
ATOM     17  C   UNL     1      -7.077  -1.860  -3.331  0.00  0.00    -0.047 A 
ATOM     18  C   UNL     1      -6.899  -0.489  -3.284  0.00  0.00    -0.046 A 
ATOM     19  C   UNL     1      -5.978   0.059  -2.412  0.00  0.00    +0.030 A 
ATOM     20  C   UNL     1      -7.714   0.407  -4.179  0.00  0.00    +0.044 C 
ATOM     21  C   UNL     1      -8.088  -2.454  -4.278  0.00  0.00    +0.044 C 
ENDBRANCH  12  14
BRANCH   1  23
ATOM     22  N   UNL     1      -0.011   0.966   0.007  0.00  0.00    -0.311 N 
ATOM     23  C   UNL     1      -1.187   1.624   0.017  0.00  0.00    +0.250 C 
ATOM     24  O   UNL     1      -1.204   2.841   0.023  0.00  0.00    -0.270 OA
ATOM     25  H   UNL     1       0.002  -0.004   0.002  0.00  0.00    +0.149 HD
BRANCH  22  26
ATOM     26  C   UNL     1       1.248   1.716  -0.001  0.00  0.00    +0.107 C 
BRANCH  26  27
ATOM     27  C   UNL     1       2.424   0.737  -0.017  0.00  0.00    +0.047 C 
BRANCH  27  28
ATOM     28  C   UNL     1       3.738   1.520  -0.025  0.00  0.00    +0.161 C 
BRANCH  28  29
ATOM     29  O   UNL     1       4.837   0.607  -0.041  0.00  0.00    -0.380 OA
BRANCH  29  31
ATOM     30  C   UNL     1       7.214   0.170  -0.066  0.00  0.00    +0.034 C 
ATOM     31  C   UNL     1       6.118   1.238  -0.050  0.00  0.00    +0.156 C 
ENDBRANCH  29  31
ENDBRANCH  28  29
ENDBRANCH  27  28
ENDBRANCH  26  27
ENDBRANCH  22  26
ENDBRANCH   1  23
BRANCH  13  32
ATOM     32  N   UNL     1      -2.795   0.685  -2.395  0.00  0.00    -0.343 N 
ATOM     33  H   UNL     1      -1.979   1.172  -2.590  0.00  0.00    +0.144 HD
ATOM     34  H   UNL     1      -3.351   0.360  -3.121  0.00  0.00    +0.144 HD
ENDBRANCH  13  32
TORSDOF 8
