REMARK  Name = ZINC12462654
REMARK  7 active torsions:
REMARK  status: ('A' for Active; 'I' for Inactive)
REMARK    1  A    between atoms: C_1  and  C_2
REMARK    2  A    between atoms: C_11  and  C_22
REMARK    3  A    between atoms: C_17  and  N_21
REMARK    4  A    between atoms: C_18  and  C_19
REMARK    5  A    between atoms: C_22  and  C_23
REMARK    6  A    between atoms: C_23  and  O_25
REMARK    7  A    between atoms: O_25  and  C_26
REMARK                            x       y       z     vdW  Elec       q    Type
REMARK                         _______ _______ _______ _____ _____    ______ ____
ROOT
ATOM      1  C   UNL     1      -0.018   1.503   0.010  0.00  0.00    +0.045 C 
ATOM      2  C   UNL     1       0.002  -0.004   0.002  0.00  0.00    -0.036 A 
ATOM      3  C   UNL     1       0.005  -0.673  -1.205  0.00  0.00    +0.006 A 
ATOM      4  C   UNL     1       0.024  -2.057  -1.277  0.00  0.00    +0.024 A 
ATOM      5  C   UNL     1       0.039  -2.760  -0.070  0.00  0.00    +0.039 A 
ATOM      6  C   UNL     1       0.036  -2.070   1.148  0.00  0.00    +0.013 A 
ATOM      7  C   UNL     1       0.023  -0.692   1.212  0.00  0.00    +0.027 A 
ATOM      8 BR   UNL     1       0.026   0.221   2.868  0.00  0.00    -0.050 Br
ATOM      9  C   UNL     1       0.057  -3.113   2.218  0.00  0.00    +0.146 C 
ATOM     10  C   UNL     1      -1.161  -3.026   3.095  0.00  0.00    +0.062 A 
ATOM     11  C   UNL     1      -2.447  -3.283   2.816  0.00  0.00    +0.055 A 
ATOM     12  N   UNL     1      -3.166  -3.058   3.940  0.00  0.00    -0.277 N 
ATOM     13  H   UNL     1      -4.125  -3.163   4.033  0.00  0.00    +0.189 HD
ATOM     14  N   UNL     1      -2.280  -2.645   4.948  0.00  0.00    -0.135 NA
ATOM     15  C   UNL     1      -1.079  -2.624   4.449  0.00  0.00    +0.245 A 
ATOM     16  O   UNL     1       0.105  -2.294   5.030  0.00  0.00    -0.421 OA
ATOM     17  C   UNL     1       1.238  -2.608   4.370  0.00  0.00    +0.201 C 
ATOM     18  C   UNL     1       1.286  -2.993   3.076  0.00  0.00    +0.110 C 
ATOM     19  C   UNL     1       0.069  -4.426   1.466  0.00  0.00    +0.238 C 
ATOM     20  O   UNL     1       0.085  -5.536   1.953  0.00  0.00    -0.274 OA
ATOM     21  N   UNL     1       0.059  -4.125   0.150  0.00  0.00    -0.284 N 
ATOM     22  H   UNL     1       0.064  -4.789  -0.557  0.00  0.00    +0.155 HD
ENDROOT
BRANCH  17  23
ATOM     23  N   UNL     1       2.422  -2.530   5.059  0.00  0.00    -0.328 N 
ATOM     24  H   UNL     1       2.425  -2.257   5.990  0.00  0.00    +0.145 HD
ATOM     25  H   UNL     1       3.257  -2.749   4.616  0.00  0.00    +0.145 HD
ENDBRANCH  17  23
BRANCH  18  26
ATOM     26  C   UNL     1       2.559  -3.299   2.497  0.00  0.00    +0.102 C 
ATOM     27  N   UNL     1       3.570  -3.542   2.038  0.00  0.00    -0.191 NA
ENDBRANCH  18  26
BRANCH  11  28
ATOM     28  C   UNL     1      -2.994  -3.741   1.488  0.00  0.00    +0.175 C 
BRANCH  28  29
ATOM     29  C   UNL     1      -2.877  -5.240   1.387  0.00  0.00    +0.313 C 
ATOM     30  O   UNL     1      -2.398  -5.872   2.299  0.00  0.00    -0.250 OA
BRANCH  29  31
ATOM     31  O   UNL     1      -3.304  -5.874   0.283  0.00  0.00    -0.468 OA
ATOM     32  C   UNL     1      -3.162  -7.295   0.255  0.00  0.00    +0.280 C 
ENDBRANCH  29  31
ENDBRANCH  28  29
ENDBRANCH  11  28
TORSDOF 5
