REMARK  Name = ZINC09802130
REMARK  6 active torsions:
REMARK  status: ('A' for Active; 'I' for Inactive)
REMARK    1  A    between atoms: C_13  and  N_14
REMARK    2  A    between atoms: C_15  and  C_17
REMARK    3  A    between atoms: C_17  and  S_18
REMARK    4  A    between atoms: S_18  and  C_19
REMARK    5  A    between atoms: C_22  and  C_25
REMARK    6  A    between atoms: N_23  and  N_24
REMARK                            x       y       z     vdW  Elec       q    Type
REMARK                         _______ _______ _______ _____ _____    ______ ____
ROOT
ATOM      1  N   UNL     1      -0.321   5.941   1.238  0.00  0.00    -0.304 N 
ATOM      2  C   UNL     1      -1.589   6.396   1.247  0.00  0.00    +0.224 C 
ATOM      3  O   UNL     1      -2.277   6.294   0.253  0.00  0.00    -0.275 OA
ATOM      4  H   UNL     1       0.230   6.023   2.033  0.00  0.00    +0.150 HD
ENDROOT
BRANCH   1  17
ATOM      5  C   UNL     1      -0.013   1.076   0.008  0.00  0.00    +0.001 A 
ATOM      6  C   UNL     1      -1.221   1.748   0.017  0.00  0.00    +0.000 A 
ATOM      7  C   UNL     1      -1.246   3.132   0.030  0.00  0.00    +0.006 A 
ATOM      8  C   UNL     1      -0.064   3.843   0.023  0.00  0.00    -0.015 A 
ATOM      9  C   UNL     1       1.157   3.175   0.008  0.00  0.00    -0.012 A 
ATOM     10  C   UNL     1       1.174   1.779   0.000  0.00  0.00    +0.009 A 
ATOM     11  C   UNL     1       2.262   4.166   0.002  0.00  0.00    -0.012 A 
ATOM     12  C   UNL     1       3.648   3.998  -0.013  0.00  0.00    +0.009 A 
ATOM     13  C   UNL     1       4.476   5.101  -0.015  0.00  0.00    +0.001 A 
ATOM     14  C   UNL     1       3.938   6.376  -0.003  0.00  0.00    +0.000 A 
ATOM     15  C   UNL     1       2.566   6.550   0.011  0.00  0.00    +0.006 A 
ATOM     16  C   UNL     1       1.731   5.452   0.014  0.00  0.00    -0.015 A 
ATOM     17  C   UNL     1       0.227   5.323   0.028  0.00  0.00    +0.135 C 
ENDBRANCH   1  17
BRANCH   2  18
ATOM     18  C   UNL     1      -2.153   7.032   2.491  0.00  0.00    +0.173 C 
BRANCH  18  19
ATOM     19  S   UNL     1      -3.865   7.536   2.189  0.00  0.00    -0.075 S 
BRANCH  19  20
ATOM     20  C   UNL     1      -4.263   8.227   3.761  0.00  0.00    +0.209 A 
ATOM     21  N   UNL     1      -3.469   8.302   4.803  0.00  0.00    -0.121 NA
ATOM     22  N   UNL     1      -4.084   8.868   5.780  0.00  0.00    -0.123 NA
ATOM     23  C   UNL     1      -5.299   9.177   5.425  0.00  0.00    +0.255 A 
ATOM     24  N   UNL     1      -5.457   8.780   4.126  0.00  0.00    -0.220 N 
BRANCH  23  25
ATOM     25  C   UNL     1      -6.338   9.847   6.286  0.00  0.00    +0.454 C 
ATOM     26  F   UNL     1      -5.722  10.402   7.413  0.00  0.00    -0.163 F 
ATOM     27  F   UNL     1      -6.969  10.858   5.554  0.00  0.00    -0.163 F 
ATOM     28  F   UNL     1      -7.288   8.903   6.691  0.00  0.00    -0.163 F 
ENDBRANCH  23  25
BRANCH  24  29
ATOM     29  N   UNL     1      -6.576   8.909   3.354  0.00  0.00    -0.295 N 
ATOM     30  H   UNL     1      -7.173   8.100   3.444  0.00  0.00    +0.163 HD
ATOM     31  H   UNL     1      -7.077   9.755   3.582  0.00  0.00    +0.163 HD
ENDBRANCH  24  29
ENDBRANCH  19  20
ENDBRANCH  18  19
ENDBRANCH   2  18
TORSDOF 6
