REMARK  Name = ZINC02974778
REMARK  5 active torsions:
REMARK  status: ('A' for Active; 'I' for Inactive)
REMARK    1  A    between atoms: C_1  and  C_2
REMARK    2  A    between atoms: C_5  and  N_8
REMARK    3  A    between atoms: C_10  and  C_23
REMARK    4  A    between atoms: C_16  and  N_17
REMARK    5  A    between atoms: N_17  and  C_18
REMARK                            x       y       z     vdW  Elec       q    Type
REMARK                         _______ _______ _______ _____ _____    ______ ____
ROOT
ATOM      1  N   UNL     1       0.058  -4.171  -0.021  0.00  0.00    -0.300 N 
ATOM      2  C   UNL     1      -0.792  -4.962  -0.748  0.00  0.00    +0.102 A 
ATOM      3  C   UNL     1      -0.501  -6.268  -0.525  0.00  0.00    +0.013 A 
ATOM      4  C   UNL     1       0.624  -6.291   0.419  0.00  0.00    +0.067 A 
ATOM      5  C   UNL     1       0.934  -4.948   0.694  0.00  0.00    +0.151 A 
ATOM      6  N   UNL     1       1.936  -4.685   1.531  0.00  0.00    -0.217 NA
ATOM      7  C   UNL     1       2.622  -5.660   2.085  0.00  0.00    +0.225 A 
ATOM      8  N   UNL     1       2.366  -6.935   1.852  0.00  0.00    -0.220 NA
ATOM      9  C   UNL     1       1.379  -7.297   1.036  0.00  0.00    +0.132 A 
ENDROOT
BRANCH   1  14
ATOM     10  C   UNL     1      -0.018   1.503   0.010  0.00  0.00    +0.044 C 
ATOM     11  C   UNL     1       0.002  -0.004   0.002  0.00  0.00    -0.050 A 
ATOM     12  C   UNL     1       0.006  -0.687  -1.200  0.00  0.00    +0.005 A 
ATOM     13  C   UNL     1       0.024  -2.068  -1.211  0.00  0.00    +0.026 A 
ATOM     14  C   UNL     1       0.040  -2.771  -0.013  0.00  0.00    +0.048 A 
ATOM     15  C   UNL     1       0.036  -2.082   1.192  0.00  0.00    +0.026 A 
ATOM     16  C   UNL     1       0.023  -0.700   1.196  0.00  0.00    +0.005 A 
ENDBRANCH   1  14
BRANCH   3  17
ATOM     17  C   UNL     1      -1.185  -7.441  -1.119  0.00  0.00    -0.016 A 
ATOM     18  C   UNL     1      -0.440  -8.460  -1.711  0.00  0.00    +0.008 A 
ATOM     19  C   UNL     1      -1.082  -9.550  -2.261  0.00  0.00    +0.001 A 
ATOM     20  C   UNL     1      -2.463  -9.634  -2.226  0.00  0.00    +0.000 A 
ATOM     21  C   UNL     1      -3.208  -8.626  -1.640  0.00  0.00    +0.001 A 
ATOM     22  C   UNL     1      -2.576  -7.533  -1.081  0.00  0.00    +0.008 A 
ENDBRANCH   3  17
BRANCH   9  23
ATOM     23  N   UNL     1       1.115  -8.633   0.792  0.00  0.00    -0.326 N 
ATOM     24  H   UNL     1       0.399  -8.883   0.187  0.00  0.00    +0.148 HD
BRANCH  23  25
ATOM     25  C   UNL     1       1.915  -9.669   1.448  0.00  0.00    +0.072 C 
ATOM     26  C   UNL     1       3.165  -9.986   0.601  0.00  0.00    +0.022 C 
ATOM     27  C   UNL     1       3.353 -11.516   0.759  0.00  0.00    +0.002 C 
ATOM     28  C   UNL     1       1.896 -12.041   0.756  0.00  0.00    +0.002 C 
ATOM     29  C   UNL     1       1.108 -10.976   1.547  0.00  0.00    +0.022 C 
ENDBRANCH  23  25
ENDBRANCH   9  23
TORSDOF 4
