REMARK  Name = ZINC19797058
REMARK  7 active torsions:
REMARK  status: ('A' for Active; 'I' for Inactive)
REMARK    1  A    between atoms: C_1  and  C_2
REMARK    2  A    between atoms: C_5  and  C_8
REMARK    3  A    between atoms: C_8  and  C_10
REMARK    4  A    between atoms: C_10  and  S_11
REMARK    5  A    between atoms: S_11  and  C_12
REMARK    6  A    between atoms: C_22  and  C_24
REMARK    7  A    between atoms: N_27  and  N_28
REMARK                            x       y       z     vdW  Elec       q    Type
REMARK                         _______ _______ _______ _____ _____    ______ ____
ROOT
ATOM      1  C   UNL     1       0.765   1.901   0.455  0.00  0.00    +0.190 A 
ATOM      2  N   UNL     1      -0.307   1.135   0.447  0.00  0.00    -0.215 NA
ATOM      3  C   UNL     1      -0.200  -0.184   0.334  0.00  0.00    +0.117 A 
ATOM      4  C   UNL     1       1.045  -0.825   0.216  0.00  0.00    +0.077 A 
ATOM      5  C   UNL     1       1.004  -2.284   0.099  0.00  0.00    -0.020 A 
ATOM      6  C   UNL     1      -0.213  -2.865   0.115  0.00  0.00    -0.004 A 
ATOM      7  S   UNL     1      -1.361  -1.525   0.284  0.00  0.00    -0.073 S 
ATOM      8  C   UNL     1      -0.521  -4.328   0.011  0.00  0.00    +0.043 C 
ATOM      9  C   UNL     1       0.735  -5.054  -0.489  0.00  0.00    +0.006 C 
ATOM     10  C   UNL     1       1.938  -4.575   0.329  0.00  0.00    +0.008 C 
ATOM     11  C   UNL     1       2.269  -3.127  -0.035  0.00  0.00    +0.018 C 
ATOM     12  C   UNL     1       3.345  -2.590   0.911  0.00  0.00    +0.012 C 
ATOM     13  C   UNL     1       2.191   0.031   0.227  0.00  0.00    +0.280 A 
ATOM     14  O   UNL     1       3.313  -0.436   0.130  0.00  0.00    -0.265 OA
ATOM     15  N   UNL     1       2.014   1.360   0.345  0.00  0.00    -0.209 N 
ENDROOT
BRANCH  15  16
ATOM     16  N   UNL     1       3.104   2.183   0.357  0.00  0.00    -0.293 N 
ATOM     17  H   UNL     1       4.115   1.758   0.269  0.00  0.00    +0.163 HD
ATOM     18  H   UNL     1       2.971   3.271   0.454  0.00  0.00    +0.163 HD
ENDBRANCH  15  16
BRANCH   1  19
ATOM     19  S   UNL     1       0.585   3.647   0.608  0.00  0.00    -0.078 S 
BRANCH  19  20
ATOM     20  C   UNL     1      -1.218   3.768   0.711  0.00  0.00    +0.157 C 
BRANCH  20  21
ATOM     21  C   UNL     1      -1.617   5.215   0.851  0.00  0.00    +0.173 C 
ATOM     22  O   UNL     1      -0.766   6.079   0.877  0.00  0.00    -0.291 OA
BRANCH  21  27
ATOM     23  C   UNL     1      -7.171   6.640   1.255  0.00  0.00    +0.044 C 
ATOM     24  C   UNL     1      -5.715   6.266   1.149  0.00  0.00    -0.050 A 
ATOM     25  C   UNL     1      -4.747   7.255   1.181  0.00  0.00    +0.004 A 
ATOM     26  C   UNL     1      -3.413   6.921   1.084  0.00  0.00    +0.011 A 
ATOM     27  C   UNL     1      -3.039   5.580   0.955  0.00  0.00    +0.018 A 
ATOM     28  C   UNL     1      -4.023   4.587   0.918  0.00  0.00    +0.011 A 
ATOM     29  C   UNL     1      -5.353   4.937   1.022  0.00  0.00    +0.004 A 
ENDBRANCH  21  27
ENDBRANCH  20  21
ENDBRANCH  19  20
ENDBRANCH   1  19
TORSDOF 5
