REMARK  Name = ZINC67029185
REMARK  11 active torsions:
REMARK  status: ('A' for Active; 'I' for Inactive)
REMARK    1  A    between atoms: C_1  and  C_2
REMARK    2  A    between atoms: C_3  and  C_23
REMARK    3  A    between atoms: C_4  and  C_10
REMARK    4  A    between atoms: C_14  and  O_16
REMARK    5  A    between atoms: O_16  and  C_17
REMARK    6  A    between atoms: C_17  and  C_19
REMARK    7  A    between atoms: C_17  and  C_20
REMARK    8  A    between atoms: C_23  and  O_25
REMARK    9  A    between atoms: O_25  and  C_26
REMARK   10  A    between atoms: C_26  and  C_27
REMARK   11  A    between atoms: C_26  and  C_28
REMARK                            x       y       z     vdW  Elec       q    Type
REMARK                         _______ _______ _______ _____ _____    ______ ____
ROOT
ATOM      1  C   UNL     1       0.685   0.864  -0.224  0.00  0.00    +0.061 C 
ATOM      2  C   UNL     1       0.476  -0.623  -0.100  0.00  0.00    +0.019 C 
ATOM      3  C   UNL     1      -0.780  -1.120  -0.099  0.00  0.00    +0.078 C 
ATOM      4  C   UNL     1      -0.945  -2.621   0.028  0.00  0.00    +0.141 C 
ATOM      5  N   UNL     1       0.288  -3.420   0.140  0.00  0.00    -0.315 N 
ATOM      6  C   UNL     1       1.472  -2.777   0.124  0.00  0.00    +0.135 C 
ATOM      7  S   UNL     1       2.913  -3.693   0.254  0.00  0.00    -0.019 S 
ATOM      8  N   UNL     1       1.559  -1.446   0.004  0.00  0.00    -0.300 N 
ATOM      9  H   UNL     1       0.248  -4.385   0.225  0.00  0.00    +0.149 HD
ATOM     10  H   UNL     1       2.442  -1.044  -0.005  0.00  0.00    +0.154 HD
ENDROOT
BRANCH   4  11
ATOM     11  C   UNL     1      -1.705  -3.109  -1.178  0.00  0.00    -0.019 A 
ATOM     12  C   UNL     1      -1.046  -3.303  -2.378  0.00  0.00    +0.006 A 
ATOM     13  C   UNL     1      -1.741  -3.750  -3.486  0.00  0.00    +0.004 A 
ATOM     14  C   UNL     1      -3.096  -4.004  -3.397  0.00  0.00    +0.046 A 
ATOM     15  C   UNL     1      -3.760  -3.810  -2.195  0.00  0.00    +0.122 A 
ATOM     16  C   UNL     1      -3.059  -3.367  -1.082  0.00  0.00    +0.051 A 
BRANCH  15  17
ATOM     17  O   UNL     1      -5.093  -4.059  -2.105  0.00  0.00    -0.478 OA
BRANCH  17  18
ATOM     18  C   UNL     1      -5.771  -4.404  -3.314  0.00  0.00    +0.282 C 
ATOM     19  C   UNL     1      -5.624  -5.905  -3.570  0.00  0.00    +0.064 C 
BRANCH  18  20
ATOM     20  C   UNL     1      -7.232  -4.057  -3.187  0.00  0.00    +0.395 C 
ATOM     21  O   UNL     1      -7.975  -4.188  -4.144  0.00  0.00    -0.242 OA
ATOM     22  O   UNL     1      -7.671  -3.645  -2.127  0.00  0.00    -0.242 OA
ENDBRANCH  18  20
ENDBRANCH  17  18
ENDBRANCH  15  17
ENDBRANCH   4  11
BRANCH   3  23
ATOM     23  C   UNL     1      -1.903  -0.268  -0.211  0.00  0.00    +0.339 C 
ATOM     24  O   UNL     1      -1.748   0.934  -0.312  0.00  0.00    -0.245 OA
BRANCH  23  25
ATOM     25  O   UNL     1      -3.148  -0.789  -0.208  0.00  0.00    -0.459 OA
BRANCH  25  26
ATOM     26  C   UNL     1      -4.237   0.129  -0.325  0.00  0.00    +0.171 C 
ATOM     27  C   UNL     1      -5.409  -0.556  -1.029  0.00  0.00    +0.052 C 
ATOM     28  C   UNL     1      -4.674   0.583   1.069  0.00  0.00    +0.052 C 
ENDBRANCH  25  26
ENDBRANCH  23  25
ENDBRANCH   3  23
TORSDOF 7
