REMARK  Name = ZINC13657876
REMARK  9 active torsions:
REMARK  status: ('A' for Active; 'I' for Inactive)
REMARK    1  A    between atoms: C_1  and  C_2
REMARK    2  A    between atoms: C_2  and  C_3
REMARK    3  A    between atoms: C_2  and  C_4
REMARK    4  A    between atoms: C_2  and  N_5
REMARK    5  A    between atoms: N_5  and  C_6
REMARK    6  A    between atoms: C_6  and  N_8
REMARK    7  A    between atoms: N_8  and  N_9
REMARK    8  A    between atoms: C_10  and  C_11
REMARK    9  A    between atoms: C_14  and  O_18
REMARK                            x       y       z     vdW  Elec       q    Type
REMARK                         _______ _______ _______ _____ _____    ______ ____
ROOT
ATOM      1  N   UNL     1       1.956  -1.940  -3.147  0.00  0.00    -0.188 NA
ATOM      2  C   UNL     1       2.582  -2.561  -4.100  0.00  0.00    +0.138 C 
ENDROOT
BRANCH   2   3
ATOM      3  C   UNL     1       1.845  -3.474  -4.992  0.00  0.00    -0.003 A 
ATOM      4  C   UNL     1       0.472  -3.669  -4.817  0.00  0.00    +0.028 A 
ATOM      5  C   UNL     1      -0.213  -4.524  -5.654  0.00  0.00    +0.061 A 
ATOM      6  C   UNL     1       0.459  -5.192  -6.670  0.00  0.00    +0.145 A 
ATOM      7  C   UNL     1       1.824  -5.002  -6.848  0.00  0.00    +0.061 A 
ATOM      8  C   UNL     1       2.516  -4.144  -6.019  0.00  0.00    +0.028 A 
ATOM      9 BR   UNL     1       2.732  -5.915  -8.232  0.00  0.00    -0.046 Br
ATOM     10 BR   UNL     1      -2.071  -4.788  -5.418  0.00  0.00    -0.046 Br
BRANCH   6  11
ATOM     11  O   UNL     1      -0.220  -6.034  -7.493  0.00  0.00    -0.505 OA
ATOM     12  H   UNL     1      -0.582  -5.606  -8.281  0.00  0.00    +0.292 HD
ENDBRANCH   6  11
ENDBRANCH   2   3
BRANCH   1  13
ATOM     13  N   UNL     1       2.657  -1.071  -2.300  0.00  0.00    -0.218 N 
ATOM     14  H   UNL     1       3.609  -0.934  -2.425  0.00  0.00    +0.176 HD
BRANCH  13  15
ATOM     15  C   UNL     1       2.007  -0.426  -1.310  0.00  0.00    +0.150 C 
ATOM     16  S   UNL     1       2.863   0.635  -0.274  0.00  0.00    -0.017 S 
BRANCH  15  17
ATOM     17  N   UNL     1       0.684  -0.617  -1.136  0.00  0.00    -0.321 N 
ATOM     18  H   UNL     1       0.186  -1.160  -1.766  0.00  0.00    +0.148 HD
BRANCH  17  20
ATOM     19  C   UNL     1       0.090   1.519  -0.104  0.00  0.00    +0.031 C 
ATOM     20  C   UNL     1       0.000  -0.004   0.005  0.00  0.00    +0.025 C 
ATOM     21  C   UNL     1       0.665  -0.462   1.305  0.00  0.00    +0.031 C 
ATOM     22  C   UNL     1      -1.470  -0.429   0.007  0.00  0.00    +0.031 C 
ENDBRANCH  17  20
ENDBRANCH  15  17
ENDBRANCH  13  15
ENDBRANCH   1  13
TORSDOF 6
