REMARK  Name = ZINC38748424
REMARK  9 active torsions:
REMARK  status: ('A' for Active; 'I' for Inactive)
REMARK    1  A    between atoms: C_1  and  O_2
REMARK    2  A    between atoms: O_2  and  C_3
REMARK    3  A    between atoms: C_5  and  C_13
REMARK    4  A    between atoms: C_7  and  O_11
REMARK    5  A    between atoms: C_8  and  O_9
REMARK    6  A    between atoms: O_9  and  C_10
REMARK    7  A    between atoms: O_11  and  C_12
REMARK    8  A    between atoms: C_28  and  N_32
REMARK    9  A    between atoms: C_29  and  C_30
REMARK                            x       y       z     vdW  Elec       q    Type
REMARK                         _______ _______ _______ _____ _____    ______ ____
ROOT
ATOM      1  C   UNL     1      -4.871   0.264   0.038  0.00  0.00    +0.084 C 
ATOM      2  C   UNL     1      -5.696  -0.070  -1.209  0.00  0.00    +0.154 C 
ATOM      3  C   UNL     1      -7.092   0.456  -0.921  0.00  0.00    +0.129 C 
ATOM      4  C   UNL     1      -7.620   1.408  -1.780  0.00  0.00    +0.035 A 
ATOM      5  C   UNL     1      -8.917   1.930  -1.589  0.00  0.00    +0.013 A 
ATOM      6  C   UNL     1      -9.403   2.858  -2.457  0.00  0.00    +0.001 A 
ATOM      7  C   UNL     1      -8.646   3.308  -3.534  0.00  0.00    +0.002 A 
ATOM      8  C   UNL     1      -7.386   2.844  -3.770  0.00  0.00    +0.024 A 
ATOM      9  C   UNL     1      -6.819   1.886  -2.914  0.00  0.00    +0.044 A 
ATOM     10  N   UNL     1      -5.578   1.436  -3.140  0.00  0.00    -0.284 N 
ATOM     11  C   UNL     1      -4.966   0.512  -2.399  0.00  0.00    +0.229 C 
ATOM     12  O   UNL     1      -3.836   0.144  -2.660  0.00  0.00    -0.275 OA
ATOM     13  O   UNL     1      -7.741  -0.008   0.149  0.00  0.00    -0.444 OA
ATOM     14  C   UNL     1      -7.009  -0.175   1.276  0.00  0.00    +0.198 C 
ATOM     15  C   UNL     1      -5.663  -0.067   1.274  0.00  0.00    +0.095 C 
ATOM     16  H   UNL     1      -5.093   1.800  -3.898  0.00  0.00    +0.155 HD
ENDROOT
BRANCH   1  19
ATOM     17  C   UNL     1      -1.201  -0.638   0.010  0.00  0.00    +0.165 A 
ATOM     18  C   UNL     1      -2.375   0.101   0.019  0.00  0.00    +0.054 A 
ATOM     19  C   UNL     1      -3.598  -0.543   0.028  0.00  0.00    -0.031 A 
ATOM     20  C   UNL     1      -3.657  -1.924   0.027  0.00  0.00    +0.054 A 
ATOM     21  C   UNL     1      -2.488  -2.670   0.017  0.00  0.00    +0.165 A 
ATOM     22  C   UNL     1      -1.256  -2.027   0.003  0.00  0.00    +0.204 A 
BRANCH  17  24
ATOM     23  C   UNL     1      -0.017   1.425   0.010  0.00  0.00    +0.277 C 
ATOM     24  O   UNL     1       0.002  -0.004   0.002  0.00  0.00    -0.491 OA
ENDBRANCH  17  24
BRANCH  22  25
ATOM     25  O   UNL     1      -0.106  -2.755  -0.012  0.00  0.00    -0.488 OA
ATOM     26  C   UNL     1       0.454  -3.109   1.254  0.00  0.00    +0.277 C 
ENDBRANCH  22  25
BRANCH  21  27
ATOM     27  O   UNL     1      -2.547  -4.028   0.017  0.00  0.00    -0.491 OA
ATOM     28  C   UNL     1      -3.847  -4.621   0.026  0.00  0.00    +0.277 C 
ENDBRANCH  21  27
ENDBRANCH   1  19
BRANCH  14  29
ATOM     29  N   UNL     1      -7.653  -0.462   2.454  0.00  0.00    -0.328 N 
ATOM     30  H   UNL     1      -8.620  -0.542   2.471  0.00  0.00    +0.145 HD
ATOM     31  H   UNL     1      -7.142  -0.584   3.269  0.00  0.00    +0.145 HD
ENDBRANCH  14  29
BRANCH  15  32
ATOM     32  C   UNL     1      -4.958  -0.277   2.502  0.00  0.00    +0.100 C 
ATOM     33  N   UNL     1      -4.399  -0.443   3.477  0.00  0.00    -0.191 NA
ENDBRANCH  15  32
TORSDOF 6
