REMARK  Name = ZINC39685828
REMARK  16 active torsions:
REMARK  status: ('A' for Active; 'I' for Inactive)
REMARK    1  A    between atoms: C_1  and  C_2
REMARK    2  A    between atoms: C_2  and  C_3
REMARK    3  A    between atoms: C_3  and  C_4
REMARK    4  A    between atoms: C_4  and  C_5
REMARK    5  A    between atoms: C_5  and  C_6
REMARK    6  A    between atoms: C_6  and  C_7
REMARK    7  A    between atoms: C_11  and  C_20
REMARK    8  A    between atoms: N_22  and  C_23
REMARK    9  A    between atoms: C_23  and  C_25
REMARK   10  A    between atoms: C_23  and  C_28
REMARK   11  A    between atoms: C_25  and  C_26
REMARK   12  A    between atoms: C_25  and  C_27
REMARK   13  A    between atoms: N_30  and  C_31
REMARK   14  A    between atoms: C_31  and  C_32
REMARK   15  A    between atoms: C_31  and  C_33
REMARK   16  A    between atoms: C_31  and  C_34
REMARK                            x       y       z     vdW  Elec       q    Type
REMARK                         _______ _______ _______ _____ _____    ______ ____
ROOT
ATOM      1  C   UNL     1       2.304  -4.596   3.841  0.00  0.00    +0.216 C 
ATOM      2  O   UNL     1       2.819  -3.829   4.627  0.00  0.00    -0.276 OA
ATOM      3  N   UNL     1       2.459  -5.926   3.996  0.00  0.00    -0.300 N 
ATOM      4  C   UNL     1       1.917  -7.010   3.143  0.00  0.00    +0.121 C 
ATOM      5  C   UNL     1       3.053  -8.055   3.071  0.00  0.00    +0.100 C 
ATOM      6  C   UNL     1       3.897  -7.805   4.333  0.00  0.00    -0.004 C 
ATOM      7  C   UNL     1       3.215  -6.635   5.057  0.00  0.00    +0.115 C 
ATOM      8  C   UNL     1       5.322  -7.420   3.948  0.00  0.00    -0.010 C 
ATOM      9  C   UNL     1       6.156  -7.233   5.218  0.00  0.00    -0.082 C 
ATOM     10  N   UNL     1       6.156  -8.479   5.994  0.00  0.00    +0.379 N 
ATOM     11  C   UNL     1       4.793  -8.792   6.439  0.00  0.00    -0.082 C 
ATOM     12  C   UNL     1       3.901  -9.046   5.220  0.00  0.00    -0.010 C 
ATOM     13  H   UNL     1       6.502  -9.232   5.418  0.00  0.00    -0.086 HD
ATOM     14  H   UNL     1       6.755  -8.373   6.799  0.00  0.00    -0.086 HD
ENDROOT
BRANCH   5  15
ATOM     15  C   UNL     1       2.484  -9.450   3.086  0.00  0.00    +0.219 C 
ATOM     16  O   UNL     1       1.448  -9.676   3.673  0.00  0.00    -0.275 OA
ATOM     17  N   UNL     1       3.127 -10.446   2.445  0.00  0.00    -0.303 N 
ATOM     18  H   UNL     1       3.956 -10.265   1.975  0.00  0.00    +0.149 HD
BRANCH  17  19
ATOM     19  C   UNL     1       2.574 -11.803   2.459  0.00  0.00    +0.161 C 
BRANCH  19  20
ATOM     20  C   UNL     1       3.684 -12.800   2.250  0.00  0.00    +0.234 C 
ATOM     21  O   UNL     1       4.825 -12.416   2.104  0.00  0.00    -0.274 OA
ATOM     22  N   UNL     1       3.409 -14.119   2.226  0.00  0.00    -0.309 N 
ATOM     23  H   UNL     1       2.497 -14.427   2.342  0.00  0.00    +0.149 HD
BRANCH  22  24
ATOM     24  C   UNL     1       4.489 -15.089   2.022  0.00  0.00    +0.026 C 
ATOM     25  C   UNL     1       5.520 -14.947   3.144  0.00  0.00    +0.031 C 
ATOM     26  C   UNL     1       3.911 -16.506   2.037  0.00  0.00    +0.031 C 
ATOM     27  C   UNL     1       5.163 -14.827   0.674  0.00  0.00    +0.031 C 
ENDBRANCH  22  24
ENDBRANCH  19  20
BRANCH  19  28
ATOM     28  C   UNL     1       1.543 -11.945   1.337  0.00  0.00    +0.012 C 
ATOM     29  C   UNL     1       0.416 -10.932   1.550  0.00  0.00    +0.009 C 
ATOM     30  C   UNL     1       2.217 -11.683  -0.011  0.00  0.00    +0.009 C 
ENDBRANCH  19  28
ENDBRANCH  17  19
ENDBRANCH   5  15
BRANCH   1  31
ATOM     31  C   UNL     1       1.491  -4.062   2.689  0.00  0.00    +0.096 C 
BRANCH  31  32
ATOM     32  C   UNL     1       1.474  -2.533   2.744  0.00  0.00    +0.009 C 
BRANCH  32  33
ATOM     33  C   UNL     1       0.649  -1.991   1.575  0.00  0.00    +0.000 C 
BRANCH  33  34
ATOM     34  C   UNL     1       0.631  -0.462   1.629  0.00  0.00    -0.000 C 
BRANCH  34  36
ATOM     35  C   UNL     1      -0.211   1.609   0.514  0.00  0.00    +0.004 C 
ATOM     36  C   UNL     1      -0.194   0.081   0.460  0.00  0.00    -0.003 C 
ENDBRANCH  34  36
ENDBRANCH  33  34
ENDBRANCH  32  33
ENDBRANCH  31  32
ENDBRANCH   1  31
TORSDOF 10
