REMARK  Name = ZINC39710827
REMARK  10 active torsions:
REMARK  status: ('A' for Active; 'I' for Inactive)
REMARK    1  A    between atoms: C_1  and  C_2
REMARK    2  A    between atoms: C_2  and  N_3
REMARK    3  A    between atoms: N_6  and  C_9
REMARK    4  A    between atoms: C_9  and  C_11
REMARK    5  A    between atoms: C_9  and  C_24
REMARK    6  A    between atoms: C_18  and  C_23
REMARK    7  A    between atoms: N_29  and  C_30
REMARK    8  A    between atoms: C_30  and  C_31
REMARK    9  A    between atoms: C_30  and  C_32
REMARK   10  A    between atoms: C_30  and  C_33
REMARK                            x       y       z     vdW  Elec       q    Type
REMARK                         _______ _______ _______ _____ _____    ______ ____
ROOT
ATOM      1  C   UNL     1       3.319  -2.575  -3.721  0.00  0.00    +0.115 C 
ENDROOT
BRANCH   1   2
ATOM      2  C   UNL     1       2.669  -2.345  -5.087  0.00  0.00    +0.119 C 
ATOM      3  C   UNL     1       1.287  -2.967  -5.055  0.00  0.00    -0.003 C 
ATOM      4  C   UNL     1       0.227  -2.149  -5.312  0.00  0.00    -0.007 A 
ATOM      5  C   UNL     1      -1.141  -2.668  -5.303  0.00  0.00    +0.009 A 
ATOM      6  C   UNL     1      -2.166  -1.817  -5.565  0.00  0.00    +0.001 A 
ATOM      7  C   UNL     1      -1.938  -0.469  -5.841  0.00  0.00    +0.005 A 
ATOM      8  C   UNL     1      -0.693   0.074  -5.865  0.00  0.00    -0.029 A 
ATOM      9  C   UNL     1       0.439  -0.721  -5.606  0.00  0.00    +0.043 A 
ATOM     10  N   UNL     1       1.655  -0.178  -5.632  0.00  0.00    -0.284 N 
ATOM     11  C   UNL     1       2.759  -0.868  -5.400  0.00  0.00    +0.226 C 
ATOM     12  O   UNL     1       3.842  -0.316  -5.438  0.00  0.00    -0.275 OA
ATOM     13  C   UNL     1      -0.522   1.540  -6.171  0.00  0.00    +0.045 C 
ATOM     14  H   UNL     1       1.735   0.768  -5.831  0.00  0.00    +0.155 HD
ENDBRANCH   1   2
BRANCH   1  18
ATOM     15  N   UNL     1       1.269   0.659  -1.931  0.00  0.00    +0.381 N 
ATOM     16  C   UNL     1       2.722   0.568  -1.732  0.00  0.00    -0.063 C 
ATOM     17  C   UNL     1       3.329  -0.330  -2.813  0.00  0.00    +0.066 C 
ATOM     18  N   UNL     1       2.721  -1.666  -2.735  0.00  0.00    -0.299 NA
ATOM     19  C   UNL     1       1.264  -1.587  -2.907  0.00  0.00    +0.066 C 
ATOM     20  C   UNL     1       0.674  -0.679  -1.825  0.00  0.00    -0.063 C 
ATOM     21  H   UNL     1       1.079   1.041  -2.845  0.00  0.00    -0.082 HD
BRANCH  15  23
ATOM     22  C   UNL     1       1.216   2.960  -1.092  0.00  0.00    -0.017 C 
ATOM     23  C   UNL     1       0.690   1.536  -0.904  0.00  0.00    -0.082 C 
ENDBRANCH  15  23
ENDBRANCH   1  18
BRANCH   1  24
ATOM     24  C   UNL     1       3.090  -4.023  -3.285  0.00  0.00    +0.236 C 
ATOM     25  N   UNL     1       1.680  -4.235  -2.931  0.00  0.00    -0.148 NA
ATOM     26  N   UNL     1       1.612  -4.570  -1.747  0.00  0.00    -0.069 NA
ATOM     27  N   UNL     1       2.861  -4.641  -1.130  0.00  0.00    -0.179 N 
ATOM     28  N   UNL     1       3.834  -4.311  -2.041  0.00  0.00    -0.179 NA
ATOM     29  H   UNL     1       3.017  -4.886  -0.205  0.00  0.00    +0.191 HD
BRANCH  28  30
ATOM     30  C   UNL     1       4.775  -5.423  -2.235  0.00  0.00    +0.035 C 
ATOM     31  C   UNL     1       5.795  -5.045  -3.310  0.00  0.00    +0.029 C 
ATOM     32  C   UNL     1       5.502  -5.711  -0.920  0.00  0.00    +0.029 C 
ATOM     33  C   UNL     1       4.006  -6.670  -2.677  0.00  0.00    +0.029 C 
ENDBRANCH  28  30
ENDBRANCH   1  24
TORSDOF 5
