REMARK  Name = ZINC30530375
REMARK  7 active torsions:
REMARK  status: ('A' for Active; 'I' for Inactive)
REMARK    1  A    between atoms: C_1  and  C_2
REMARK    2  A    between atoms: C_3  and  N_24
REMARK    3  A    between atoms: C_7  and  S_8
REMARK    4  A    between atoms: S_8  and  N_11
REMARK    5  A    between atoms: N_11  and  C_12
REMARK    6  A    between atoms: C_15  and  C_18
REMARK    7  A    between atoms: C_21  and  C_23
REMARK                            x       y       z     vdW  Elec       q    Type
REMARK                         _______ _______ _______ _____ _____    ______ ____
ROOT
ATOM      1  N   UNL     1      -2.771   3.224  -0.023  0.00  0.00    -0.216 N 
ATOM      2  H   UNL     1      -2.975   3.926   0.799  0.00  0.00    +0.174 HD
ENDROOT
BRANCH   1   3
ATOM      3  C   UNL     1      -1.583   2.490  -0.035  0.00  0.00    +0.048 A 
ATOM      4  C   UNL     1      -1.613   1.128  -0.315  0.00  0.00    +0.025 A 
ATOM      5  C   UNL     1      -0.443   0.399  -0.322  0.00  0.00    +0.013 A 
ATOM      6  C   UNL     1       0.773   1.032  -0.060  0.00  0.00    +0.019 A 
ATOM      7  C   UNL     1       0.800   2.401   0.214  0.00  0.00    +0.013 A 
ATOM      8  C   UNL     1      -0.373   3.123   0.225  0.00  0.00    +0.025 A 
BRANCH   6   9
ATOM      9  C   UNL     1       2.031   0.255  -0.074  0.00  0.00    +0.155 A 
ATOM     10  C   UNL     1       3.280   0.734   0.155  0.00  0.00    +0.161 A 
ATOM     11  N   UNL     1       4.133  -0.298   0.052  0.00  0.00    -0.221 NA
ATOM     12  C   UNL     1       3.459  -1.375  -0.237  0.00  0.00    +0.193 A 
ATOM     13  O   UNL     1       2.157  -1.067  -0.322  0.00  0.00    -0.440 OA
ATOM     14  C   UNL     1       4.049  -2.747  -0.443  0.00  0.00    +0.109 C 
ENDBRANCH   6   9
ENDBRANCH   1   3
BRANCH   1  15
ATOM     15  S   UNL     1      -3.873   3.038  -1.245  0.00  0.00    +0.073 S 
ATOM     16  O   UNL     1      -4.129   1.644  -1.352  0.00  0.00    -0.150 OA
ATOM     17  O   UNL     1      -4.904   3.986  -1.010  0.00  0.00    -0.150 OA
BRANCH  15  24
ATOM     18  C   UNL     1      -2.852   5.830  -1.804  0.00  0.00    +0.048 C 
ATOM     19  C   UNL     1      -2.644   4.822  -2.905  0.00  0.00    +0.006 A 
ATOM     20  C   UNL     1      -2.016   5.199  -4.078  0.00  0.00    +0.131 A 
ATOM     21  C   UNL     1      -1.828   4.276  -5.090  0.00  0.00    +0.033 A 
ATOM     22  C   UNL     1      -2.266   2.975  -4.928  0.00  0.00    +0.004 A 
ATOM     23  C   UNL     1      -2.891   2.597  -3.754  0.00  0.00    +0.029 A 
ATOM     24  C   UNL     1      -3.077   3.520  -2.741  0.00  0.00    +0.114 A 
BRANCH  20  25
ATOM     25  N   UNL     1      -1.547   6.593  -4.251  0.00  0.00    +0.057 N 
ATOM     26  O   UNL     1      -0.936   6.909  -5.257  0.00  0.00    -0.126 OA
ATOM     27  O   UNL     1      -1.772   7.423  -3.389  0.00  0.00    -0.126 OA
ENDBRANCH  20  25
ENDBRANCH  15  24
ENDBRANCH   1  15
TORSDOF 5
