REMARK  Name = ZINC15670082
REMARK  6 active torsions:
REMARK  status: ('A' for Active; 'I' for Inactive)
REMARK    1  A    between atoms: C_1  and  C_2
REMARK    2  A    between atoms: C_5  and  C_8
REMARK    3  A    between atoms: C_17  and  C_19
REMARK    4  A    between atoms: C_20  and  C_26
REMARK    5  A    between atoms: C_31  and  O_32
REMARK    6  A    between atoms: O_32  and  C_33
REMARK                            x       y       z     vdW  Elec       q    Type
REMARK                         _______ _______ _______ _____ _____    ______ ____
ROOT
ATOM      1  C   UNL     1      -7.308   1.094  -1.543  0.00  0.00    +0.095 A 
ATOM      2  C   UNL     1      -6.909   1.284  -2.871  0.00  0.00    +0.163 A 
ATOM      3  N   UNL     1      -5.628   1.456  -3.138  0.00  0.00    -0.152 NA
ATOM      4  N   UNL     1      -4.755   1.453  -2.192  0.00  0.00    -0.109 NA
ATOM      5  C   UNL     1      -5.106   1.269  -0.927  0.00  0.00    +0.273 A 
ATOM      6  N   UNL     1      -6.375   1.092  -0.592  0.00  0.00    -0.208 NA
ATOM      7  N   UNL     1      -4.126   1.268   0.065  0.00  0.00    -0.182 N 
ATOM      8  C   UNL     1      -2.800   1.435  -0.124  0.00  0.00    +0.136 A 
ATOM      9  C   UNL     1      -2.198   1.390   1.105  0.00  0.00    +0.023 A 
ATOM     10  C   UNL     1      -3.183   1.168   2.057  0.00  0.00    +0.066 A 
ATOM     11  N   UNL     1      -4.340   1.092   1.442  0.00  0.00    -0.167 NA
ATOM     12  C   UNL     1      -2.962   1.036   3.541  0.00  0.00    +0.068 C 
ATOM     13  C   UNL     1      -0.713   1.571   1.282  0.00  0.00    +0.066 C 
ATOM     14  C   UNL     1      -0.013   1.086   0.008  0.00  0.00    +0.109 C 
ATOM     15  C   UNL     1      -0.723   1.575  -1.222  0.00  0.00    +0.219 C 
ATOM     16  O   UNL     1      -0.066   1.920  -2.182  0.00  0.00    -0.275 OA
ATOM     17  N   UNL     1      -2.069   1.643  -1.293  0.00  0.00    -0.270 N 
ATOM     18  H   UNL     1      -2.516   1.831  -2.134  0.00  0.00    +0.156 HD
ENDROOT
BRANCH   1  23
ATOM     19  C   UNL     1     -12.860   0.334  -0.220  0.00  0.00    +0.044 C 
ATOM     20  C   UNL     1     -11.407   0.533  -0.566  0.00  0.00    -0.050 A 
ATOM     21  C   UNL     1     -11.020   0.617  -1.891  0.00  0.00    +0.004 A 
ATOM     22  C   UNL     1      -9.691   0.799  -2.215  0.00  0.00    +0.010 A 
ATOM     23  C   UNL     1      -8.738   0.899  -1.202  0.00  0.00    +0.002 A 
ATOM     24  C   UNL     1      -9.133   0.809   0.131  0.00  0.00    +0.010 A 
ATOM     25  C   UNL     1     -10.466   0.632   0.443  0.00  0.00    +0.004 A 
ENDBRANCH   1  23
BRANCH  13  26
ATOM     26  C   UNL     1      -0.402   3.029   1.508  0.00  0.00    +0.002 A 
ATOM     27  C   UNL     1      -0.752   3.966   0.555  0.00  0.00    +0.008 A 
ATOM     28  C   UNL     1      -0.472   5.304   0.764  0.00  0.00    +0.001 A 
ATOM     29  C   UNL     1       0.168   5.706   1.922  0.00  0.00    +0.004 A 
ATOM     30  C   UNL     1       0.525   4.772   2.875  0.00  0.00    +0.046 A 
ATOM     31  C   UNL     1       0.240   3.429   2.670  0.00  0.00    +0.124 A 
BRANCH  31  32
ATOM     32  O   UNL     1       0.591   2.508   3.606  0.00  0.00    -0.495 OA
ATOM     33  C   UNL     1       1.249   2.993   4.778  0.00  0.00    +0.277 C 
ENDBRANCH  31  32
ENDBRANCH  13  26
TORSDOF 3
