REMARK  Name = ZINC04885725
REMARK  8 active torsions:
REMARK  status: ('A' for Active; 'I' for Inactive)
REMARK    1  A    between atoms: C_1  and  C_2
REMARK    2  A    between atoms: C_2  and  O_3
REMARK    3  A    between atoms: O_3  and  C_4
REMARK    4  A    between atoms: C_4  and  C_6
REMARK    5  A    between atoms: C_6  and  C_31
REMARK    6  A    between atoms: C_11  and  C_14
REMARK    7  A    between atoms: N_21  and  C_24
REMARK    8  A    between atoms: C_27  and  C_30
REMARK                            x       y       z     vdW  Elec       q    Type
REMARK                         _______ _______ _______ _____ _____    ______ ____
ROOT
ATOM      1  C   UNL     1      -1.961  -2.145   0.144  0.00  0.00    +0.041 C 
ATOM      2  C   UNL     1      -2.502  -3.490   0.671  0.00  0.00    +0.086 C 
ATOM      3  C   UNL     1      -4.017  -3.246   0.904  0.00  0.00    +0.080 C 
ATOM      4  C   UNL     1      -4.245  -1.771   0.511  0.00  0.00    +0.010 C 
ATOM      5  N   UNL     1      -2.920  -1.129   0.647  0.00  0.00    +0.397 N 
ATOM      6  C   UNL     1      -4.677  -4.154  -0.110  0.00  0.00    +0.229 C 
ATOM      7  O   UNL     1      -5.873  -4.273  -0.270  0.00  0.00    -0.275 OA
ATOM      8  N   UNL     1      -3.735  -4.804  -0.803  0.00  0.00    -0.210 N 
ATOM      9  C   UNL     1      -2.464  -4.512  -0.443  0.00  0.00    +0.229 C 
ATOM     10  O   UNL     1      -1.458  -4.983  -0.928  0.00  0.00    -0.275 OA
ATOM     11  C   UNL     1      -1.933  -2.140  -1.386  0.00  0.00    +0.002 C 
ATOM     12  H   UNL     1      -2.738  -0.921   1.617  0.00  0.00    -0.083 HD
ATOM     13  H   UNL     1      -2.871  -0.290   0.089  0.00  0.00    -0.083 HD
ENDROOT
BRANCH   8  14
ATOM     14  C   UNL     1      -4.039  -5.721  -1.819  0.00  0.00    +0.044 A 
ATOM     15  C   UNL     1      -4.072  -5.307  -3.143  0.00  0.00    +0.024 A 
ATOM     16  C   UNL     1      -4.372  -6.213  -4.142  0.00  0.00    +0.005 A 
ATOM     17  C   UNL     1      -4.639  -7.532  -3.823  0.00  0.00    -0.050 A 
ATOM     18  C   UNL     1      -4.607  -7.947  -2.505  0.00  0.00    +0.005 A 
ATOM     19  C   UNL     1      -4.302  -7.047  -1.503  0.00  0.00    +0.024 A 
ATOM     20  C   UNL     1      -4.966  -8.518  -4.915  0.00  0.00    +0.044 C 
ENDBRANCH   8  14
BRANCH   4  21
ATOM     21  C   UNL     1      -4.708  -1.675  -0.920  0.00  0.00    +0.092 A 
ATOM     22  C   UNL     1      -4.221  -0.833  -1.849  0.00  0.00    +0.043 A 
ATOM     23  C   UNL     1      -4.939  -1.080  -3.042  0.00  0.00    +0.041 A 
ATOM     24  C   UNL     1      -5.822  -2.058  -2.770  0.00  0.00    +0.195 A 
ATOM     25  O   UNL     1      -5.674  -2.418  -1.485  0.00  0.00    -0.469 OA
ENDBRANCH   4  21
BRANCH   1  26
ATOM     26  C   UNL     1      -0.582  -1.882   0.694  0.00  0.00    +0.297 C 
ATOM     27  O   UNL     1       0.138  -2.807   0.985  0.00  0.00    -0.252 OA
BRANCH  26  28
ATOM     28  O   UNL     1      -0.155  -0.620   0.859  0.00  0.00    -0.466 OA
BRANCH  28  30
ATOM     29  C   UNL     1       1.471   1.049   1.501  0.00  0.00    +0.048 C 
ATOM     30  C   UNL     1       1.163  -0.445   1.385  0.00  0.00    +0.228 C 
ENDBRANCH  28  30
ENDBRANCH  26  28
ENDBRANCH   1  26
TORSDOF 5
