REMARK  Name = ZINC64391168
REMARK  5 active torsions:
REMARK  status: ('A' for Active; 'I' for Inactive)
REMARK    1  A    between atoms: C_1  and  C_2
REMARK    2  A    between atoms: C_5  and  C_29
REMARK    3  A    between atoms: C_6  and  C_8
REMARK    4  A    between atoms: C_10  and  C_14
REMARK    5  A    between atoms: C_17  and  C_20
REMARK                            x       y       z     vdW  Elec       q    Type
REMARK                         _______ _______ _______ _____ _____    ______ ____
ROOT
ATOM      1  C   UNL     1       0.827  -4.607   5.021  0.00  0.00    +0.322 C 
ATOM      2  N   UNL     1       0.671  -4.723   6.479  0.00  0.00    -0.287 N 
ATOM      3  C   UNL     1       1.735  -4.049   7.050  0.00  0.00    +0.168 C 
ATOM      4  N   UNL     1       2.508  -3.543   6.145  0.00  0.00    -0.067 NA
ATOM      5  O   UNL     1       2.027  -3.838   4.845  0.00  0.00    -0.367 OA
ATOM      6  H   UNL     1      -0.041  -5.184   6.950  0.00  0.00    +0.151 HD
ENDROOT
BRANCH   3   7
ATOM      7  C   UNL     1       1.960  -3.922   8.507  0.00  0.00    +0.022 A 
ATOM      8  C   UNL     1       1.068  -4.510   9.406  0.00  0.00    +0.015 A 
ATOM      9  C   UNL     1       1.279  -4.390  10.763  0.00  0.00    +0.050 A 
ATOM     10  C   UNL     1       2.375  -3.687  11.241  0.00  0.00    +0.166 A 
ATOM     11  C   UNL     1       3.269  -3.097  10.347  0.00  0.00    +0.167 A 
ATOM     12  C   UNL     1       3.066  -3.219   8.985  0.00  0.00    +0.061 A 
ATOM     13  O   UNL     1       4.250  -2.471  11.062  0.00  0.00    -0.453 OA
ATOM     14  C   UNL     1       3.725  -2.335  12.396  0.00  0.00    +0.466 C 
ATOM     15  O   UNL     1       2.797  -3.429  12.512  0.00  0.00    -0.453 OA
ENDBRANCH   3   7
BRANCH   1  18
ATOM     16  C   UNL     1      -0.203  -2.505   2.625  0.00  0.00    +0.091 C 
ATOM     17  C   UNL     1      -0.256  -3.822   2.900  0.00  0.00    +0.037 C 
ATOM     18  C   UNL     1      -0.371  -3.874   4.413  0.00  0.00    +0.215 C 
ATOM     19  N   UNL     1      -0.366  -2.453   4.799  0.00  0.00    -0.174 NA
ATOM     20  N   UNL     1      -0.267  -1.778   3.772  0.00  0.00    -0.154 NA
BRANCH  16  26
ATOM     21  C   UNL     1      -1.919  -2.069  -2.043  0.00  0.00    +0.044 C 
ATOM     22  C   UNL     1      -0.909  -1.716  -0.983  0.00  0.00    -0.050 A 
ATOM     23  C   UNL     1       0.130  -0.852  -1.279  0.00  0.00    +0.003 A 
ATOM     24  C   UNL     1       1.061  -0.524  -0.309  0.00  0.00    +0.004 A 
ATOM     25  C   UNL     1       0.957  -1.057   0.959  0.00  0.00    -0.041 A 
ATOM     26  C   UNL     1      -0.087  -1.928   1.263  0.00  0.00    +0.005 A 
ATOM     27  C   UNL     1      -1.025  -2.251   0.284  0.00  0.00    +0.013 A 
ATOM     28  C   UNL     1       1.972  -0.699   2.014  0.00  0.00    +0.044 C 
ENDBRANCH  16  26
ENDBRANCH   1  18
TORSDOF 3
