REMARK  Name = ZINC35469845
REMARK  5 active torsions:
REMARK  status: ('A' for Active; 'I' for Inactive)
REMARK    1  A    between atoms: C_1  and  C_2
REMARK    2  A    between atoms: C_8  and  C_12
REMARK    3  A    between atoms: N_14  and  C_15
REMARK    4  A    between atoms: N_14  and  C_25
REMARK    5  A    between atoms: C_15  and  C_16
REMARK                            x       y       z     vdW  Elec       q    Type
REMARK                         _______ _______ _______ _____ _____    ______ ____
ROOT
ATOM      1  C   UNL     1       0.752  -6.012   1.468  0.00  0.00    +0.247 C 
ATOM      2  O   UNL     1       1.471  -6.373   2.379  0.00  0.00    -0.270 OA
ATOM      3  N   UNL     1      -0.001  -6.913   0.807  0.00  0.00    -0.290 N 
ENDROOT
BRANCH   1  11
ATOM      4  C   UNL     1       0.923   1.361   1.948  0.00  0.00    +0.086 C 
ATOM      5  C   UNL     1       0.838  -0.090   1.551  0.00  0.00    +0.105 A 
ATOM      6  N   UNL     1       0.619  -0.541   0.286  0.00  0.00    -0.342 N 
ATOM      7  H   UNL     1       0.493   0.006  -0.505  0.00  0.00    +0.167 HD
ATOM      8  C   UNL     1       0.611  -1.919   0.335  0.00  0.00    +0.066 A 
ATOM      9  C   UNL     1       0.438  -2.916  -0.618  0.00  0.00    +0.028 A 
ATOM     10  C   UNL     1       0.484  -4.229  -0.252  0.00  0.00    +0.015 A 
ATOM     11  C   UNL     1       0.705  -4.587   1.085  0.00  0.00    +0.039 A 
ATOM     12  C   UNL     1       0.880  -3.603   2.053  0.00  0.00    +0.043 A 
ATOM     13  C   UNL     1       0.835  -2.259   1.682  0.00  0.00    +0.090 A 
ATOM     14  N   UNL     1       0.970  -1.094   2.368  0.00  0.00    -0.233 NA
ENDBRANCH   1  11
BRANCH   3  15
ATOM     15  C   UNL     1      -0.008  -6.928  -0.658  0.00  0.00    +0.077 C 
ATOM     16  C   UNL     1       1.338  -6.421  -1.180  0.00  0.00    +0.022 C 
ATOM     17  C   UNL     1       1.330  -6.437  -2.710  0.00  0.00    +0.002 C 
ATOM     18  C   UNL     1       0.210  -5.530  -3.224  0.00  0.00    +0.000 C 
ATOM     19  C   UNL     1      -1.136  -6.037  -2.702  0.00  0.00    +0.002 C 
ATOM     20  C   UNL     1      -1.129  -6.021  -1.172  0.00  0.00    +0.022 C 
ENDBRANCH   3  15
BRANCH   3  21
ATOM     21  C   UNL     1      -0.814  -7.877   1.553  0.00  0.00    +0.143 C 
BRANCH  21  22
ATOM     22  C   UNL     1      -2.180  -7.294   1.805  0.00  0.00    -0.026 A 
ATOM     23  C   UNL     1      -2.414  -6.553   2.948  0.00  0.00    +0.009 A 
ATOM     24  C   UNL     1      -3.666  -6.015   3.183  0.00  0.00    +0.050 A 
ATOM     25  C   UNL     1      -4.690  -6.219   2.273  0.00  0.00    +0.166 A 
ATOM     26  C   UNL     1      -4.455  -6.965   1.121  0.00  0.00    +0.167 A 
ATOM     27  C   UNL     1      -3.196  -7.496   0.889  0.00  0.00    +0.054 A 
ATOM     28  O   UNL     1      -5.608  -7.021   0.394  0.00  0.00    -0.453 OA
ATOM     29  C   UNL     1      -6.657  -6.648   1.307  0.00  0.00    +0.466 C 
ATOM     30  O   UNL     1      -5.991  -5.806   2.267  0.00  0.00    -0.453 OA
ENDBRANCH  21  22
ENDBRANCH   3  21
TORSDOF 4
