REMARK  Name = ZINC65436324
REMARK  5 active torsions:
REMARK  status: ('A' for Active; 'I' for Inactive)
REMARK    1  A    between atoms: C_1  and  O_2
REMARK    2  A    between atoms: O_2  and  C_3
REMARK    3  A    between atoms: C_7  and  C_9
REMARK    4  A    between atoms: C_14  and  C_22
REMARK    5  A    between atoms: C_22  and  C_23
REMARK                            x       y       z     vdW  Elec       q    Type
REMARK                         _______ _______ _______ _____ _____    ______ ____
ROOT
ATOM      1  C   UNL     1      -2.540  -4.171   0.015  0.00  0.00    +0.042 C 
ATOM      2  C   UNL     1      -3.237  -4.623  -1.240  0.00  0.00    +0.065 C 
ATOM      3  C   UNL     1      -3.052  -6.081  -1.521  0.00  0.00    +0.049 A 
ATOM      4  N   UNL     1      -2.988  -6.629  -2.763  0.00  0.00    -0.345 N 
ATOM      5  C   UNL     1      -2.838  -7.968  -2.617  0.00  0.00    +0.114 A 
ATOM      6  N   UNL     1      -2.799  -8.252  -1.350  0.00  0.00    -0.227 NA
ATOM      7  C   UNL     1      -2.920  -7.097  -0.628  0.00  0.00    +0.146 A 
ATOM      8  H   UNL     1      -3.040  -6.147  -3.603  0.00  0.00    +0.167 HD
ATOM      9  C   UNL     1      -2.886  -7.047   0.832  0.00  0.00    +0.264 C 
ATOM     10  O   UNL     1      -2.755  -8.119   1.391  0.00  0.00    -0.268 OA
ATOM     11  N   UNL     1      -2.976  -6.002   1.622  0.00  0.00    -0.309 N 
ATOM     12  C   UNL     1      -3.219  -4.626   1.279  0.00  0.00    +0.113 C 
ATOM     13  H   UNL     1      -2.867  -6.184   2.568  0.00  0.00    +0.149 HD
ENDROOT
BRANCH   1  18
ATOM     14  C   UNL     1      -1.200  -0.637   0.010  0.00  0.00    +0.120 A 
ATOM     15  C   UNL     1      -2.375   0.101   0.019  0.00  0.00    +0.045 A 
ATOM     16  C   UNL     1      -3.596  -0.545   0.027  0.00  0.00    +0.004 A 
ATOM     17  C   UNL     1      -3.648  -1.927   0.026  0.00  0.00    +0.004 A 
ATOM     18  C   UNL     1      -2.479  -2.665   0.017  0.00  0.00    -0.039 A 
ATOM     19  C   UNL     1      -1.255  -2.023   0.003  0.00  0.00    +0.049 A 
BRANCH  14  21
ATOM     20  C   UNL     1      -0.017   1.425   0.010  0.00  0.00    +0.277 C 
ATOM     21  O   UNL     1       0.002  -0.004   0.002  0.00  0.00    -0.495 OA
ENDBRANCH  14  21
ENDBRANCH   1  18
BRANCH   5  22
ATOM     22  C   UNL     1      -2.735  -8.966  -3.741  0.00  0.00    +0.129 C 
BRANCH  22  23
ATOM     23  C   UNL     1      -1.473  -9.775  -3.582  0.00  0.00    +0.050 A 
ATOM     24  C   UNL     1      -1.323 -10.886  -2.828  0.00  0.00    +0.135 A 
ATOM     25  N   UNL     1      -0.063 -11.312  -2.943  0.00  0.00    -0.236 NA
ATOM     26  C   UNL     1       0.599 -10.499  -3.755  0.00  0.00    +0.138 A 
ATOM     27  N   UNL     1      -0.267  -9.524  -4.177  0.00  0.00    -0.303 N 
ATOM     28  C   UNL     1       0.155  -8.549  -5.034  0.00  0.00    +0.093 A 
ATOM     29  C   UNL     1       1.427  -8.531  -5.482  0.00  0.00    +0.018 A 
ATOM     30  C   UNL     1       2.337  -9.519  -5.071  0.00  0.00    +0.005 A 
ATOM     31  C   UNL     1       1.933 -10.492  -4.210  0.00  0.00    +0.047 A 
ENDBRANCH  22  23
ENDBRANCH   5  22
TORSDOF 4
