REMARK  Name = ZINC13447530
REMARK  8 active torsions:
REMARK  status: ('A' for Active; 'I' for Inactive)
REMARK    1  A    between atoms: C_1  and  C_2
REMARK    2  A    between atoms: C_3  and  C_24
REMARK    3  A    between atoms: C_8  and  S_10
REMARK    4  A    between atoms: S_10  and  C_11
REMARK    5  A    between atoms: C_11  and  C_12
REMARK    6  A    between atoms: N_14  and  C_15
REMARK    7  A    between atoms: C_24  and  C_25
REMARK    8  A    between atoms: C_25  and  C_26
REMARK                            x       y       z     vdW  Elec       q    Type
REMARK                         _______ _______ _______ _____ _____    ______ ____
ROOT
ATOM      1  S   UNL     1       4.137  -4.814  -0.399  0.00  0.00    -0.078 S 
ENDROOT
BRANCH   1   9
ATOM      2  C   UNL     1       0.963  -8.821  -0.552  0.00  0.00    +0.066 C 
ATOM      3  C   UNL     1       2.384  -8.322  -0.588  0.00  0.00    +0.049 A 
ATOM      4  C   UNL     1       3.414  -9.208  -0.716  0.00  0.00    +0.038 A 
ATOM      5  C   UNL     1       4.732  -8.719  -0.748  0.00  0.00    +0.256 A 
ATOM      6  O   UNL     1       5.676  -9.483  -0.862  0.00  0.00    -0.267 OA
ATOM      7  N   UNL     1       4.932  -7.387  -0.656  0.00  0.00    -0.302 N 
ATOM      8  H   UNL     1       5.833  -7.027  -0.680  0.00  0.00    +0.171 HD
ATOM      9  C   UNL     1       3.866  -6.551  -0.525  0.00  0.00    +0.170 A 
ATOM     10  N   UNL     1       2.632  -7.018  -0.496  0.00  0.00    -0.228 NA
BRANCH   4  11
ATOM     11  C   UNL     1       3.144 -10.687  -0.821  0.00  0.00    +0.053 C 
BRANCH  11  12
ATOM     12  C   UNL     1       3.097 -11.094  -2.295  0.00  0.00    +0.130 C 
BRANCH  12  13
ATOM     13  C   UNL     1       2.827 -12.572  -2.400  0.00  0.00    +0.356 C 
ATOM     14  O   UNL     1       2.685 -13.233  -1.399  0.00  0.00    -0.246 OA
ATOM     15  O   UNL     1       2.743 -13.155  -3.606  0.00  0.00    -0.246 OA
ENDBRANCH  12  13
ENDBRANCH  11  12
ENDBRANCH   4  11
ENDBRANCH   1   9
BRANCH   1  16
ATOM     16  C   UNL     1       2.427  -4.238  -0.260  0.00  0.00    +0.173 C 
BRANCH  16  17
ATOM     17  C   UNL     1       2.411  -2.736  -0.138  0.00  0.00    +0.228 C 
ATOM     18  O   UNL     1       3.454  -2.116  -0.144  0.00  0.00    -0.275 OA
ATOM     19  N   UNL     1       1.239  -2.082  -0.021  0.00  0.00    -0.282 N 
ATOM     20  H   UNL     1       0.411  -2.580   0.065  0.00  0.00    +0.155 HD
BRANCH  19  21
ATOM     21  C   UNL     1       1.215  -0.680  -0.024  0.00  0.00    +0.072 A 
ATOM     22  C   UNL     1       2.237   0.031  -0.638  0.00  0.00    +0.029 A 
ATOM     23  C   UNL     1       2.213   1.412  -0.641  0.00  0.00    +0.043 A 
ATOM     24  C   UNL     1       1.170   2.090  -0.033  0.00  0.00    +0.161 A 
ATOM     25  C   UNL     1       0.147   1.384   0.581  0.00  0.00    +0.195 A 
ATOM     26  C   UNL     1       0.168  -0.001   0.586  0.00  0.00    +0.182 A 
ATOM     27  F   UNL     1      -0.829  -0.690   1.184  0.00  0.00    -0.200 F 
ATOM     28  F   UNL     1      -0.873   2.047   1.169  0.00  0.00    -0.199 F 
ATOM     29  F   UNL     1       1.150   3.441  -0.037  0.00  0.00    -0.202 F 
ENDBRANCH  19  21
ENDBRANCH  16  17
ENDBRANCH   1  16
TORSDOF 7
