REMARK  Name = ZINC67455745
REMARK  4 active torsions:
REMARK  status: ('A' for Active; 'I' for Inactive)
REMARK    1  A    between atoms: N_9  and  N_10
REMARK    2  A    between atoms: C_16  and  C_19
REMARK    3  A    between atoms: C_19  and  C_21
REMARK    4  A    between atoms: C_19  and  O_28
REMARK                            x       y       z     vdW  Elec       q    Type
REMARK                         _______ _______ _______ _____ _____    ______ ____
ROOT
ATOM      1  N   UNL     1       4.813  -0.615  -0.049  0.00  0.00    -0.205 N 
ATOM      2  C   UNL     1       5.699  -1.631  -0.062  0.00  0.00    +0.321 C 
ATOM      3  O   UNL     1       5.309  -2.779   0.028  0.00  0.00    -0.251 OA
ATOM      4  N   UNL     1       7.018  -1.374  -0.176  0.00  0.00    -0.284 N 
ATOM      5  C   UNL     1       7.514   0.009  -0.169  0.00  0.00    +0.110 C 
ATOM      6  C   UNL     1       8.378   0.229  -1.414  0.00  0.00    +0.025 C 
ATOM      7  C   UNL     1       9.479  -0.833  -1.461  0.00  0.00    +0.025 C 
ATOM      8  C   UNL     1       8.845  -2.223  -1.552  0.00  0.00    +0.025 C 
ATOM      9  C   UNL     1       7.986  -2.471  -0.303  0.00  0.00    +0.110 C 
ATOM     10  H   UNL     1       5.128   0.302  -0.045  0.00  0.00    +0.177 HD
ENDROOT
BRANCH   1  19
ATOM     11  C   UNL     1      -0.017   1.362  -0.002  0.00  0.00    +0.002 A 
ATOM     12  C   UNL     1       1.167   2.086  -0.005  0.00  0.00    +0.002 A 
ATOM     13  C   UNL     1       2.383   1.436  -0.018  0.00  0.00    +0.030 A 
ATOM     14  C   UNL     1       2.422   0.049  -0.028  0.00  0.00    +0.088 A 
ATOM     15  C   UNL     1       1.223  -0.684  -0.025  0.00  0.00    +0.091 A 
ATOM     16  C   UNL     1       0.002  -0.004  -0.012  0.00  0.00    +0.030 A 
ATOM     17  N   UNL     1       1.563  -1.998  -0.037  0.00  0.00    -0.234 NA
ATOM     18  C   UNL     1       2.858  -2.115  -0.046  0.00  0.00    +0.219 A 
ATOM     19  N   UNL     1       3.439  -0.885  -0.041  0.00  0.00    -0.245 N 
ENDBRANCH   1  19
BRANCH   7  20
ATOM     20  C   UNL     1      10.365  -0.596  -2.685  0.00  0.00    +0.148 C 
BRANCH  20  21
ATOM     21  C   UNL     1      11.448  -1.642  -2.732  0.00  0.00    -0.019 A 
ATOM     22  C   UNL     1      11.201  -2.868  -3.320  0.00  0.00    +0.007 A 
ATOM     23  C   UNL     1      12.194  -3.828  -3.363  0.00  0.00    +0.020 A 
ATOM     24  C   UNL     1      13.437  -3.562  -2.816  0.00  0.00    +0.041 A 
ATOM     25  C   UNL     1      13.684  -2.334  -2.227  0.00  0.00    +0.020 A 
ATOM     26  C   UNL     1      12.692  -1.373  -2.190  0.00  0.00    +0.007 A 
ATOM     27 CL   UNL     1      14.685  -4.767  -2.869  0.00  0.00    -0.084 Cl
ENDBRANCH  20  21
BRANCH  20  28
ATOM     28  O   UNL     1       9.572  -0.679  -3.871  0.00  0.00    -0.387 OA
ATOM     29  H   UNL     1       9.137  -1.534  -3.994  0.00  0.00    +0.210 HD
ENDBRANCH  20  28
ENDBRANCH   7  20
TORSDOF 4
