REMARK  Name = ZINC08892912
REMARK  5 active torsions:
REMARK  status: ('A' for Active; 'I' for Inactive)
REMARK    1  A    between atoms: C_4  and  C_7
REMARK    2  A    between atoms: C_7  and  C_30
REMARK    3  A    between atoms: N_10  and  N_14
REMARK    4  A    between atoms: C_15  and  C_17
REMARK    5  A    between atoms: C_23  and  C_25
REMARK                            x       y       z     vdW  Elec       q    Type
REMARK                         _______ _______ _______ _____ _____    ______ ____
ROOT
ATOM      1  C   UNL     1       5.018  -0.611  -6.957  0.00  0.00    +0.165 C 
ATOM      2  C   UNL     1       3.663  -0.085  -6.528  0.00  0.00    +0.272 C 
ATOM      3  O   UNL     1       2.862   0.519  -7.210  0.00  0.00    -0.270 OA
ATOM      4  N   UNL     1       3.534  -0.427  -5.231  0.00  0.00    -0.137 N 
ATOM      5  C   UNL     1       4.609  -1.085  -4.785  0.00  0.00    +0.327 C 
ATOM      6  O   UNL     1       4.728  -1.492  -3.646  0.00  0.00    -0.251 OA
ATOM      7  N   UNL     1       5.544  -1.248  -5.738  0.00  0.00    -0.276 N 
ATOM      8  H   UNL     1       6.400  -1.696  -5.641  0.00  0.00    +0.152 HD
ENDROOT
BRANCH   1  12
ATOM      9  C   UNL     1       4.592  -3.483 -10.090  0.00  0.00    +0.000 A 
ATOM     10  C   UNL     1       5.172  -3.850  -8.891  0.00  0.00    +0.000 A 
ATOM     11  C   UNL     1       5.310  -2.920  -7.877  0.00  0.00    +0.006 A 
ATOM     12  C   UNL     1       4.868  -1.624  -8.063  0.00  0.00    -0.011 A 
ATOM     13  C   UNL     1       4.282  -1.259  -9.261  0.00  0.00    +0.006 A 
ATOM     14  C   UNL     1       4.149  -2.187 -10.276  0.00  0.00    +0.000 A 
ENDBRANCH   1  12
BRANCH   1  15
ATOM     15  C   UNL     1       5.913   0.521  -7.392  0.00  0.00    -0.011 A 
ATOM     16  C   UNL     1       5.403   1.548  -8.165  0.00  0.00    +0.006 A 
ATOM     17  C   UNL     1       6.222   2.589  -8.560  0.00  0.00    +0.000 A 
ATOM     18  C   UNL     1       7.554   2.598  -8.190  0.00  0.00    +0.000 A 
ATOM     19  C   UNL     1       8.066   1.569  -7.422  0.00  0.00    +0.000 A 
ATOM     20  C   UNL     1       7.245   0.530  -7.024  0.00  0.00    +0.006 A 
ENDBRANCH   1  15
BRANCH   4  21
ATOM     21  N   UNL     1       2.413  -0.126  -4.446  0.00  0.00    -0.223 N 
ATOM     22  C   UNL     1       1.527  -1.093  -4.136  0.00  0.00    +0.233 C 
ATOM     23  O   UNL     1       1.700  -2.225  -4.538  0.00  0.00    -0.274 OA
ATOM     24  H   UNL     1       2.275   0.779  -4.125  0.00  0.00    +0.174 HD
BRANCH  22  25
ATOM     25  C   UNL     1       0.322  -0.769  -3.292  0.00  0.00    +0.079 C 
ATOM     26  C   UNL     1      -0.515  -2.035  -3.091  0.00  0.00    +0.032 C 
ATOM     27  C   UNL     1      -1.720  -1.710  -2.203  0.00  0.00    +0.109 C 
ATOM     28  N   UNL     1      -2.457  -0.587  -2.799  0.00  0.00    -0.297 N 
ATOM     29  C   UNL     1      -1.728   0.648  -3.118  0.00  0.00    +0.109 C 
ATOM     30  C   UNL     1      -0.522   0.296  -3.995  0.00  0.00    +0.032 C 
ATOM     31  C   UNL     1      -3.777  -0.691  -3.055  0.00  0.00    +0.253 C 
ATOM     32  O   UNL     1      -4.345  -1.755  -2.897  0.00  0.00    -0.269 OA
BRANCH  31  33
ATOM     33  C   UNL     1      -4.527   0.479  -3.522  0.00  0.00    +0.074 A 
ATOM     34  C   UNL     1      -5.762   0.531  -4.148  0.00  0.00    +0.021 A 
ATOM     35  C   UNL     1      -6.241   1.774  -4.481  0.00  0.00    +0.008 A 
ATOM     36  C   UNL     1      -5.493   2.872  -4.197  0.00  0.00    +0.046 A 
ATOM     37  S   UNL     1      -4.083   2.205  -3.440  0.00  0.00    -0.092 S 
ENDBRANCH  31  33
ENDBRANCH  22  25
ENDBRANCH   4  21
TORSDOF 5
