REMARK  Name = ZINC64228314
REMARK  8 active torsions:
REMARK  status: ('A' for Active; 'I' for Inactive)
REMARK    1  A    between atoms: C_1  and  C_2
REMARK    2  A    between atoms: C_2  and  C_3
REMARK    3  A    between atoms: C_6  and  N_9
REMARK    4  A    between atoms: C_10  and  C_12
REMARK    5  A    between atoms: C_12  and  C_14
REMARK    6  A    between atoms: C_12  and  N_24
REMARK    7  A    between atoms: C_14  and  C_15
REMARK    8  A    between atoms: C_25  and  C_27
REMARK                            x       y       z     vdW  Elec       q    Type
REMARK                         _______ _______ _______ _____ _____    ______ ____
ROOT
ATOM      1  C   UNL     1       4.715  -2.327  -5.947  0.00  0.00    +0.163 C 
ENDROOT
BRANCH   1   3
ATOM      2  N   UNL     1       2.657  -1.834  -4.665  0.00  0.00    -0.284 N 
ATOM      3  C   UNL     1       4.000  -1.949  -4.676  0.00  0.00    +0.238 C 
ATOM      4  O   UNL     1       4.634  -1.749  -3.661  0.00  0.00    -0.273 OA
ATOM      5  H   UNL     1       2.145  -2.067  -5.455  0.00  0.00    +0.155 HD
BRANCH   2   9
ATOM      6  C   UNL     1       0.708  -0.472  -1.244  0.00  0.00    -0.048 A 
ATOM      7  C   UNL     1       1.965   0.011  -1.561  0.00  0.00    +0.005 A 
ATOM      8  C   UNL     1       2.614  -0.439  -2.694  0.00  0.00    +0.023 A 
ATOM      9  C   UNL     1       2.003  -1.377  -3.516  0.00  0.00    +0.033 A 
ATOM     10  C   UNL     1       0.741  -1.860  -3.195  0.00  0.00    +0.023 A 
ATOM     11  C   UNL     1       0.100  -1.410  -2.058  0.00  0.00    +0.005 A 
BRANCH   6  13
ATOM     12  C   UNL     1       0.372  -0.872   1.179  0.00  0.00    +0.009 C 
ATOM     13  C   UNL     1       0.003   0.021  -0.007  0.00  0.00    +0.032 C 
ENDBRANCH   6  13
ENDBRANCH   2   9
ENDBRANCH   1   3
BRANCH   1  14
ATOM     14  N   UNL     1       6.157  -2.386  -5.698  0.00  0.00    -0.302 N 
ATOM     15  C   UNL     1       7.024  -2.202  -6.714  0.00  0.00    +0.231 C 
ATOM     16  O   UNL     1       6.611  -1.988  -7.833  0.00  0.00    -0.274 OA
ATOM     17  H   UNL     1       6.488  -2.557  -4.803  0.00  0.00    +0.150 HD
BRANCH  15  18
ATOM     18  C   UNL     1       8.508  -2.263  -6.457  0.00  0.00    +0.145 C 
ATOM     19  C   UNL     1       8.984  -0.931  -5.875  0.00  0.00    +0.063 C 
ATOM     20  C   UNL     1      10.490  -0.893  -5.841  0.00  0.00    -0.041 A 
ATOM     21  C   UNL     1      11.110   0.051  -5.037  0.00  0.00    +0.004 A 
ATOM     22  C   UNL     1      12.487   0.122  -4.980  0.00  0.00    +0.000 A 
ATOM     23  C   UNL     1      13.253  -0.752  -5.730  0.00  0.00    +0.000 A 
ATOM     24  C   UNL     1      12.637  -1.693  -6.529  0.00  0.00    +0.005 A 
ATOM     25  C   UNL     1      11.252  -1.768  -6.585  0.00  0.00    -0.030 A 
ATOM     26  C   UNL     1      10.627  -2.819  -7.464  0.00  0.00    +0.117 C 
ATOM     27  N   UNL     1       9.219  -2.504  -7.723  0.00  0.00    -0.301 NA
ATOM     28  H   UNL     1       8.774  -3.237  -8.254  0.00  0.00    +0.123 HD
ENDBRANCH  15  18
ENDBRANCH   1  14
BRANCH   1  29
ATOM     29  C   UNL     1       4.223  -3.696  -6.422  0.00  0.00    +0.065 C 
BRANCH  29  30
ATOM     30  C   UNL     1       4.845  -4.019  -7.756  0.00  0.00    -0.039 C 
ATOM     31  C   UNL     1       5.960  -4.751  -7.977  0.00  0.00    -0.001 A 
ATOM     32  C   UNL     1       6.893  -5.439  -7.076  0.00  0.00    +0.010 A 
ATOM     33  C   UNL     1       7.944  -6.106  -7.605  0.00  0.00    +0.001 A 
ATOM     34  C   UNL     1       8.165  -6.156  -8.988  0.00  0.00    +0.002 A 
ATOM     35  C   UNL     1       7.352  -5.549  -9.879  0.00  0.00    +0.026 A 
ATOM     36  C   UNL     1       6.215  -4.820  -9.434  0.00  0.00    +0.043 A 
ATOM     37  N   UNL     1       5.293  -4.156 -10.088  0.00  0.00    -0.380 N 
ATOM     38  C   UNL     1       4.344  -3.595  -9.119  0.00  0.00    +0.144 C 
ATOM     39  H   UNL     1       5.244  -4.055 -11.051  0.00  0.00    +0.160 HD
ENDBRANCH  29  30
ENDBRANCH   1  29
TORSDOF 7
