REMARK  Name = ZINC22403680
REMARK  3 active torsions:
REMARK  status: ('A' for Active; 'I' for Inactive)
REMARK    1  A    between atoms: C_4  and  C_8
REMARK    2  A    between atoms: C_14  and  C_16
REMARK    3  A    between atoms: N_18  and  C_23
REMARK                            x       y       z     vdW  Elec       q    Type
REMARK                         _______ _______ _______ _____ _____    ______ ____
ROOT
ATOM      1  C   UNL     1       3.700  -0.690  -0.037  0.00  0.00    +0.083 A 
ATOM      2  C   UNL     1       3.729  -2.056  -0.050  0.00  0.00    +0.077 A 
ATOM      3  S   UNL     1       5.492  -2.350  -0.067  0.00  0.00    -0.060 S 
ATOM      4  C   UNL     1       6.004  -0.638  -0.055  0.00  0.00    +0.165 A 
ATOM      5  N   UNL     1       4.840  -0.015  -0.046  0.00  0.00    -0.224 NA
ATOM      6  N   UNL     1       7.285  -0.104  -0.060  0.00  0.00    -0.260 N 
ATOM      7  C   UNL     1       8.356  -0.922  -0.076  0.00  0.00    +0.265 C 
ATOM      8  O   UNL     1       8.200  -2.129  -0.087  0.00  0.00    -0.268 OA
ATOM      9  H   UNL     1       7.410   0.858  -0.052  0.00  0.00    +0.157 HD
ENDROOT
BRANCH   1  13
ATOM     10  C   UNL     1      -0.017   1.381   0.010  0.00  0.00    +0.041 A 
ATOM     11  C   UNL     1       1.169   2.094   0.002  0.00  0.00    +0.042 A 
ATOM     12  C   UNL     1       2.379   1.427  -0.013  0.00  0.00    +0.133 A 
ATOM     13  C   UNL     1       2.404   0.032  -0.021  0.00  0.00    +0.039 A 
ATOM     14  C   UNL     1       1.207  -0.681  -0.013  0.00  0.00    +0.051 A 
ATOM     15  C   UNL     1       0.002  -0.004   0.002  0.00  0.00    +0.124 A 
ATOM     16  F   UNL     1      -1.159  -0.694   0.009  0.00  0.00    -0.205 F 
ATOM     17  F   UNL     1       3.536   2.125  -0.021  0.00  0.00    -0.205 F 
ENDBRANCH   1  13
BRANCH   7  18
ATOM     18  C   UNL     1       9.710  -0.358  -0.082  0.00  0.00    +0.122 C 
ATOM     19  N   UNL     1       9.867   0.929  -0.065  0.00  0.00    -0.177 NA
ATOM     20  N   UNL     1      11.143   1.503  -0.072  0.00  0.00    -0.188 N 
ATOM     21  C   UNL     1      12.210   0.787  -0.476  0.00  0.00    +0.235 C 
ATOM     22  O   UNL     1      13.313   1.290  -0.484  0.00  0.00    -0.274 OA
ATOM     23  C   UNL     1      12.028  -0.643  -0.918  0.00  0.00    +0.104 C 
ATOM     24  C   UNL     1      10.899  -1.282  -0.100  0.00  0.00    +0.071 C 
BRANCH  20  25
ATOM     25  C   UNL     1      11.319   2.891   0.363  0.00  0.00    +0.124 C 
ATOM     26  C   UNL     1      10.476   3.816  -0.530  0.00  0.00    +0.049 C 
ATOM     27  C   UNL     1      10.430   5.221   0.136  0.00  0.00    +0.168 C 
ATOM     28  S   UNL     1      10.227   4.749   1.905  0.00  0.00    -0.029 S 
ATOM     29  O   UNL     1      11.102   5.540   2.698  0.00  0.00    -0.174 OA
ATOM     30  O   UNL     1       8.841   4.713   2.217  0.00  0.00    -0.174 OA
ATOM     31  C   UNL     1      10.869   3.028   1.837  0.00  0.00    +0.190 C 
ENDBRANCH  20  25
ENDBRANCH   7  18
TORSDOF 3
