REMARK  Name = ZINC39870022
REMARK  4 active torsions:
REMARK  status: ('A' for Active; 'I' for Inactive)
REMARK    1  A    between atoms: C_1  and  N_2
REMARK    2  A    between atoms: N_2  and  C_3
REMARK    3  A    between atoms: C_8  and  C_9
REMARK    4  A    between atoms: C_17  and  C_18
REMARK                            x       y       z     vdW  Elec       q    Type
REMARK                         _______ _______ _______ _____ _____    ______ ____
ROOT
ATOM      1  C   UNL     1      -0.018   1.461   0.010  0.00  0.00    +0.137 C 
ATOM      2  N   UNL     1       0.002  -0.004   0.002  0.00  0.00    -0.284 N 
ATOM      3  C   UNL     1       0.000  -0.682  -1.187  0.00  0.00    +0.158 C 
ATOM      4  N   UNL     1       0.010  -1.990  -1.385  0.00  0.00    -0.154 NA
ATOM      5  C   UNL     1       0.007  -2.523  -2.587  0.00  0.00    +0.276 C 
ATOM      6  O   UNL     1       0.016  -3.731  -2.757  0.00  0.00    -0.267 OA
ATOM      7  C   UNL     1      -0.009  -1.567  -3.728  0.00  0.00    +0.079 C 
ATOM      8  C   UNL     1      -0.017  -1.810  -5.084  0.00  0.00    +0.026 C 
ATOM      9  S   UNL     1      -0.025  -0.013  -2.843  0.00  0.00    -0.051 S 
ENDROOT
BRANCH   8  10
ATOM     10  C   UNL     1      -0.032  -0.741  -5.987  0.00  0.00    -0.018 C 
ATOM     11  C   UNL     1      -0.047  -0.812  -7.377  0.00  0.00    +0.003 A 
ATOM     12  C   UNL     1      -0.051  -1.900  -8.278  0.00  0.00    +0.010 A 
ATOM     13  C   UNL     1      -0.066  -1.667  -9.614  0.00  0.00    +0.001 A 
ATOM     14  C   UNL     1      -0.078  -0.368 -10.134  0.00  0.00    +0.002 A 
ATOM     15  C   UNL     1      -0.075   0.723  -9.333  0.00  0.00    +0.026 A 
ATOM     16  C   UNL     1      -0.060   0.561  -7.919  0.00  0.00    +0.043 A 
ATOM     17  N   UNL     1      -0.053   1.439  -6.944  0.00  0.00    -0.380 N 
ATOM     18  C   UNL     1      -0.042   0.736  -5.657  0.00  0.00    +0.149 C 
ATOM     19  H   UNL     1      -0.059   2.402  -7.056  0.00  0.00    +0.160 HD
ENDBRANCH   8  10
BRANCH   2  20
ATOM     20  C   UNL     1       0.023  -0.705   1.202  0.00  0.00    +0.049 A 
ATOM     21  C   UNL     1      -1.167  -1.079   1.813  0.00  0.00    +0.024 A 
ATOM     22  C   UNL     1      -1.144  -1.775   3.004  0.00  0.00    +0.002 A 
ATOM     23  C   UNL     1       0.063  -2.108   3.600  0.00  0.00    +0.001 A 
ATOM     24  C   UNL     1       1.254  -1.747   3.010  0.00  0.00    +0.017 A 
ATOM     25  C   UNL     1       1.248  -1.045   1.800  0.00  0.00    +0.084 A 
BRANCH  25  26
ATOM     26  C   UNL     1       2.516  -0.661   1.160  0.00  0.00    +0.388 C 
ATOM     27  O   UNL     1       3.580  -0.959   1.685  0.00  0.00    -0.241 OA
ATOM     28  O   UNL     1       2.506  -0.043   0.104  0.00  0.00    -0.241 OA
ENDBRANCH  25  26
ENDBRANCH   2  20
TORSDOF 3
