REMARK  Name = ZINC08430533
REMARK  8 active torsions:
REMARK  status: ('A' for Active; 'I' for Inactive)
REMARK    1  A    between atoms: C_1  and  C_2
REMARK    2  A    between atoms: C_2  and  O_3
REMARK    3  A    between atoms: O_3  and  C_4
REMARK    4  A    between atoms: C_7  and  C_12
REMARK    5  A    between atoms: C_9  and  O_10
REMARK    6  A    between atoms: O_10  and  C_11
REMARK    7  A    between atoms: C_17  and  C_27
REMARK    8  A    between atoms: C_31  and  O_33
REMARK                            x       y       z     vdW  Elec       q    Type
REMARK                         _______ _______ _______ _____ _____    ______ ____
ROOT
ATOM      1  C   UNL     1       0.915  -4.781   2.859  0.00  0.00    +0.032 C 
ATOM      2  C   UNL     1       1.221  -4.435   1.403  0.00  0.00    +0.059 C 
ATOM      3  C   UNL     1       0.532  -3.135   1.023  0.00  0.00    +0.017 C 
ATOM      4  C   UNL     1      -0.647  -2.803   1.576  0.00  0.00    +0.036 C 
ATOM      5  C   UNL     1      -1.440  -1.551   1.285  0.00  0.00    +0.136 C 
ATOM      6  N   UNL     1      -0.977  -0.798   0.138  0.00  0.00    -0.331 N 
ATOM      7  C   UNL     1       0.282  -0.199   0.133  0.00  0.00    +0.049 A 
ATOM      8  C   UNL     1       0.427   1.178   0.139  0.00  0.00    +0.025 A 
ATOM      9  C   UNL     1       1.694   1.728   0.236  0.00  0.00    +0.002 A 
ATOM     10  C   UNL     1       2.806   0.910   0.327  0.00  0.00    +0.002 A 
ATOM     11  C   UNL     1       2.665  -0.467   0.305  0.00  0.00    +0.025 A 
ATOM     12  C   UNL     1       1.400  -1.017   0.191  0.00  0.00    +0.052 A 
ATOM     13  N   UNL     1       1.192  -2.389   0.102  0.00  0.00    -0.316 N 
ATOM     14  C   UNL     1      -1.249  -3.652   2.533  0.00  0.00    +0.163 C 
ATOM     15  O   UNL     1      -2.327  -3.339   2.999  0.00  0.00    -0.292 OA
ATOM     16  C   UNL     1      -0.605  -4.926   2.994  0.00  0.00    +0.088 C 
ATOM     17  H   UNL     1      -1.552  -0.710  -0.638  0.00  0.00    +0.147 HD
ATOM     18  H   UNL     1       1.543  -2.846  -0.678  0.00  0.00    +0.152 HD
ENDROOT
BRANCH   1  22
ATOM     19  C   UNL     1       2.818  -8.466   3.904  0.00  0.00    +0.162 A 
ATOM     20  C   UNL     1       1.914  -8.423   2.855  0.00  0.00    +0.050 A 
ATOM     21  C   UNL     1       1.300  -7.230   2.520  0.00  0.00    +0.008 A 
ATOM     22  C   UNL     1       1.586  -6.079   3.229  0.00  0.00    -0.040 A 
ATOM     23  C   UNL     1       2.491  -6.114   4.273  0.00  0.00    +0.053 A 
ATOM     24  C   UNL     1       3.106  -7.307   4.618  0.00  0.00    +0.162 A 
BRANCH  24  25
ATOM     25  O   UNL     1       3.993  -7.344   5.649  0.00  0.00    -0.491 OA
ATOM     26  C   UNL     1       4.239  -6.116   6.337  0.00  0.00    +0.277 C 
ENDBRANCH  24  25
BRANCH  19  27
ATOM     27  O   UNL     1       3.423  -9.638   4.234  0.00  0.00    -0.489 OA
BRANCH  27  29
ATOM     28  C   UNL     1       3.854 -12.002   3.973  0.00  0.00    +0.048 C 
ATOM     29  C   UNL     1       3.080 -10.787   3.457  0.00  0.00    +0.226 C 
ENDBRANCH  27  29
ENDBRANCH  19  27
ENDBRANCH   1  22
BRANCH   5  30
ATOM     30  C   UNL     1      -1.384  -0.658   2.497  0.00  0.00    -0.019 A 
ATOM     31  C   UNL     1      -2.544  -0.356   3.187  0.00  0.00    +0.006 A 
ATOM     32  C   UNL     1      -2.495   0.464   4.299  0.00  0.00    +0.004 A 
ATOM     33  C   UNL     1      -1.288   0.983   4.725  0.00  0.00    +0.045 A 
ATOM     34  C   UNL     1      -0.123   0.681   4.035  0.00  0.00    +0.117 A 
ATOM     35  C   UNL     1      -0.173  -0.145   2.921  0.00  0.00    +0.051 A 
BRANCH  34  36
ATOM     36  O   UNL     1       1.066   1.189   4.451  0.00  0.00    -0.507 OA
ATOM     37  H   UNL     1       1.532   0.629   5.087  0.00  0.00    +0.292 HD
ENDBRANCH  34  36
ENDBRANCH   5  30
TORSDOF 6
