REMARK  Name = ZINC06953526
REMARK  8 active torsions:
REMARK  status: ('A' for Active; 'I' for Inactive)
REMARK    1  A    between atoms: C_1  and  C_2
REMARK    2  A    between atoms: C_5  and  C_8
REMARK    3  A    between atoms: C_15  and  S_26
REMARK    4  A    between atoms: C_19  and  C_25
REMARK    5  A    between atoms: C_20  and  C_21
REMARK    6  A    between atoms: C_21  and  O_23
REMARK    7  A    between atoms: O_23  and  C_24
REMARK    8  A    between atoms: S_26  and  C_27
REMARK                            x       y       z     vdW  Elec       q    Type
REMARK                         _______ _______ _______ _____ _____    ______ ____
ROOT
ATOM      1  C   UNL     1       1.271  -2.118   0.073  0.00  0.00    +0.096 C 
ATOM      2  C   UNL     1       1.272  -0.617   0.113  0.00  0.00    +0.069 A 
ATOM      3  C   UNL     1       0.069   0.083   0.262  0.00  0.00    +0.258 A 
ATOM      4  O   UNL     1      -0.991  -0.515   0.357  0.00  0.00    -0.267 OA
ATOM      5  N   UNL     1       0.103   1.432   0.297  0.00  0.00    -0.302 N 
ATOM      6  H   UNL     1      -0.721   1.935   0.392  0.00  0.00    +0.171 HD
ATOM      7  C   UNL     1       1.292   2.089   0.194  0.00  0.00    +0.171 A 
ATOM      8  N   UNL     1       2.427   1.435   0.055  0.00  0.00    -0.208 NA
ATOM      9  C   UNL     1       2.453   0.098   0.008  0.00  0.00    +0.135 A 
ATOM     10  N   UNL     1       3.655  -0.569  -0.146  0.00  0.00    -0.302 N 
ATOM     11  C   UNL     1       3.668  -1.875  -0.550  0.00  0.00    +0.017 C 
ATOM     12  C   UNL     1       2.569  -2.642  -0.470  0.00  0.00    +0.065 C 
ATOM     13  C   UNL     1       4.942  -2.466  -1.096  0.00  0.00    +0.061 C 
ATOM     14  H   UNL     1       4.490  -0.109   0.033  0.00  0.00    +0.153 HD
ENDROOT
BRANCH   1  19
ATOM     15  C   UNL     1       0.488  -4.163   5.421  0.00  0.00    +0.044 C 
ATOM     16  C   UNL     1       0.692  -3.629   4.026  0.00  0.00    -0.050 A 
ATOM     17  C   UNL     1      -0.213  -3.940   3.028  0.00  0.00    +0.003 A 
ATOM     18  C   UNL     1      -0.026  -3.451   1.749  0.00  0.00    +0.005 A 
ATOM     19  C   UNL     1       1.066  -2.651   1.468  0.00  0.00    -0.035 A 
ATOM     20  C   UNL     1       1.974  -2.345   2.464  0.00  0.00    +0.005 A 
ATOM     21  C   UNL     1       1.784  -2.830   3.745  0.00  0.00    +0.003 A 
ENDBRANCH   1  19
BRANCH  12  22
ATOM     22  C   UNL     1       2.636  -3.983  -0.910  0.00  0.00    +0.337 C 
ATOM     23  O   UNL     1       2.223  -4.282  -2.015  0.00  0.00    -0.245 OA
BRANCH  22  24
ATOM     24  O   UNL     1       3.158  -4.932  -0.106  0.00  0.00    -0.465 OA
ATOM     25  C   UNL     1       3.194  -6.267  -0.616  0.00  0.00    +0.280 C 
ENDBRANCH  22  24
ENDBRANCH  12  22
BRANCH   7  26
ATOM     26  S   UNL     1       1.313   3.850   0.247  0.00  0.00    -0.091 S 
ATOM     27  C   UNL     1       3.089   4.149   0.072  0.00  0.00    +0.093 C 
ENDBRANCH   7  26
TORSDOF 4
