REMARK  Name = ZINC15932597
REMARK  12 active torsions:
REMARK  status: ('A' for Active; 'I' for Inactive)
REMARK    1  A    between atoms: C_1  and  C_2
REMARK    2  A    between atoms: C_4  and  C_8
REMARK    3  A    between atoms: C_5  and  C_7
REMARK    4  A    between atoms: C_14  and  C_22
REMARK    5  A    between atoms: C_16  and  C_20
REMARK    6  A    between atoms: C_17  and  N_19
REMARK    7  A    between atoms: C_23  and  O_32
REMARK    8  A    between atoms: C_25  and  O_30
REMARK    9  A    between atoms: C_27  and  O_28
REMARK   10  A    between atoms: O_28  and  C_29
REMARK   11  A    between atoms: O_30  and  C_31
REMARK   12  A    between atoms: O_32  and  C_33
REMARK                            x       y       z     vdW  Elec       q    Type
REMARK                         _______ _______ _______ _____ _____    ______ ____
ROOT
ATOM      1  C   UNL     1      -1.744  -3.300  -0.008  0.00  0.00    +0.084 C 
ATOM      2  N   UNL     1      -1.563  -4.592  -0.100  0.00  0.00    -0.150 NA
ATOM      3  N   UNL     1      -2.763  -5.300  -0.025  0.00  0.00    -0.115 NA
ATOM      4  C   UNL     1      -3.770  -4.525   0.151  0.00  0.00    +0.227 C 
ATOM      5  C   UNL     1      -3.236  -3.095   0.105  0.00  0.00    +0.140 C 
ATOM      6  C   UNL     1      -3.610  -2.467   1.452  0.00  0.00    +0.090 C 
ATOM      7  C   UNL     1      -5.016  -2.873   1.806  0.00  0.00    +0.095 C 
ATOM      8  C   UNL     1      -5.653  -3.945   1.288  0.00  0.00    +0.200 C 
ATOM      9  O   UNL     1      -5.083  -4.768   0.365  0.00  0.00    -0.425 OA
ENDROOT
BRANCH   1  13
ATOM     10  C   UNL     1       2.295  -0.806   1.868  0.00  0.00    +0.051 C 
ATOM     11  C   UNL     1       1.166  -1.166   0.936  0.00  0.00    -0.012 A 
ATOM     12  C   UNL     1       0.267  -2.164   1.054  0.00  0.00    +0.021 A 
ATOM     13  C   UNL     1      -0.706  -2.260  -0.007  0.00  0.00    +0.009 A 
ATOM     14  C   UNL     1      -0.616  -1.331  -1.020  0.00  0.00    -0.004 A 
ATOM     15  S   UNL     1       0.690  -0.372  -0.583  0.00  0.00    -0.098 S 
ATOM     16  C   UNL     1      -1.493  -1.202  -2.238  0.00  0.00    +0.052 C 
ENDBRANCH   1  13
BRANCH   6  17
ATOM     17  C   UNL     1      -3.526  -0.966   1.350  0.00  0.00    +0.045 A 
ATOM     18  C   UNL     1      -4.321  -0.288   0.439  0.00  0.00    +0.131 A 
ATOM     19  C   UNL     1      -4.244   1.094   0.345  0.00  0.00    +0.091 A 
ATOM     20  C   UNL     1      -3.372   1.797   1.162  0.00  0.00    +0.127 A 
ATOM     21  C   UNL     1      -2.577   1.118   2.074  0.00  0.00    +0.091 A 
ATOM     22  C   UNL     1      -2.658  -0.263   2.171  0.00  0.00    +0.131 A 
BRANCH  22  23
ATOM     23  O   UNL     1      -1.883  -0.927   3.068  0.00  0.00    -0.495 OA
ATOM     24  C   UNL     1      -1.011  -0.139   3.882  0.00  0.00    +0.277 C 
ENDBRANCH  22  23
BRANCH  20  25
ATOM     25  O   UNL     1      -3.296   3.150   1.070  0.00  0.00    -0.495 OA
ATOM     26  C   UNL     1      -2.376   3.809   1.942  0.00  0.00    +0.277 C 
ENDBRANCH  20  25
BRANCH  18  27
ATOM     27  O   UNL     1      -5.176  -0.977  -0.362  0.00  0.00    -0.495 OA
ATOM     28  C   UNL     1      -5.965  -0.213  -1.278  0.00  0.00    +0.277 C 
ENDBRANCH  18  27
ENDBRANCH   6  17
BRANCH   8  29
ATOM     29  N   UNL     1      -6.933  -4.213   1.706  0.00  0.00    -0.328 N 
ATOM     30  H   UNL     1      -7.360  -3.638   2.359  0.00  0.00    +0.145 HD
ATOM     31  H   UNL     1      -7.410  -4.978   1.347  0.00  0.00    +0.145 HD
ENDBRANCH   8  29
BRANCH   7  32
ATOM     32  C   UNL     1      -5.726  -2.069   2.754  0.00  0.00    +0.100 C 
ATOM     33  N   UNL     1      -6.289  -1.430   3.507  0.00  0.00    -0.191 NA
ENDBRANCH   7  32
TORSDOF 7
