REMARK  Name = ZINC32521642
REMARK  6 active torsions:
REMARK  status: ('A' for Active; 'I' for Inactive)
REMARK    1  A    between atoms: C_11  and  S_14
REMARK    2  A    between atoms: S_14  and  C_15
REMARK    3  A    between atoms: C_15  and  C_16
REMARK    4  A    between atoms: C_16  and  C_17
REMARK    5  A    between atoms: N_19  and  C_20
REMARK    6  A    between atoms: C_21  and  C_29
REMARK                            x       y       z     vdW  Elec       q    Type
REMARK                         _______ _______ _______ _____ _____    ______ ____
ROOT
ATOM      1  C   UNL     1       5.308   9.028  -0.005  0.00  0.00    +0.218 C 
ATOM      2  O   UNL     1       4.519   9.950   0.008  0.00  0.00    -0.275 OA
ATOM      3  N   UNL     1       6.633   9.275  -0.017  0.00  0.00    -0.279 N 
ATOM      4  H   UNL     1       7.348   8.439  -0.028  0.00  0.00    +0.155 HD
ENDROOT
BRANCH   3   5
ATOM      5  C   UNL     1       7.094  10.583  -0.015  0.00  0.00    +0.084 A 
ATOM      6  C   UNL     1       8.407  11.034  -0.020  0.00  0.00    +0.068 A 
ATOM      7  C   UNL     1       8.623  12.470  -0.020  0.00  0.00    -0.023 A 
ATOM      8  C   UNL     1       7.500  13.221  -0.005  0.00  0.00    -0.004 A 
ATOM      9  S   UNL     1       6.173  12.050   0.002  0.00  0.00    -0.077 S 
ATOM     10  C   UNL     1       7.413  14.716   0.005  0.00  0.00    +0.043 C 
ATOM     11  C   UNL     1       8.794  15.278   0.373  0.00  0.00    +0.005 C 
ATOM     12  C   UNL     1       9.856  14.576  -0.478  0.00  0.00    +0.005 C 
ATOM     13  C   UNL     1      10.001  13.120  -0.030  0.00  0.00    +0.037 C 
BRANCH   6  14
ATOM     14  C   UNL     1       9.533  10.095  -0.029  0.00  0.00    +0.244 C 
ATOM     15  O   UNL     1       9.995   9.710  -1.087  0.00  0.00    -0.270 OA
ATOM     16  N   UNL     1      10.056   9.659   1.134  0.00  0.00    -0.325 N 
ATOM     17  H   UNL     1      10.902   8.955   1.127  0.00  0.00    +0.145 HD
ATOM     18  H   UNL     1       9.639  10.008   2.090  0.00  0.00    +0.145 HD
ENDBRANCH   6  14
ENDBRANCH   3   5
BRANCH   1  19
ATOM     19  C   UNL     1       4.806   7.607  -0.006  0.00  0.00    +0.107 C 
BRANCH  19  20
ATOM     20  C   UNL     1       3.276   7.607   0.009  0.00  0.00    +0.086 C 
BRANCH  20  21
ATOM     21  S   UNL     1       2.673   5.900   0.006  0.00  0.00    -0.085 S 
BRANCH  21  32
ATOM     22  C   UNL     1      -0.013   1.076   0.008  0.00  0.00    +0.001 A 
ATOM     23  C   UNL     1       1.182   1.782   0.000  0.00  0.00    +0.002 A 
ATOM     24  C   UNL     1       1.182   3.161   0.008  0.00  0.00    +0.027 A 
ATOM     25  C   UNL     1      -0.021   3.855   0.023  0.00  0.00    +0.058 A 
ATOM     26  C   UNL     1      -1.232   3.142   0.031  0.00  0.00    -0.001 A 
ATOM     27  C   UNL     1      -1.217   1.744   0.017  0.00  0.00    +0.010 A 
ATOM     28  C   UNL     1      -2.498   3.882   0.049  0.00  0.00    +0.013 A 
ATOM     29  C   UNL     1      -2.471   5.233   0.054  0.00  0.00    +0.049 A 
ATOM     30  C   UNL     1      -1.237   5.925   0.045  0.00  0.00    +0.162 A 
ATOM     31  N   UNL     1      -0.043   5.239   0.030  0.00  0.00    -0.270 N 
ATOM     32  C   UNL     1       0.935   6.189   0.025  0.00  0.00    +0.196 A 
ATOM     33  N   UNL     1       0.340   7.361   0.036  0.00  0.00    -0.122 NA
ATOM     34  N   UNL     1      -0.937   7.211   0.048  0.00  0.00    -0.129 NA
ENDBRANCH  21  32
ENDBRANCH  20  21
ENDBRANCH  19  20
ENDBRANCH   1  19
TORSDOF 6
