REMARK  Name = ZINC10431394
REMARK  9 active torsions:
REMARK  status: ('A' for Active; 'I' for Inactive)
REMARK    1  A    between atoms: C_1  and  C_2
REMARK    2  A    between atoms: C_2  and  N_3
REMARK    3  A    between atoms: N_3  and  C_4
REMARK    4  A    between atoms: N_3  and  C_17
REMARK    5  A    between atoms: C_4  and  C_5
REMARK    6  A    between atoms: C_10  and  C_16
REMARK    7  A    between atoms: C_18  and  N_33
REMARK    8  A    between atoms: N_19  and  C_26
REMARK    9  A    between atoms: C_26  and  C_27
REMARK                            x       y       z     vdW  Elec       q    Type
REMARK                         _______ _______ _______ _____ _____    ______ ____
ROOT
ATOM      1  C   UNL     1      -3.098   2.979   9.287  0.00  0.00    +0.134 A 
ATOM      2  C   UNL     1      -2.294   2.786  10.377  0.00  0.00    +0.127 A 
ATOM      3  N   UNL     1      -2.701   3.252  11.607  0.00  0.00    -0.276 N 
ATOM      4  C   UNL     1      -3.882   3.883  11.739  0.00  0.00    +0.331 A 
ATOM      5  O   UNL     1      -4.227   4.284  12.833  0.00  0.00    -0.246 OA
ATOM      6  N   UNL     1      -4.687   4.076  10.678  0.00  0.00    -0.273 N 
ATOM      7  H   UNL     1      -5.561   4.548  10.799  0.00  0.00    +0.173 HD
ATOM      8  C   UNL     1      -4.328   3.641   9.455  0.00  0.00    +0.277 A 
ATOM      9  O   UNL     1      -5.064   3.821   8.499  0.00  0.00    -0.266 OA
ENDROOT
BRANCH   2  10
ATOM     10  N   UNL     1      -1.088   2.136  10.245  0.00  0.00    -0.343 N 
ATOM     11  H   UNL     1      -0.805   1.812   9.375  0.00  0.00    +0.144 HD
ATOM     12  H   UNL     1      -0.522   2.002  11.021  0.00  0.00    +0.144 HD
ENDBRANCH   2  10
BRANCH   1  13
ATOM     13  N   UNL     1      -2.702   2.514   8.011  0.00  0.00    -0.319 N 
BRANCH  13  15
ATOM     14  C   UNL     1      -3.503   0.235   8.413  0.00  0.00    +0.024 C 
ATOM     15  C   UNL     1      -3.617   1.474   7.522  0.00  0.00    +0.102 C 
ENDBRANCH  13  15
BRANCH  13  16
ATOM     16  C   UNL     1      -2.605   3.623   7.053  0.00  0.00    +0.143 C 
BRANCH  16  17
ATOM     17  C   UNL     1      -1.951   3.137   5.786  0.00  0.00    +0.007 A 
ATOM     18  C   UNL     1      -2.704   2.920   4.668  0.00  0.00    +0.018 A 
ATOM     19  C   UNL     1      -2.052   2.466   3.506  0.00  0.00    +0.001 A 
ATOM     20  C   UNL     1      -2.761   2.222   2.318  0.00  0.00    +0.010 A 
ATOM     21  C   UNL     1      -2.094   1.787   1.214  0.00  0.00    +0.004 A 
ATOM     22  C   UNL     1      -0.718   1.572   1.248  0.00  0.00    -0.048 A 
ATOM     23  C   UNL     1       0.000   1.798   2.381  0.00  0.00    +0.031 A 
ATOM     24  C   UNL     1      -0.652   2.252   3.541  0.00  0.00    +0.073 A 
ATOM     25  N   UNL     1       0.028   2.484   4.669  0.00  0.00    -0.235 NA
ATOM     26  C   UNL     1      -0.576   2.907   5.754  0.00  0.00    +0.135 A 
ATOM     27 CL   UNL     1       0.362   3.189   7.188  0.00  0.00    -0.062 Cl
ATOM     28  C   UNL     1      -0.013   1.086   0.008  0.00  0.00    +0.044 C 
ENDBRANCH  16  17
ENDBRANCH  13  16
ENDBRANCH   1  13
BRANCH   3  29
ATOM     29  C   UNL     1      -1.845   3.055  12.780  0.00  0.00    +0.163 C 
BRANCH  29  30
ATOM     30  C   UNL     1      -2.188   1.743  13.437  0.00  0.00    -0.028 A 
ATOM     31  C   UNL     1      -3.152   1.698  14.427  0.00  0.00    +0.005 A 
ATOM     32  C   UNL     1      -3.470   0.493  15.027  0.00  0.00    +0.000 A 
ATOM     33  C   UNL     1      -2.816  -0.663  14.644  0.00  0.00    +0.000 A 
ATOM     34  C   UNL     1      -1.849  -0.616  13.658  0.00  0.00    +0.000 A 
ATOM     35  C   UNL     1      -1.535   0.587  13.055  0.00  0.00    +0.005 A 
ENDBRANCH  29  30
ENDBRANCH   3  29
TORSDOF 7
