REMARK  Name = ZINC15223871
REMARK  11 active torsions:
REMARK  status: ('A' for Active; 'I' for Inactive)
REMARK    1  A    between atoms: C_4  and  C_7
REMARK    2  A    between atoms: C_7  and  N_8
REMARK    3  A    between atoms: C_9  and  C_10
REMARK    4  A    between atoms: C_11  and  O_34
REMARK    5  A    between atoms: C_14  and  S_16
REMARK    6  A    between atoms: S_16  and  S_17
REMARK    7  A    between atoms: S_17  and  C_18
REMARK    8  A    between atoms: C_20  and  C_25
REMARK    9  A    between atoms: C_21  and  O_24
REMARK   10  A    between atoms: N_26  and  C_27
REMARK   11  A    between atoms: C_27  and  C_28
REMARK                            x       y       z     vdW  Elec       q    Type
REMARK                         _______ _______ _______ _____ _____    ______ ____
ROOT
ATOM      1  S   UNL     1       5.751  -5.631   5.398  0.00  0.00    -0.052 S 
ENDROOT
BRANCH   1   6
ATOM      2  C   UNL     1       4.820  -2.433   3.127  0.00  0.00    +0.033 A 
ATOM      3  C   UNL     1       5.154  -1.362   3.968  0.00  0.00    +0.125 A 
ATOM      4  C   UNL     1       5.664  -1.611   5.232  0.00  0.00    +0.047 A 
ATOM      5  C   UNL     1       5.845  -2.909   5.665  0.00  0.00    +0.019 A 
ATOM      6  C   UNL     1       5.516  -3.978   4.836  0.00  0.00    +0.020 A 
ATOM      7  C   UNL     1       4.999  -3.744   3.571  0.00  0.00    +0.028 A 
BRANCH   2   9
ATOM      8  N   UNL     1       4.214  -0.963   1.329  0.00  0.00    -0.386 N 
ATOM      9  C   UNL     1       4.277  -2.175   1.781  0.00  0.00    +0.090 C 
ATOM     10  H   UNL     1       4.456  -0.219   1.903  0.00  0.00    +0.159 HD
BRANCH   8  11
ATOM     11  C   UNL     1       3.777  -0.716  -0.047  0.00  0.00    +0.147 C 
BRANCH  11  15
ATOM     12  C   UNL     1       0.091   1.443  -0.007  0.00  0.00    +0.000 A 
ATOM     13  C   UNL     1       1.292   2.126  -0.019  0.00  0.00    +0.000 A 
ATOM     14  C   UNL     1       2.485   1.428  -0.032  0.00  0.00    +0.005 A 
ATOM     15  C   UNL     1       2.476   0.045  -0.032  0.00  0.00    -0.028 A 
ATOM     16  C   UNL     1       1.275  -0.638  -0.019  0.00  0.00    +0.005 A 
ATOM     17  C   UNL     1       0.082   0.060  -0.008  0.00  0.00    +0.000 A 
ENDBRANCH  11  15
ENDBRANCH   8  11
ENDBRANCH   2   9
BRANCH   3  18
ATOM     18  O   UNL     1       4.978  -0.084   3.544  0.00  0.00    -0.506 OA
ATOM     19  H   UNL     1       4.107   0.283   3.751  0.00  0.00    +0.292 HD
ENDBRANCH   3  18
ENDBRANCH   1   6
BRANCH   1  20
ATOM     20  S   UNL     1       6.513  -5.409   7.289  0.00  0.00    -0.052 S 
BRANCH  20  21
ATOM     21  C   UNL     1       5.085  -5.223   8.304  0.00  0.00    +0.020 A 
ATOM     22  C   UNL     1       5.227  -5.041   9.672  0.00  0.00    +0.028 A 
ATOM     23  C   UNL     1       4.093  -4.894  10.473  0.00  0.00    +0.033 A 
ATOM     24  C   UNL     1       2.820  -4.930   9.889  0.00  0.00    +0.125 A 
ATOM     25  C   UNL     1       2.692  -5.112   8.521  0.00  0.00    +0.047 A 
ATOM     26  C   UNL     1       3.816  -5.253   7.732  0.00  0.00    +0.019 A 
BRANCH  23  27
ATOM     27  C   UNL     1       4.236  -4.701  11.928  0.00  0.00    +0.090 C 
ATOM     28  N   UNL     1       3.184  -4.672  12.682  0.00  0.00    -0.386 N 
ATOM     29  H   UNL     1       2.300  -4.705  12.284  0.00  0.00    +0.159 HD
BRANCH  28  30
ATOM     30  C   UNL     1       3.330  -4.591  14.138  0.00  0.00    +0.147 C 
BRANCH  30  31
ATOM     31  C   UNL     1       2.767  -3.281  14.627  0.00  0.00    -0.028 A 
ATOM     32  C   UNL     1       3.580  -2.167  14.709  0.00  0.00    +0.005 A 
ATOM     33  C   UNL     1       3.064  -0.965  15.158  0.00  0.00    +0.000 A 
ATOM     34  C   UNL     1       1.733  -0.878  15.522  0.00  0.00    +0.000 A 
ATOM     35  C   UNL     1       0.919  -1.992  15.439  0.00  0.00    +0.000 A 
ATOM     36  C   UNL     1       1.435  -3.193  14.986  0.00  0.00    +0.005 A 
ENDBRANCH  30  31
ENDBRANCH  28  30
ENDBRANCH  23  27
BRANCH  24  37
ATOM     37  O   UNL     1       1.712  -4.787  10.663  0.00  0.00    -0.506 OA
ATOM     38  H   UNL     1       1.421  -3.871  10.768  0.00  0.00    +0.292 HD
ENDBRANCH  24  37
ENDBRANCH  20  21
ENDBRANCH   1  20
TORSDOF 11
