REMARK  Name = ZINC10217744
REMARK  14 active torsions:
REMARK  status: ('A' for Active; 'I' for Inactive)
REMARK    1  A    between atoms: C_1  and  C_2
REMARK    2  A    between atoms: C_2  and  N_3
REMARK    3  A    between atoms: C_4  and  C_32
REMARK    4  A    between atoms: C_6  and  O_31
REMARK    5  A    between atoms: C_7  and  C_10
REMARK    6  A    between atoms: C_10  and  C_11
REMARK    7  A    between atoms: C_10  and  C_20
REMARK    8  A    between atoms: C_14  and  O_19
REMARK    9  A    between atoms: C_15  and  O_17
REMARK   10  A    between atoms: O_17  and  C_18
REMARK   11  A    between atoms: C_21  and  O_30
REMARK   12  A    between atoms: C_23  and  C_29
REMARK   13  A    between atoms: N_24  and  C_27
REMARK   14  A    between atoms: C_27  and  C_28
REMARK                            x       y       z     vdW  Elec       q    Type
REMARK                         _______ _______ _______ _____ _____    ______ ____
ROOT
ATOM      1  C   UNL     1       2.559   2.382   4.610  0.00  0.00    +0.097 C 
ENDROOT
BRANCH   1   6
ATOM      2  N   UNL     1      -0.641   0.488   4.061  0.00  0.00    -0.312 N 
ATOM      3  C   UNL     1      -0.739   0.477   2.705  0.00  0.00    +0.022 A 
ATOM      4  C   UNL     1       0.199   1.075   1.939  0.00  0.00    +0.067 A 
ATOM      5  C   UNL     1       1.300   1.710   2.546  0.00  0.00    +0.128 A 
ATOM      6  C   UNL     1       1.395   1.712   3.925  0.00  0.00    +0.070 A 
ATOM      7  C   UNL     1       0.395   1.084   4.678  0.00  0.00    +0.259 A 
ATOM      8  O   UNL     1       0.464   1.078   5.897  0.00  0.00    -0.267 OA
ATOM      9  C   UNL     1      -1.911  -0.206   2.049  0.00  0.00    +0.064 C 
BRANCH   2  11
ATOM     10  C   UNL     1      -2.759   0.854   5.228  0.00  0.00    +0.027 C 
ATOM     11  C   UNL     1      -1.679  -0.166   4.863  0.00  0.00    +0.122 C 
ENDBRANCH   2  11
BRANCH   5  12
ATOM     12  O   UNL     1       2.251   2.309   1.791  0.00  0.00    -0.506 OA
ATOM     13  H   UNL     1       2.092   2.251   0.839  0.00  0.00    +0.292 HD
ENDBRANCH   5  12
ENDBRANCH   1   6
BRANCH   1  14
ATOM     14  C   UNL     1       2.128   3.728   5.131  0.00  0.00    +0.070 A 
ATOM     15  C   UNL     1       2.378   4.084   6.444  0.00  0.00    +0.128 A 
ATOM     16  C   UNL     1       1.965   5.353   6.897  0.00  0.00    +0.067 A 
ATOM     17  C   UNL     1       1.329   6.193   6.054  0.00  0.00    +0.022 A 
ATOM     18  N   UNL     1       1.083   5.835   4.766  0.00  0.00    -0.312 N 
ATOM     19  C   UNL     1       1.466   4.634   4.294  0.00  0.00    +0.259 A 
ATOM     20  O   UNL     1       1.233   4.333   3.134  0.00  0.00    -0.267 OA
ATOM     21  C   UNL     1       0.885   7.546   6.547  0.00  0.00    +0.064 C 
BRANCH  18  22
ATOM     22  C   UNL     1       0.391   6.771   3.877  0.00  0.00    +0.122 C 
ATOM     23  C   UNL     1      -1.121   6.600   4.035  0.00  0.00    +0.027 C 
ENDBRANCH  18  22
BRANCH  15  24
ATOM     24  O   UNL     1       3.012   3.227   7.279  0.00  0.00    -0.506 OA
ATOM     25  H   UNL     1       3.138   3.571   8.174  0.00  0.00    +0.292 HD
ENDBRANCH  15  24
ENDBRANCH   1  14
BRANCH   1  26
ATOM     26  C   UNL     1       3.685   2.561   3.625  0.00  0.00    -0.031 A 
ATOM     27  C   UNL     1       4.324   1.453   3.099  0.00  0.00    +0.008 A 
ATOM     28  C   UNL     1       5.354   1.612   2.191  0.00  0.00    +0.049 A 
ATOM     29  C   UNL     1       5.756   2.884   1.814  0.00  0.00    +0.158 A 
ATOM     30  C   UNL     1       5.116   3.998   2.347  0.00  0.00    +0.162 A 
ATOM     31  C   UNL     1       4.080   3.832   3.253  0.00  0.00    +0.054 A 
BRANCH  30  32
ATOM     32  O   UNL     1       5.506   5.248   1.980  0.00  0.00    -0.491 OA
ATOM     33  C   UNL     1       4.804   6.346   2.568  0.00  0.00    +0.277 C 
ENDBRANCH  30  32
BRANCH  29  34
ATOM     34  O   UNL     1       6.773   3.042   0.925  0.00  0.00    -0.503 OA
ATOM     35  H   UNL     1       7.647   3.102   1.334  0.00  0.00    +0.292 HD
ENDBRANCH  29  34
ENDBRANCH   1  26
TORSDOF 9
