REMARK  Name = ZINC63600832
REMARK  7 active torsions:
REMARK  status: ('A' for Active; 'I' for Inactive)
REMARK    1  A    between atoms: C_1  and  C_2
REMARK    2  A    between atoms: C_5  and  S_8
REMARK    3  A    between atoms: S_8  and  N_11
REMARK    4  A    between atoms: N_11  and  C_12
REMARK    5  A    between atoms: C_18  and  N_22
REMARK    6  A    between atoms: C_23  and  C_25
REMARK    7  A    between atoms: C_28  and  C_31
REMARK                            x       y       z     vdW  Elec       q    Type
REMARK                         _______ _______ _______ _____ _____    ______ ____
ROOT
ATOM      1  C   UNL     1       2.508  -4.733   0.897  0.00  0.00    +0.224 C 
ATOM      2  N   UNL     1       3.603  -5.669   1.188  0.00  0.00    -0.318 N 
ATOM      3  C   UNL     1       4.909  -5.184   1.088  0.00  0.00    +0.043 A 
ATOM      4  C   UNL     1       6.077  -5.930   1.327  0.00  0.00    +0.026 A 
ATOM      5  C   UNL     1       7.324  -5.363   1.203  0.00  0.00    +0.025 A 
ATOM      6  C   UNL     1       7.471  -4.032   0.836  0.00  0.00    +0.035 A 
ATOM      7  C   UNL     1       6.332  -3.273   0.594  0.00  0.00    +0.040 A 
ATOM      8  C   UNL     1       5.087  -3.847   0.720  0.00  0.00    +0.034 A 
ATOM      9  S   UNL     1       3.444  -3.203   0.496  0.00  0.00    -0.084 S 
ATOM     10  H   UNL     1       3.425  -6.588   1.439  0.00  0.00    +0.148 HD
ENDROOT
BRANCH   6  11
ATOM     11  N   UNL     1       8.746  -3.464   0.712  0.00  0.00    -0.283 N 
ATOM     12  C   UNL     1       8.936  -2.164   1.010  0.00  0.00    +0.248 C 
ATOM     13  O   UNL     1       8.028  -1.509   1.476  0.00  0.00    -0.273 OA
ATOM     14  H   UNL     1       9.492  -4.007   0.412  0.00  0.00    +0.155 HD
BRANCH  12  15
ATOM     15  C   UNL     1      10.278  -1.523   0.764  0.00  0.00    +0.239 C 
ATOM     16  C   UNL     1      11.230  -1.817   1.910  0.00  0.00    +0.041 C 
ATOM     17  C   UNL     1      11.523  -0.598   2.408  0.00  0.00    +0.098 C 
ATOM     18  N   UNL     1      10.869   0.369   1.709  0.00  0.00    -0.153 NA
ATOM     19  N   UNL     1      10.164  -0.055   0.786  0.00  0.00    -0.170 NA
BRANCH  17  20
ATOM     20  C   UNL     1      12.424  -0.347   3.553  0.00  0.00    +0.039 A 
ATOM     21  C   UNL     1      12.776   0.844   4.130  0.00  0.00    +0.018 A 
ATOM     22  C   UNL     1      13.643   0.830   5.200  0.00  0.00    +0.008 A 
ATOM     23  C   UNL     1      14.122  -0.358   5.649  0.00  0.00    +0.046 A 
ATOM     24  S   UNL     1      13.332  -1.520   4.547  0.00  0.00    -0.095 S 
ENDBRANCH  17  20
ENDBRANCH  12  15
ENDBRANCH   6  11
BRANCH   1  25
ATOM     25  N   UNL     1       1.720  -5.184  -0.252  0.00  0.00    -0.160 NA
ATOM     26  H   UNL     1       2.129  -5.743  -0.932  0.00  0.00    +0.151 HD
BRANCH  25  27
ATOM     27  S   UNL     1       0.131  -4.741  -0.392  0.00  0.00    +0.061 S 
ATOM     28  O   UNL     1      -0.478  -5.013   0.863  0.00  0.00    -0.153 OA
ATOM     29  O   UNL     1      -0.344  -5.305  -1.607  0.00  0.00    -0.153 OA
BRANCH  27  34
ATOM     30  C   UNL     1       0.002   1.249  -1.108  0.00  0.00    +0.044 C 
ATOM     31  C   UNL     1       0.035  -0.247  -0.929  0.00  0.00    -0.050 A 
ATOM     32  C   UNL     1       0.115  -1.074  -2.034  0.00  0.00    +0.005 A 
ATOM     33  C   UNL     1       0.145  -2.446  -1.870  0.00  0.00    +0.029 A 
ATOM     34  C   UNL     1       0.094  -2.992  -0.601  0.00  0.00    +0.105 A 
ATOM     35  C   UNL     1       0.014  -2.165   0.504  0.00  0.00    +0.029 A 
ATOM     36  C   UNL     1      -0.011  -0.793   0.340  0.00  0.00    +0.005 A 
ENDBRANCH  27  34
ENDBRANCH  25  27
ENDBRANCH   1  25
TORSDOF 6
