REMARK  Name = ZINC06763106
REMARK  5 active torsions:
REMARK  status: ('A' for Active; 'I' for Inactive)
REMARK    1  A    between atoms: C_1  and  C_2
REMARK    2  A    between atoms: C_2  and  C_3
REMARK    3  A    between atoms: C_2  and  C_4
REMARK    4  A    between atoms: C_7  and  N_10
REMARK    5  A    between atoms: C_21  and  C_23
REMARK                            x       y       z     vdW  Elec       q    Type
REMARK                         _______ _______ _______ _____ _____    ______ ____
ROOT
ATOM      1  N   UNL     1      -2.442   5.809  -2.797  0.00  0.00    -0.269 N 
ATOM      2  C   UNL     1      -1.593   5.310  -1.877  0.00  0.00    +0.307 C 
ATOM      3  O   UNL     1      -1.282   4.136  -1.911  0.00  0.00    -0.252 OA
ATOM      4  N   UNL     1      -1.090   6.113  -0.918  0.00  0.00    -0.271 N 
ATOM      5  C   UNL     1      -1.531   7.511  -0.793  0.00  0.00    +0.132 C 
ATOM      6  C   UNL     1      -2.242   7.698   0.552  0.00  0.00    +0.140 C 
ATOM      7  N   UNL     1      -1.444   7.071   1.612  0.00  0.00    -0.347 N 
ATOM      8  C   UNL     1      -1.533   7.307   2.949  0.00  0.00    +0.086 A 
ATOM      9  C   UNL     1      -0.628   6.521   3.579  0.00  0.00    +0.019 A 
ATOM     10  C   UNL     1       0.042   5.772   2.589  0.00  0.00    +0.025 A 
ATOM     11  C   UNL     1      -0.471   6.131   1.402  0.00  0.00    +0.044 A 
ATOM     12  C   UNL     1      -0.080   5.617   0.035  0.00  0.00    +0.155 C 
ATOM     13  H   UNL     1      -2.637   6.760  -2.812  0.00  0.00    +0.156 HD
ENDROOT
BRANCH  12  14
ATOM     14  C   UNL     1      -0.071   4.110   0.036  0.00  0.00    -0.021 A 
ATOM     15  C   UNL     1       1.089   3.426  -0.278  0.00  0.00    +0.008 A 
ATOM     16  C   UNL     1       1.099   2.045  -0.279  0.00  0.00    +0.038 A 
ATOM     17  C   UNL     1      -0.053   1.345   0.036  0.00  0.00    +0.123 A 
ATOM     18  C   UNL     1      -1.216   2.030   0.346  0.00  0.00    +0.038 A 
ATOM     19  C   UNL     1      -1.222   3.412   0.350  0.00  0.00    +0.008 A 
ATOM     20  F   UNL     1      -0.045  -0.006   0.035  0.00  0.00    -0.205 F 
ENDBRANCH  12  14
BRANCH   1  24
ATOM     21  C   UNL     1      -4.231   3.272  -5.575  0.00  0.00    -0.045 A 
ATOM     22  C   UNL     1      -4.933   4.354  -5.077  0.00  0.00    +0.006 A 
ATOM     23  C   UNL     1      -4.343   5.197  -4.156  0.00  0.00    +0.023 A 
ATOM     24  C   UNL     1      -3.043   4.957  -3.730  0.00  0.00    +0.035 A 
ATOM     25  C   UNL     1      -2.339   3.872  -4.236  0.00  0.00    +0.023 A 
ATOM     26  C   UNL     1      -2.937   3.029  -5.152  0.00  0.00    +0.006 A 
BRANCH  21  28
ATOM     27  C   UNL     1      -4.060   2.355  -7.872  0.00  0.00    +0.012 C 
ATOM     28  C   UNL     1      -4.878   2.353  -6.580  0.00  0.00    +0.013 C 
ATOM     29  C   UNL     1      -4.933   0.934  -6.012  0.00  0.00    +0.012 C 
ENDBRANCH  21  28
ENDBRANCH   1  24
TORSDOF 3
