REMARK  Name = ZINC36479479
REMARK  6 active torsions:
REMARK  status: ('A' for Active; 'I' for Inactive)
REMARK    1  A    between atoms: C_1  and  N_2
REMARK    2  A    between atoms: C_5  and  N_8
REMARK    3  A    between atoms: N_8  and  C_9
REMARK    4  A    between atoms: N_8  and  C_10
REMARK    5  A    between atoms: C_17  and  C_19
REMARK    6  A    between atoms: C_19  and  N_20
REMARK                            x       y       z     vdW  Elec       q    Type
REMARK                         _______ _______ _______ _____ _____    ______ ____
ROOT
ATOM      1  C   UNL     1       3.513  -2.570   1.772  0.00  0.00    +0.107 A 
ATOM      2  C   UNL     1       2.754  -3.549   2.337  0.00  0.00    +0.042 A 
ATOM      3  C   UNL     1       3.351  -4.527   3.141  0.00  0.00    +0.007 A 
ATOM      4  C   UNL     1       4.696  -4.496   3.357  0.00  0.00    +0.045 A 
ATOM      5  C   UNL     1       5.470  -3.479   2.768  0.00  0.00    +0.117 A 
ATOM      6  N   UNL     1       4.864  -2.535   1.979  0.00  0.00    -0.289 N 
ATOM      7  C   UNL     1       5.850  -1.687   1.540  0.00  0.00    +0.116 A 
ATOM      8  C   UNL     1       7.015  -2.130   2.058  0.00  0.00    +0.048 A 
ATOM      9  N   UNL     1       6.768  -3.210   2.805  0.00  0.00    -0.342 N 
ATOM     10  H   UNL     1       7.435  -3.723   3.289  0.00  0.00    +0.167 HD
ENDROOT
BRANCH   1  11
ATOM     11  N   UNL     1       2.914  -1.608   0.979  0.00  0.00    -0.318 N 
ATOM     12  C   UNL     1       3.280  -1.494  -0.435  0.00  0.00    +0.131 C 
BRANCH  11  17
ATOM     13  C   UNL     1       1.634   2.266  -0.549  0.00  0.00    -0.096 C 
ATOM     14  N   UNL     1       1.139   1.323   0.463  0.00  0.00    +0.379 N 
ATOM     15  C   UNL     1       0.481   0.165  -0.194  0.00  0.00    -0.077 C 
ATOM     16  C   UNL     1       0.537  -0.938   0.893  0.00  0.00    +0.002 C 
ATOM     17  C   UNL     1       1.915  -0.703   1.553  0.00  0.00    +0.056 C 
ATOM     18  C   UNL     1       2.270   0.760   1.233  0.00  0.00    -0.057 C 
ATOM     19  H   UNL     1       0.492   1.786   1.084  0.00  0.00    -0.082 HD
ENDBRANCH  11  17
ENDBRANCH   1  11
BRANCH   8  20
ATOM     20  C   UNL     1       8.368  -1.503   1.839  0.00  0.00    +0.139 C 
BRANCH  20  21
ATOM     21  N   UNL     1       8.668  -0.586   2.947  0.00  0.00    -0.288 NA
ATOM     22  C   UNL     1       7.736   0.547   2.959  0.00  0.00    +0.085 C 
ATOM     23  C   UNL     1       7.972   1.380   4.222  0.00  0.00    +0.016 C 
ATOM     24  C   UNL     1       9.412   1.900   4.210  0.00  0.00    +0.007 C 
ATOM     25  C   UNL     1      10.382   0.727   4.113  0.00  0.00    +0.012 C 
ATOM     26  C   UNL     1      10.066  -0.138   2.897  0.00  0.00    +0.109 C 
ATOM     27  C   UNL     1      10.960  -1.357   2.892  0.00  0.00    +0.062 A 
ATOM     28  C   UNL     1      11.595  -1.802   4.029  0.00  0.00    -0.025 A 
ATOM     29  C   UNL     1      12.396  -2.938   3.953  0.00  0.00    +0.007 A 
ATOM     30  C   UNL     1      12.532  -3.581   2.735  0.00  0.00    +0.020 A 
ATOM     31  C   UNL     1      11.868  -3.073   1.634  0.00  0.00    +0.111 A 
ATOM     32  N   UNL     1      11.117  -1.998   1.743  0.00  0.00    -0.258 NA
ATOM     33  C   UNL     1      11.479  -1.111   5.361  0.00  0.00    +0.037 C 
ATOM     34  C   UNL     1      10.296  -0.144   5.369  0.00  0.00    +0.010 C 
ENDBRANCH  20  21
ENDBRANCH   8  20
TORSDOF 4
