REMARK  Name = ZINC65974800
REMARK  9 active torsions:
REMARK  status: ('A' for Active; 'I' for Inactive)
REMARK    1  A    between atoms: C_1  and  C_2
REMARK    2  A    between atoms: C_2  and  N_3
REMARK    3  A    between atoms: C_11  and  C_12
REMARK    4  A    between atoms: C_12  and  C_13
REMARK    5  A    between atoms: C_12  and  N_14
REMARK    6  A    between atoms: N_14  and  S_15
REMARK    7  A    between atoms: S_15  and  C_18
REMARK    8  A    between atoms: C_21  and  N_25
REMARK    9  A    between atoms: C_23  and  C_24
REMARK                            x       y       z     vdW  Elec       q    Type
REMARK                         _______ _______ _______ _____ _____    ______ ____
ROOT
ATOM      1  N   UNL     1      -1.420   0.043   4.072  0.00  0.00    -0.180 NA
ATOM      2  H   UNL     1      -0.696  -0.151   4.687  0.00  0.00    +0.149 HD
ENDROOT
BRANCH   1   3
ATOM      3  S   UNL     1      -2.719   0.937   4.578  0.00  0.00    +0.059 S 
ATOM      4  O   UNL     1      -2.482   1.263   5.940  0.00  0.00    -0.153 OA
ATOM      5  O   UNL     1      -2.942   1.928   3.584  0.00  0.00    -0.153 OA
BRANCH   3   6
ATOM      6  C   UNL     1      -4.125  -0.126   4.552  0.00  0.00    +0.108 A 
ATOM      7  C   UNL     1      -5.170   0.131   3.683  0.00  0.00    +0.031 A 
ATOM      8  C   UNL     1      -6.272  -0.703   3.663  0.00  0.00    +0.034 A 
ATOM      9  C   UNL     1      -6.330  -1.794   4.511  0.00  0.00    +0.127 A 
ATOM     10  C   UNL     1      -5.285  -2.050   5.378  0.00  0.00    +0.038 A 
ATOM     11  C   UNL     1      -4.180  -1.219   5.396  0.00  0.00    -0.022 A 
ATOM     12  C   UNL     1      -3.038  -1.502   6.338  0.00  0.00    +0.046 C 
BRANCH   9  13
ATOM     13  N   UNL     1      -7.511  -2.686   4.490  0.00  0.00    +0.056 N 
ATOM     14  O   UNL     1      -8.425  -2.461   3.731  0.00  0.00    -0.126 OA
ATOM     15  O   UNL     1      -7.561  -3.639   5.231  0.00  0.00    -0.126 OA
ENDBRANCH   9  13
ENDBRANCH   3   6
ENDBRANCH   1   3
BRANCH   1  16
ATOM     16  C   UNL     1      -1.365  -0.455   2.695  0.00  0.00    +0.139 C 
ATOM     17  C   UNL     1      -1.859  -1.903   2.656  0.00  0.00    +0.034 C 
BRANCH  16  26
ATOM     18  N   UNL     1       0.433   0.071   0.974  0.00  0.00    -0.326 N 
ATOM     19  C   UNL     1       1.808  -0.034   0.902  0.00  0.00    +0.069 A 
ATOM     20  C   UNL     1       2.751   0.278  -0.067  0.00  0.00    +0.028 A 
ATOM     21  C   UNL     1       4.087   0.044   0.180  0.00  0.00    +0.002 A 
ATOM     22  C   UNL     1       4.493  -0.501   1.390  0.00  0.00    +0.002 A 
ATOM     23  C   UNL     1       3.579  -0.815   2.355  0.00  0.00    +0.030 A 
ATOM     24  C   UNL     1       2.219  -0.585   2.127  0.00  0.00    +0.089 A 
ATOM     25  N   UNL     1       1.099  -0.784   2.868  0.00  0.00    -0.231 NA
ATOM     26  C   UNL     1       0.055  -0.395   2.195  0.00  0.00    +0.129 A 
BRANCH  18  28
ATOM     27  C   UNL     1      -0.627   2.102   0.117  0.00  0.00    +0.027 C 
ATOM     28  C   UNL     1      -0.454   0.593  -0.068  0.00  0.00    +0.120 C 
ENDBRANCH  18  28
ENDBRANCH  16  26
ENDBRANCH   1  16
TORSDOF 6
