REMARK  Name = ZINC10061296
REMARK  7 active torsions:
REMARK  status: ('A' for Active; 'I' for Inactive)
REMARK    1  A    between atoms: C_1  and  C_2
REMARK    2  A    between atoms: C_2  and  O_3
REMARK    3  A    between atoms: O_3  and  C_4
REMARK    4  A    between atoms: C_7  and  C_9
REMARK    5  A    between atoms: C_13  and  N_14
REMARK    6  A    between atoms: C_15  and  C_17
REMARK    7  A    between atoms: C_17  and  C_18
REMARK                            x       y       z     vdW  Elec       q    Type
REMARK                         _______ _______ _______ _____ _____    ______ ____
ROOT
ATOM      1  C   UNL     1       2.999  -1.642   1.746  0.00  0.00    +0.069 A 
ATOM      2  C   UNL     1       2.179  -0.684   1.016  0.00  0.00    -0.023 A 
ATOM      3  C   UNL     1       2.847   0.061   0.110  0.00  0.00    -0.004 A 
ATOM      4  S   UNL     1       4.530  -0.479   0.225  0.00  0.00    -0.077 S 
ATOM      5  C   UNL     1       4.354  -1.688   1.453  0.00  0.00    +0.084 A 
ATOM      6  C   UNL     1       2.288   1.105  -0.807  0.00  0.00    +0.043 C 
ATOM      7  C   UNL     1       1.406   2.067  -0.000  0.00  0.00    +0.005 C 
ATOM      8  C   UNL     1      -0.019   1.523   0.010  0.00  0.00    +0.001 C 
ATOM      9  C   UNL     1       0.002  -0.004   0.002  0.00  0.00    +0.005 C 
ATOM     10  C   UNL     1       0.683  -0.535   1.259  0.00  0.00    +0.037 C 
ENDROOT
BRANCH   1  14
ATOM     11  C   UNL     1       1.808  -2.944   4.972  0.00  0.00    +0.407 C 
ATOM     12  O   UNL     1       1.380  -4.034   4.650  0.00  0.00    -0.226 OA
ATOM     13  N   UNL     1       2.348  -2.130   4.043  0.00  0.00    -0.217 N 
ATOM     14  C   UNL     1       2.412  -2.526   2.756  0.00  0.00    +0.255 C 
ATOM     15  O   UNL     1       1.983  -3.618   2.434  0.00  0.00    -0.270 OA
ATOM     16  H   UNL     1       2.690  -1.260   4.300  0.00  0.00    +0.161 HD
BRANCH  11  17
ATOM     17  O   UNL     1       1.744  -2.548   6.257  0.00  0.00    -0.450 OA
BRANCH  17  19
ATOM     18  C   UNL     1       1.165  -2.856   8.603  0.00  0.00    +0.048 C 
ATOM     19  C   UNL     1       1.150  -3.475   7.204  0.00  0.00    +0.230 C 
ENDBRANCH  17  19
ENDBRANCH  11  17
ENDBRANCH   1  14
BRANCH   5  20
ATOM     20  N   UNL     1       5.329  -2.501   2.008  0.00  0.00    -0.279 N 
ATOM     21  C   UNL     1       6.607  -2.402   1.591  0.00  0.00    +0.222 C 
ATOM     22  O   UNL     1       6.903  -1.600   0.731  0.00  0.00    -0.275 OA
ATOM     23  H   UNL     1       5.091  -3.143   2.696  0.00  0.00    +0.155 HD
BRANCH  21  24
ATOM     24  C   UNL     1       7.667  -3.287   2.195  0.00  0.00    +0.138 C 
BRANCH  24  25
ATOM     25  C   UNL     1       8.999  -2.979   1.560  0.00  0.00    -0.000 A 
ATOM     26  C   UNL     1       9.938  -2.079   1.941  0.00  0.00    +0.013 A 
ATOM     27  C   UNL     1      11.099  -1.966   1.199  0.00  0.00    +0.028 A 
ATOM     28  C   UNL     1      11.264  -2.761   0.112  0.00  0.00    +0.078 A 
ATOM     29  S   UNL     1       9.752  -3.711   0.117  0.00  0.00    -0.081 S 
ATOM     30 CL   UNL     1      12.601  -2.840  -0.992  0.00  0.00    -0.076 Cl
ENDBRANCH  24  25
ENDBRANCH  21  24
ENDBRANCH   5  20
TORSDOF 6
