REMARK  Name = ZINC12641724
REMARK  7 active torsions:
REMARK  status: ('A' for Active; 'I' for Inactive)
REMARK    1  A    between atoms: C_4  and  N_7
REMARK    2  A    between atoms: C_8  and  C_10
REMARK    3  A    between atoms: N_12  and  C_13
REMARK    4  A    between atoms: N_12  and  C_24
REMARK    5  A    between atoms: C_24  and  C_26
REMARK    6  A    between atoms: C_24  and  C_31
REMARK    7  A    between atoms: N_33  and  C_34
REMARK                            x       y       z     vdW  Elec       q    Type
REMARK                         _______ _______ _______ _____ _____    ______ ____
ROOT
ATOM      1  C   UNL     1      -0.017   0.730   0.112  0.00  0.00    +0.303 C 
ATOM      2  O   UNL     1       0.066  -0.375   0.607  0.00  0.00    -0.265 OA
ATOM      3  N   UNL     1       1.096   1.370  -0.300  0.00  0.00    -0.268 N 
ENDROOT
BRANCH   3   4
ATOM      4  C   UNL     1       0.988   2.655  -0.994  0.00  0.00    +0.108 C 
ATOM      5  C   UNL     1       0.447   3.706  -0.026  0.00  0.00    +0.028 C 
ATOM      6  C   UNL     1       0.139   4.981  -0.819  0.00  0.00    +0.007 C 
ATOM      7  C   UNL     1      -1.073   4.712  -1.710  0.00  0.00    +0.035 C 
ATOM      8  C   UNL     1      -0.872   3.453  -2.511  0.00  0.00    -0.042 A 
ATOM      9  C   UNL     1       0.069   2.505  -2.178  0.00  0.00    -0.024 A 
ATOM     10  C   UNL     1       0.194   1.358  -2.951  0.00  0.00    +0.006 A 
ATOM     11  C   UNL     1      -0.615   1.163  -4.052  0.00  0.00    +0.000 A 
ATOM     12  C   UNL     1      -1.557   2.117  -4.389  0.00  0.00    +0.000 A 
ATOM     13  C   UNL     1      -1.683   3.257  -3.621  0.00  0.00    +0.004 A 
ENDBRANCH   3   4
BRANCH   1  15
ATOM     14  N   UNL     1      -2.462   0.758   0.403  0.00  0.00    -0.278 N 
ATOM     15  C   UNL     1      -1.353   1.379  -0.048  0.00  0.00    +0.303 C 
ATOM     16  O   UNL     1      -1.441   2.465  -0.583  0.00  0.00    -0.265 OA
ATOM     17  H   UNL     1      -2.385  -0.072   0.899  0.00  0.00    +0.155 HD
BRANCH  14  21
ATOM     18  C   UNL     1      -6.215   2.402  -0.338  0.00  0.00    +0.000 A 
ATOM     19  C   UNL     1      -6.064   1.029  -0.272  0.00  0.00    +0.002 A 
ATOM     20  C   UNL     1      -4.821   0.481  -0.026  0.00  0.00    +0.023 A 
ATOM     21  C   UNL     1      -3.721   1.310   0.154  0.00  0.00    +0.034 A 
ATOM     22  C   UNL     1      -3.877   2.689   0.092  0.00  0.00    +0.023 A 
ATOM     23  C   UNL     1      -5.122   3.231  -0.159  0.00  0.00    +0.002 A 
ENDBRANCH  14  21
ENDBRANCH   1  15
BRANCH   3  24
ATOM     24  C   UNL     1       2.413   0.779  -0.052  0.00  0.00    +0.229 C 
BRANCH  24  25
ATOM     25  C   UNL     1       3.204   1.679   0.862  0.00  0.00    +0.134 A 
ATOM     26  C   UNL     1       4.002   1.275   1.867  0.00  0.00    +0.047 A 
ATOM     27  C   UNL     1       4.541   2.442   2.456  0.00  0.00    +0.041 A 
ATOM     28  C   UNL     1       4.040   3.489   1.777  0.00  0.00    +0.195 A 
ATOM     29  O   UNL     1       3.235   3.021   0.809  0.00  0.00    -0.465 OA
ENDBRANCH  24  25
BRANCH  24  30
ATOM     30  C   UNL     1       3.147   0.622  -1.360  0.00  0.00    +0.241 C 
ATOM     31  O   UNL     1       2.725   1.163  -2.360  0.00  0.00    -0.273 OA
ATOM     32  N   UNL     1       4.271  -0.119  -1.417  0.00  0.00    -0.311 N 
ATOM     33  H   UNL     1       4.607  -0.552  -0.617  0.00  0.00    +0.149 HD
BRANCH  32  34
ATOM     34  C   UNL     1       4.984  -0.272  -2.688  0.00  0.00    +0.073 C 
ATOM     35  C   UNL     1       4.400  -1.459  -3.482  0.00  0.00    +0.022 C 
ATOM     36  C   UNL     1       5.635  -2.106  -4.158  0.00  0.00    +0.002 C 
ATOM     37  C   UNL     1       6.729  -1.979  -3.069  0.00  0.00    +0.002 C 
ATOM     38  C   UNL     1       6.463  -0.602  -2.425  0.00  0.00    +0.022 C 
ENDBRANCH  32  34
ENDBRANCH  24  30
ENDBRANCH   3  24
TORSDOF 7
