REMARK  Name = ZINC63530112
REMARK  6 active torsions:
REMARK  status: ('A' for Active; 'I' for Inactive)
REMARK    1  A    between atoms: C_1  and  C_2
REMARK    2  A    between atoms: C_2  and  C_3
REMARK    3  A    between atoms: C_2  and  N_4
REMARK    4  A    between atoms: C_7  and  C_9
REMARK    5  A    between atoms: C_9  and  N_10
REMARK    6  A    between atoms: C_11  and  C_13
REMARK                            x       y       z     vdW  Elec       q    Type
REMARK                         _______ _______ _______ _____ _____    ______ ____
ROOT
ATOM      1  N   UNL     1      -4.383  -2.238  -3.283  0.00  0.00    -0.311 N 
ATOM      2  C   UNL     1      -5.591  -2.272  -3.879  0.00  0.00    +0.244 C 
ATOM      3  O   UNL     1      -6.334  -1.314  -3.799  0.00  0.00    -0.270 OA
ATOM      4  H   UNL     1      -3.789  -3.003  -3.347  0.00  0.00    +0.149 HD
ENDROOT
BRANCH   2   5
ATOM      5  C   UNL     1      -6.014  -3.477  -4.630  0.00  0.00    +0.039 A 
ATOM      6  C   UNL     1      -5.152  -4.582  -4.712  0.00  0.00    +0.014 A 
ATOM      7  C   UNL     1      -5.518  -5.701  -5.397  0.00  0.00    +0.016 A 
ATOM      8  C   UNL     1      -6.768  -5.756  -6.029  0.00  0.00    +0.065 A 
ATOM      9  C   UNL     1      -7.650  -4.646  -5.953  0.00  0.00    +0.080 A 
ATOM     10  C   UNL     1      -7.257  -3.504  -5.239  0.00  0.00    +0.041 A 
ATOM     11  N   UNL     1      -8.842  -4.715  -6.562  0.00  0.00    -0.223 NA
ATOM     12  C   UNL     1      -9.200  -5.802  -7.228  0.00  0.00    +0.180 A 
ATOM     13  N   UNL     1      -8.403  -6.879  -7.329  0.00  0.00    -0.301 N 
ATOM     14  H   UNL     1      -8.707  -7.654  -7.827  0.00  0.00    +0.171 HD
ATOM     15  C   UNL     1      -7.184  -6.897  -6.747  0.00  0.00    +0.260 A 
ATOM     16  O   UNL     1      -6.388  -7.976  -6.848  0.00  0.00    -0.267 OA
ATOM     17  S   UNL     1     -10.733  -5.837  -7.988  0.00  0.00    -0.011 S 
ENDBRANCH   2   5
BRANCH   1  18
ATOM     18  C   UNL     1      -3.965  -1.046  -2.541  0.00  0.00    +0.106 C 
BRANCH  18  22
ATOM     19  N   UNL     1      -1.376  -0.512   0.012  0.00  0.00    +0.381 N 
ATOM     20  C   UNL     1      -1.361  -1.991  -0.017  0.00  0.00    -0.078 C 
ATOM     21  C   UNL     1      -2.580  -2.381  -0.889  0.00  0.00    -0.015 C 
ATOM     22  C   UNL     1      -2.563  -1.267  -1.969  0.00  0.00    -0.012 C 
ATOM     23  C   UNL     1      -2.093  -0.026  -1.181  0.00  0.00    -0.074 C 
ATOM     24  H   UNL     1      -1.849  -0.196   0.846  0.00  0.00    -0.081 HD
BRANCH  19  26
ATOM     25  C   UNL     1      -0.019   1.526   0.010  0.00  0.00    -0.014 C 
ATOM     26  C   UNL     1       0.002  -0.004   0.002  0.00  0.00    -0.075 C 
ATOM     27  C   UNL     1       0.742  -0.511   1.242  0.00  0.00    -0.014 C 
ENDBRANCH  19  26
ENDBRANCH  18  22
ENDBRANCH   1  18
TORSDOF 4
