REMARK  Name = ZINC29754311
REMARK  9 active torsions:
REMARK  status: ('A' for Active; 'I' for Inactive)
REMARK    1  A    between atoms: C_1  and  C_2
REMARK    2  A    between atoms: C_5  and  C_13
REMARK    3  A    between atoms: C_6  and  C_12
REMARK    4  A    between atoms: N_9  and  C_11
REMARK    5  A    between atoms: N_15  and  C_16
REMARK    6  A    between atoms: C_16  and  C_17
REMARK    7  A    between atoms: C_17  and  C_19
REMARK    8  A    between atoms: C_17  and  N_24
REMARK    9  A    between atoms: C_27  and  C_30
REMARK                            x       y       z     vdW  Elec       q    Type
REMARK                         _______ _______ _______ _____ _____    ______ ____
ROOT
ATOM      1  C   UNL     1      -1.300   1.672  -0.811  0.00  0.00    +0.246 C 
ATOM      2  O   UNL     1      -2.302   0.994  -0.931  0.00  0.00    -0.270 OA
ATOM      3  N   UNL     1      -1.394   3.016  -0.799  0.00  0.00    -0.313 N 
ATOM      4  H   UNL     1      -0.487   3.630  -0.690  0.00  0.00    +0.149 HD
ENDROOT
BRANCH   1   9
ATOM      5  C   UNL     1       4.297   2.969  -0.609  0.00  0.00    +0.068 C 
ATOM      6  C   UNL     1       3.801   1.550  -0.515  0.00  0.00    +0.069 A 
ATOM      7  C   UNL     1       2.407   1.119  -0.555  0.00  0.00    +0.042 A 
ATOM      8  C   UNL     1       1.186   1.787  -0.678  0.00  0.00    +0.028 A 
ATOM      9  C   UNL     1       0.019   1.022  -0.677  0.00  0.00    +0.058 A 
ATOM     10  C   UNL     1       0.115  -0.371  -0.553  0.00  0.00    +0.053 A 
ATOM     11  N   UNL     1       1.278  -0.968  -0.439  0.00  0.00    -0.232 NA
ATOM     12  C   UNL     1       2.419  -0.286  -0.435  0.00  0.00    +0.158 A 
ATOM     13  N   UNL     1       3.730  -0.656  -0.332  0.00  0.00    -0.249 N 
ATOM     14  N   UNL     1       4.538   0.484  -0.385  0.00  0.00    -0.174 NA
ATOM     15  C   UNL     1       4.214  -2.031  -0.189  0.00  0.00    +0.174 C 
ATOM     16  C   UNL     1      -1.143  -1.200  -0.552  0.00  0.00    +0.066 C 
ENDBRANCH   1   9
BRANCH   3  17
ATOM     17  C   UNL     1      -2.703   3.660  -0.932  0.00  0.00    +0.094 C 
BRANCH  17  18
ATOM     18  C   UNL     1      -2.530   5.180  -0.888  0.00  0.00    -0.013 C 
BRANCH  18  19
ATOM     19  N   UNL     1      -1.567   5.593  -1.917  0.00  0.00    +0.386 N 
ATOM     20  C   UNL     1      -1.865   4.952  -3.204  0.00  0.00    -0.078 C 
ATOM     21  C   UNL     1      -0.762   5.289  -4.211  0.00  0.00    -0.015 C 
ATOM     22  C   UNL     1      -0.682   6.808  -4.383  0.00  0.00    -0.018 C 
ATOM     23  C   UNL     1      -0.419   7.455  -3.020  0.00  0.00    -0.015 C 
ATOM     24  C   UNL     1      -1.531   7.055  -2.048  0.00  0.00    -0.078 C 
ATOM     25  C   UNL     1       0.459   7.154  -5.342  0.00  0.00    +0.007 C 
ATOM     26  H   UNL     1      -0.568   5.261  -1.600  0.00  0.00    -0.081 HD
ENDBRANCH  18  19
BRANCH  18  27
ATOM     27  C   UNL     1      -3.858   5.844  -1.147  0.00  0.00    -0.022 A 
ATOM     28  C   UNL     1      -4.667   6.502  -0.281  0.00  0.00    +0.009 A 
ATOM     29  C   UNL     1      -5.853   7.038  -0.746  0.00  0.00    +0.008 A 
ATOM     30  C   UNL     1      -6.172   6.890  -2.055  0.00  0.00    +0.045 A 
ATOM     31  S   UNL     1      -4.770   5.976  -2.676  0.00  0.00    -0.103 S 
ENDBRANCH  18  27
ENDBRANCH  17  18
ENDBRANCH   3  17
TORSDOF 5
