REMARK  Name = ZINC67458601
REMARK  7 active torsions:
REMARK  status: ('A' for Active; 'I' for Inactive)
REMARK    1  A    between atoms: C_1  and  C_2
REMARK    2  A    between atoms: C_3  and  C_19
REMARK    3  A    between atoms: C_5  and  C_7
REMARK    4  A    between atoms: C_10  and  O_17
REMARK    5  A    between atoms: O_17  and  C_18
REMARK    6  A    between atoms: C_19  and  N_20
REMARK    7  A    between atoms: C_24  and  C_27
REMARK                            x       y       z     vdW  Elec       q    Type
REMARK                         _______ _______ _______ _____ _____    ______ ____
ROOT
ATOM      1  C   UNL     1      -0.018   1.503   0.010  0.00  0.00    +0.088 C 
ATOM      2  C   UNL     1       0.002  -0.004   0.002  0.00  0.00    +0.127 A 
ATOM      3  C   UNL     1      -1.071  -0.816   0.003  0.00  0.00    +0.097 A 
ATOM      4  N   UNL     1      -0.628  -2.083  -0.007  0.00  0.00    -0.212 NA
ATOM      5  C   UNL     1       0.686  -2.068  -0.014  0.00  0.00    +0.228 A 
ATOM      6  O   UNL     1       1.099  -0.788  -0.013  0.00  0.00    -0.440 OA
ENDROOT
BRANCH   5   7
ATOM      7  C   UNL     1       1.560  -3.255  -0.025  0.00  0.00    +0.045 A 
ATOM      8  C   UNL     1       1.016  -4.533  -0.036  0.00  0.00    +0.017 A 
ATOM      9  C   UNL     1       1.835  -5.651  -0.047  0.00  0.00    +0.047 A 
ATOM     10  C   UNL     1       3.208  -5.539  -0.047  0.00  0.00    +0.128 A 
ATOM     11  C   UNL     1       3.821  -4.270  -0.036  0.00  0.00    +0.025 A 
ATOM     12  C   UNL     1       3.013  -3.107  -0.031  0.00  0.00    -0.002 A 
ATOM     13  C   UNL     1       3.619  -1.845  -0.026  0.00  0.00    +0.009 A 
ATOM     14  C   UNL     1       4.979  -1.749  -0.031  0.00  0.00    +0.001 A 
ATOM     15  C   UNL     1       5.775  -2.891  -0.043  0.00  0.00    +0.001 A 
ATOM     16  C   UNL     1       5.219  -4.135  -0.036  0.00  0.00    +0.012 A 
BRANCH  10  17
ATOM     17  O   UNL     1       3.976  -6.659  -0.058  0.00  0.00    -0.495 OA
ATOM     18  C   UNL     1       3.292  -7.914  -0.069  0.00  0.00    +0.277 C 
ENDBRANCH  10  17
ENDBRANCH   5   7
BRANCH   3  19
ATOM     19  C   UNL     1      -2.513  -0.380   0.013  0.00  0.00    +0.143 C 
BRANCH  19  20
ATOM     20  N   UNL     1      -2.989  -0.230  -1.369  0.00  0.00    -0.300 NA
ATOM     21  C   UNL     1      -2.299   0.877  -2.046  0.00  0.00    +0.066 C 
ATOM     22  C   UNL     1      -2.779   0.962  -3.497  0.00  0.00    -0.067 C 
ATOM     23  N   UNL     1      -4.231   1.180  -3.520  0.00  0.00    +0.382 N 
ATOM     24  C   UNL     1      -4.908   0.054  -2.862  0.00  0.00    -0.061 C 
ATOM     25  C   UNL     1      -4.446  -0.038  -1.407  0.00  0.00    +0.069 C 
ATOM     26  C   UNL     1      -6.421   0.273  -2.904  0.00  0.00    -0.012 C 
ATOM     27  H   UNL     1      -4.451   2.035  -3.033  0.00  0.00    -0.085 HD
ATOM     28  H   UNL     1      -4.546   1.248  -4.477  0.00  0.00    -0.085 HD
ENDBRANCH  19  20
ENDBRANCH   3  19
TORSDOF 4
