REMARK  Name = ZINC39944621
REMARK  7 active torsions:
REMARK  status: ('A' for Active; 'I' for Inactive)
REMARK    1  A    between atoms: C_1  and  C_2
REMARK    2  A    between atoms: C_4  and  C_38
REMARK    3  A    between atoms: C_8  and  C_12
REMARK    4  A    between atoms: C_12  and  C_14
REMARK    5  A    between atoms: C_12  and  S_15
REMARK    6  A    between atoms: S_15  and  C_16
REMARK    7  A    between atoms: N_30  and  C_31
REMARK                            x       y       z     vdW  Elec       q    Type
REMARK                         _______ _______ _______ _____ _____    ______ ____
ROOT
ATOM      1  C   UNL     1       7.663  -4.864  -0.667  0.00  0.00    +0.223 C 
ATOM      2  N   UNL     1       7.201  -6.136  -0.083  0.00  0.00    -0.311 N 
ATOM      3  C   UNL     1       6.753  -6.094   1.215  0.00  0.00    +0.080 A 
ATOM      4  C   UNL     1       7.153  -5.100   2.119  0.00  0.00    +0.069 A 
ATOM      5  C   UNL     1       6.594  -5.206   3.457  0.00  0.00    -0.023 A 
ATOM      6  C   UNL     1       5.759  -6.253   3.635  0.00  0.00    -0.005 A 
ATOM      7  S   UNL     1       5.718  -7.074   2.065  0.00  0.00    -0.078 S 
ATOM      8  C   UNL     1       5.035  -6.625   4.892  0.00  0.00    +0.043 C 
ATOM      9  C   UNL     1       5.669  -5.856   6.060  0.00  0.00    +0.005 C 
ATOM     10  C   UNL     1       5.814  -4.384   5.664  0.00  0.00    +0.005 C 
ATOM     11  C   UNL     1       6.896  -4.238   4.592  0.00  0.00    +0.037 C 
ATOM     12  C   UNL     1       8.083  -4.056   1.632  0.00  0.00    +0.251 C 
ATOM     13  O   UNL     1       8.561  -3.230   2.388  0.00  0.00    -0.270 OA
ATOM     14  N   UNL     1       8.379  -4.059   0.317  0.00  0.00    -0.267 N 
ATOM     15  H   UNL     1       7.213  -6.963  -0.591  0.00  0.00    +0.149 HD
ENDROOT
BRANCH  14  16
ATOM     16  C   UNL     1       9.478  -3.209  -0.148  0.00  0.00    +0.079 C 
ATOM     17  C   UNL     1      10.775  -3.625   0.548  0.00  0.00    +0.022 C 
ATOM     18  C   UNL     1      11.922  -2.737   0.062  0.00  0.00    +0.002 C 
ATOM     19  C   UNL     1      11.611  -1.276   0.394  0.00  0.00    +0.000 C 
ATOM     20  C   UNL     1      10.314  -0.860  -0.303  0.00  0.00    +0.002 C 
ATOM     21  C   UNL     1       9.167  -1.748   0.183  0.00  0.00    +0.022 C 
ENDBRANCH  14  16
BRANCH   1  22
ATOM     22  S   UNL     1       6.228  -3.931  -1.267  0.00  0.00    -0.108 S 
BRANCH  22  23
ATOM     23  C   UNL     1       5.749  -4.792  -2.790  0.00  0.00    +0.112 C 
ATOM     24  C   UNL     1       5.188  -6.172  -2.441  0.00  0.00    +0.027 C 
BRANCH  23  31
ATOM     25  C   UNL     1      -0.194  -2.932  -6.648  0.00  0.00    +0.024 C 
ATOM     26  C   UNL     1       1.304  -2.647  -6.784  0.00  0.00    +0.076 C 
ATOM     27  C   UNL     1       1.828  -1.918  -5.567  0.00  0.00    -0.045 C 
ATOM     28  C   UNL     1       2.772  -2.527  -4.834  0.00  0.00    +0.071 C 
ATOM     29  C   UNL     1       3.227  -3.864  -5.273  0.00  0.00    +0.111 C 
ATOM     30  N   UNL     1       4.148  -4.509  -4.598  0.00  0.00    -0.226 NA
ATOM     31  C   UNL     1       4.697  -3.990  -3.512  0.00  0.00    +0.136 C 
ATOM     32  N   UNL     1       4.373  -2.814  -3.030  0.00  0.00    -0.160 NA
ATOM     33  C   UNL     1       3.452  -2.028  -3.596  0.00  0.00    +0.271 C 
ATOM     34  O   UNL     1       3.175  -0.940  -3.121  0.00  0.00    -0.268 OA
ATOM     35  S   UNL     1       2.277  -4.206  -6.735  0.00  0.00    -0.098 S 
ATOM     36  C   UNL     1       1.308  -0.555  -5.191  0.00  0.00    +0.041 C 
ENDBRANCH  23  31
ENDBRANCH  22  23
ENDBRANCH   1  22
TORSDOF 4
