REMARK  Name = ZINC37425534
REMARK  10 active torsions:
REMARK  status: ('A' for Active; 'I' for Inactive)
REMARK    1  A    between atoms: C_1  and  C_2
REMARK    2  A    between atoms: C_6  and  N_9
REMARK    3  A    between atoms: C_7  and  C_8
REMARK    4  A    between atoms: C_12  and  C_14
REMARK    5  A    between atoms: C_14  and  C_15
REMARK    6  A    between atoms: C_14  and  C_16
REMARK    7  A    between atoms: C_14  and  C_17
REMARK    8  A    between atoms: C_18  and  C_33
REMARK    9  A    between atoms: N_24  and  C_25
REMARK   10  A    between atoms: C_25  and  C_26
REMARK                            x       y       z     vdW  Elec       q    Type
REMARK                         _______ _______ _______ _____ _____    ______ ____
ROOT
ATOM      1  N   UNL     1      -2.848  -5.464   2.910  0.00  0.00    -0.217 N 
ATOM      2  C   UNL     1      -3.692  -5.336   3.960  0.00  0.00    +0.136 A 
ATOM      3  C   UNL     1      -2.955  -5.065   5.062  0.00  0.00    +0.034 A 
ATOM      4  C   UNL     1      -1.613  -5.029   4.682  0.00  0.00    +0.075 A 
ATOM      5  N   UNL     1      -1.544  -5.274   3.395  0.00  0.00    -0.169 NA
ATOM      6  C   UNL     1      -3.520  -4.842   6.442  0.00  0.00    +0.112 C 
ATOM      7  S   UNL     1      -4.067  -6.452   7.115  0.00  0.00    -0.138 S 
ATOM      8  C   UNL     1      -4.839  -7.227   5.655  0.00  0.00    +0.166 C 
ATOM      9  C   UNL     1      -5.660  -6.229   4.896  0.00  0.00    +0.231 C 
ATOM     10  O   UNL     1      -6.846  -6.122   5.127  0.00  0.00    -0.274 OA
ATOM     11  N   UNL     1      -5.090  -5.456   3.966  0.00  0.00    -0.246 N 
ENDROOT
BRANCH   1  17
ATOM     12  C   UNL     1      -3.430  -3.935  -1.728  0.00  0.00    +0.044 C 
ATOM     13  C   UNL     1      -3.499  -5.019  -0.684  0.00  0.00    -0.046 A 
ATOM     14  C   UNL     1      -3.918  -6.289  -1.033  0.00  0.00    +0.004 A 
ATOM     15  C   UNL     1      -3.984  -7.286  -0.078  0.00  0.00    +0.002 A 
ATOM     16  C   UNL     1      -3.630  -7.016   1.230  0.00  0.00    +0.028 A 
ATOM     17  C   UNL     1      -3.208  -5.742   1.584  0.00  0.00    +0.071 A 
ATOM     18  C   UNL     1      -3.138  -4.744   0.621  0.00  0.00    -0.022 A 
ATOM     19  C   UNL     1      -2.675  -3.361   1.000  0.00  0.00    +0.046 C 
ENDBRANCH   1  17
BRANCH   6  20
ATOM     20  C   UNL     1      -2.458  -4.251   7.333  0.00  0.00    -0.023 A 
ATOM     21  C   UNL     1      -1.551  -5.069   7.981  0.00  0.00    +0.012 A 
ATOM     22  C   UNL     1      -0.608  -4.506   8.775  0.00  0.00    +0.045 A 
ATOM     23  S   UNL     1      -0.989  -2.768   8.625  0.00  0.00    -0.105 S 
ATOM     24  C   UNL     1      -2.375  -2.910   7.508  0.00  0.00    +0.050 A 
ENDBRANCH   6  20
BRANCH   4  25
ATOM     25  C   UNL     1      -0.443  -4.763   5.594  0.00  0.00    +0.007 C 
ATOM     26  C   UNL     1      -0.195  -5.987   6.476  0.00  0.00    +0.017 C 
ATOM     27  C   UNL     1       0.804  -4.478   4.754  0.00  0.00    +0.017 C 
ATOM     28  C   UNL     1      -0.751  -3.552   6.477  0.00  0.00    +0.017 C 
ENDBRANCH   4  25
BRANCH  11  29
ATOM     29  C   UNL     1      -5.907  -4.750   2.975  0.00  0.00    +0.211 C 
BRANCH  29  30
ATOM     30  C   UNL     1      -7.087  -4.111   3.660  0.00  0.00    +0.233 C 
ATOM     31  O   UNL     1      -7.187  -4.161   4.868  0.00  0.00    -0.274 OA
ATOM     32  N   UNL     1      -8.031  -3.484   2.931  0.00  0.00    -0.300 N 
ATOM     33  C   UNL     1      -8.239  -3.639   1.484  0.00  0.00    +0.108 C 
ATOM     34  C   UNL     1      -9.408  -2.712   1.087  0.00  0.00    +0.020 C 
ATOM     35  C   UNL     1      -9.424  -1.664   2.231  0.00  0.00    +0.020 C 
ATOM     36  C   UNL     1      -9.031  -2.535   3.454  0.00  0.00    +0.108 C 
ENDBRANCH  29  30
ENDBRANCH  11  29
TORSDOF 5
