REMARK  Name = ZINC13028723
REMARK  9 active torsions:
REMARK  status: ('A' for Active; 'I' for Inactive)
REMARK    1  A    between atoms: C_1  and  C_2
REMARK    2  A    between atoms: C_2  and  C_4
REMARK    3  A    between atoms: C_8  and  N_10
REMARK    4  A    between atoms: N_10  and  C_11
REMARK    5  A    between atoms: C_11  and  C_13
REMARK    6  A    between atoms: C_11  and  C_20
REMARK    7  A    between atoms: N_22  and  C_23
REMARK    8  A    between atoms: C_29  and  C_31
REMARK    9  A    between atoms: C_31  and  N_32
REMARK                            x       y       z     vdW  Elec       q    Type
REMARK                         _______ _______ _______ _____ _____    ______ ____
ROOT
ATOM      1  N   UNL     1      -5.645   3.275  -1.695  0.00  0.00    -0.254 N 
ATOM      2  C   UNL     1      -4.369   3.420  -1.286  0.00  0.00    +0.242 C 
ATOM      3  O   UNL     1      -3.511   3.748  -2.078  0.00  0.00    -0.273 OA
ENDROOT
BRANCH   1   8
ATOM      4  C   UNL     1      -8.083   3.716   1.037  0.00  0.00    +0.019 A 
ATOM      5  C   UNL     1      -8.654   2.440   1.080  0.00  0.00    +0.011 A 
ATOM      6  C   UNL     1      -8.223   1.462   0.208  0.00  0.00    +0.002 A 
ATOM      7  C   UNL     1      -7.227   1.738  -0.711  0.00  0.00    +0.023 A 
ATOM      8  C   UNL     1      -6.652   3.002  -0.763  0.00  0.00    +0.038 A 
ATOM      9  C   UNL     1      -7.073   3.992   0.112  0.00  0.00    +0.035 A 
BRANCH   4  11
ATOM     10  C   UNL     1      -9.626   4.459   2.966  0.00  0.00    +0.091 C 
ATOM     11  C   UNL     1      -8.540   4.762   1.965  0.00  0.00    +0.160 C 
ATOM     12  O   UNL     1      -8.044   5.867   1.926  0.00  0.00    -0.292 OA
ENDBRANCH   4  11
ENDBRANCH   1   8
BRANCH   1  13
ATOM     13  C   UNL     1      -5.977   3.402  -3.116  0.00  0.00    +0.200 C 
BRANCH  13  14
ATOM     14  C   UNL     1      -5.358   2.261  -3.881  0.00  0.00    +0.017 A 
ATOM     15  C   UNL     1      -5.084   1.067  -3.240  0.00  0.00    +0.009 A 
ATOM     16  C   UNL     1      -4.522   0.018  -3.943  0.00  0.00    +0.001 A 
ATOM     17  C   UNL     1      -4.223   0.165  -5.285  0.00  0.00    +0.003 A 
ATOM     18  C   UNL     1      -4.491   1.359  -5.927  0.00  0.00    +0.039 A 
ATOM     19  C   UNL     1      -5.059   2.409  -5.225  0.00  0.00    +0.129 A 
ATOM     20  F   UNL     1      -5.321   3.577  -5.851  0.00  0.00    -0.205 F 
ENDBRANCH  13  14
BRANCH  13  21
ATOM     21  C   UNL     1      -7.474   3.369  -3.288  0.00  0.00    +0.239 C 
ATOM     22  O   UNL     1      -8.196   3.412  -2.314  0.00  0.00    -0.273 OA
ATOM     23  N   UNL     1      -8.009   3.292  -4.522  0.00  0.00    -0.311 N 
ATOM     24  H   UNL     1      -7.431   3.258  -5.300  0.00  0.00    +0.149 HD
BRANCH  23  25
ATOM     25  C   UNL     1      -9.464   3.260  -4.688  0.00  0.00    +0.073 C 
ATOM     26  C   UNL     1      -9.963   1.820  -4.542  0.00  0.00    +0.022 C 
ATOM     27  C   UNL     1     -11.482   1.787  -4.715  0.00  0.00    +0.002 C 
ATOM     28  C   UNL     1     -11.849   2.314  -6.104  0.00  0.00    +0.000 C 
ATOM     29  C   UNL     1     -11.351   3.753  -6.251  0.00  0.00    +0.002 C 
ATOM     30  C   UNL     1      -9.831   3.787  -6.077  0.00  0.00    +0.022 C 
ENDBRANCH  23  25
ENDBRANCH  13  21
ENDBRANCH   1  13
BRANCH   2  31
ATOM     31  C   UNL     1      -4.008   3.173   0.157  0.00  0.00    +0.242 C 
BRANCH  31  32
ATOM     32  N   UNL     1      -2.556   3.273   0.321  0.00  0.00    -0.235 N 
ATOM     33  C   UNL     1      -1.642   2.252   0.204  0.00  0.00    +0.090 A 
ATOM     34  C   UNL     1      -1.741   0.896  -0.085  0.00  0.00    +0.029 A 
ATOM     35  C   UNL     1      -0.613   0.126  -0.124  0.00  0.00    +0.002 A 
ATOM     36  C   UNL     1       0.635   0.688   0.113  0.00  0.00    +0.002 A 
ATOM     37  C   UNL     1       0.759   2.017   0.394  0.00  0.00    +0.032 A 
ATOM     38  C   UNL     1      -0.383   2.828   0.445  0.00  0.00    +0.113 A 
ATOM     39  N   UNL     1      -0.572   4.139   0.692  0.00  0.00    -0.129 NA
ATOM     40  N   UNL     1      -1.823   4.430   0.627  0.00  0.00    -0.064 NA
ENDBRANCH  31  32
ENDBRANCH   2  31
TORSDOF 8
