REMARK  Name = ZINC63280050
REMARK  9 active torsions:
REMARK  status: ('A' for Active; 'I' for Inactive)
REMARK    1  A    between atoms: C_1  and  C_2
REMARK    2  A    between atoms: C_2  and  C_4
REMARK    3  A    between atoms: C_2  and  N_14
REMARK    4  A    between atoms: C_4  and  C_5
REMARK    5  A    between atoms: C_15  and  C_17
REMARK    6  A    between atoms: C_17  and  C_18
REMARK    7  A    between atoms: C_22  and  N_25
REMARK    8  A    between atoms: N_25  and  S_26
REMARK    9  A    between atoms: S_26  and  C_29
REMARK                            x       y       z     vdW  Elec       q    Type
REMARK                         _______ _______ _______ _____ _____    ______ ____
ROOT
ATOM      1  N   UNL     1       0.688  -0.476  -1.203  0.00  0.00    -0.312 N 
ATOM      2  C   UNL     1       0.006  -0.608  -2.358  0.00  0.00    +0.215 C 
ATOM      3  O   UNL     1      -1.175  -0.336  -2.400  0.00  0.00    -0.276 OA
ATOM      4  H   UNL     1       1.632  -0.695  -1.170  0.00  0.00    +0.149 HD
ENDROOT
BRANCH   1   6
ATOM      5  C   UNL     1      -0.019   1.526   0.010  0.00  0.00    +0.028 C 
ATOM      6  C   UNL     1       0.002  -0.004   0.002  0.00  0.00    +0.074 C 
BRANCH   6   7
ATOM      7  C   UNL     1       0.742  -0.511   1.242  0.00  0.00    +0.055 C 
BRANCH   7   8
ATOM      8  C   UNL     1       0.657  -2.014   1.298  0.00  0.00    -0.040 C 
ATOM      9  C   UNL     1       1.572  -2.899   0.840  0.00  0.00    -0.001 A 
ATOM     10  C   UNL     1       2.871  -2.732   0.178  0.00  0.00    +0.010 A 
ATOM     11  C   UNL     1       3.576  -3.832  -0.172  0.00  0.00    +0.001 A 
ATOM     12  C   UNL     1       3.098  -5.125   0.083  0.00  0.00    +0.002 A 
ATOM     13  C   UNL     1       1.914  -5.358   0.687  0.00  0.00    +0.026 A 
ATOM     14  C   UNL     1       1.090  -4.274   1.098  0.00  0.00    +0.043 A 
ATOM     15  N   UNL     1      -0.079  -4.242   1.691  0.00  0.00    -0.380 N 
ATOM     16  C   UNL     1      -0.467  -2.840   1.883  0.00  0.00    +0.144 C 
ATOM     17  H   UNL     1      -0.598  -5.015   1.962  0.00  0.00    +0.160 HD
ENDBRANCH   7   8
ENDBRANCH   6   7
ENDBRANCH   1   6
BRANCH   2  18
ATOM     18  C   UNL     1       0.712  -1.094  -3.598  0.00  0.00    +0.115 C 
BRANCH  18  19
ATOM     19  C   UNL     1      -0.282  -1.153  -4.761  0.00  0.00    +0.074 C 
ATOM     20  C   UNL     1       0.408  -1.779  -6.009  0.00  0.00    +0.091 C 
ATOM     21  S   UNL     1      -0.726  -1.151  -7.323  0.00  0.00    -0.124 S 
ATOM     22  C   UNL     1      -1.474   0.247  -6.387  0.00  0.00    +0.202 C 
ATOM     23  N   UNL     1      -0.724   0.211  -5.105  0.00  0.00    -0.288 NA
ATOM     24  H   UNL     1      -1.269   0.614  -4.357  0.00  0.00    +0.125 HD
BRANCH  22  25
ATOM     25  N   UNL     1      -1.256   1.516  -7.086  0.00  0.00    -0.168 NA
ATOM     26  H   UNL     1      -0.453   2.032  -6.915  0.00  0.00    +0.150 HD
BRANCH  25  27
ATOM     27  S   UNL     1      -2.381   2.070  -8.167  0.00  0.00    +0.029 S 
ATOM     28  O   UNL     1      -1.841   3.288  -8.661  0.00  0.00    -0.158 OA
ATOM     29  O   UNL     1      -2.614   0.974  -9.041  0.00  0.00    -0.158 OA
ATOM     30  C   UNL     1      -3.861   2.400  -7.172  0.00  0.00    +0.214 C 
ENDBRANCH  25  27
ENDBRANCH  22  25
ENDBRANCH  18  19
ENDBRANCH   2  18
TORSDOF 7
