REMARK  Name = ZINC52538588
REMARK  7 active torsions:
REMARK  status: ('A' for Active; 'I' for Inactive)
REMARK    1  A    between atoms: C_1  and  O_2
REMARK    2  A    between atoms: O_2  and  C_3
REMARK    3  A    between atoms: C_8  and  C_9
REMARK    4  A    between atoms: C_11  and  C_17
REMARK    5  A    between atoms: C_23  and  C_25
REMARK    6  A    between atoms: C_25  and  O_27
REMARK    7  A    between atoms: O_27  and  C_28
REMARK                            x       y       z     vdW  Elec       q    Type
REMARK                         _______ _______ _______ _____ _____    ______ ____
ROOT
ATOM      1  C   UNL     1      -0.015  -2.833  -0.004  0.00  0.00    +0.075 C 
ATOM      2  C   UNL     1      -0.042  -4.305   0.071  0.00  0.00    +0.055 C 
ATOM      3  C   UNL     1       1.196  -4.982   0.624  0.00  0.00    +0.138 C 
ATOM      4  N   UNL     1       2.367  -4.253   0.124  0.00  0.00    -0.314 N 
ATOM      5  C   UNL     1       2.299  -2.943  -0.154  0.00  0.00    +0.155 C 
ATOM      6  S   UNL     1       3.745  -2.129  -0.575  0.00  0.00    -0.017 S 
ATOM      7  N   UNL     1       1.166  -2.241  -0.127  0.00  0.00    -0.192 NA
ATOM      8  C   UNL     1      -1.121  -5.017  -0.334  0.00  0.00    +0.269 C 
ATOM      9  O   UNL     1      -2.160  -4.390  -0.935  0.00  0.00    -0.280 OA
ATOM     10  H   UNL     1       3.204  -4.726  -0.007  0.00  0.00    +0.149 HD
ENDROOT
BRANCH   1  16
ATOM     11  C   UNL     1      -2.050  -2.052   1.210  0.00  0.00    +0.129 A 
ATOM     12  C   UNL     1      -3.216  -1.302   1.252  0.00  0.00    +0.046 A 
ATOM     13  C   UNL     1      -3.599  -0.556   0.155  0.00  0.00    +0.004 A 
ATOM     14  C   UNL     1      -2.825  -0.550  -0.995  0.00  0.00    +0.001 A 
ATOM     15  C   UNL     1      -1.663  -1.289  -1.054  0.00  0.00    +0.013 A 
ATOM     16  C   UNL     1      -1.260  -2.044   0.051  0.00  0.00    +0.040 A 
BRANCH  11  18
ATOM     17  C   UNL     1      -2.526  -2.744   3.432  0.00  0.00    +0.277 C 
ATOM     18  O   UNL     1      -1.672  -2.784   2.288  0.00  0.00    -0.494 OA
ENDBRANCH  11  18
ENDBRANCH   1  16
BRANCH   3  19
ATOM     19  C   UNL     1       1.171  -4.939   2.130  0.00  0.00    -0.023 A 
ATOM     20  C   UNL     1       1.546  -3.787   2.795  0.00  0.00    +0.006 A 
ATOM     21  C   UNL     1       1.523  -3.748   4.177  0.00  0.00    +0.000 A 
ATOM     22  C   UNL     1       1.126  -4.861   4.894  0.00  0.00    +0.000 A 
ATOM     23  C   UNL     1       0.751  -6.013   4.229  0.00  0.00    +0.000 A 
ATOM     24  C   UNL     1       0.770  -6.051   2.847  0.00  0.00    +0.006 A 
ENDBRANCH   3  19
BRANCH   8  25
ATOM     25  C   UNL     1      -1.165  -6.479  -0.120  0.00  0.00    +0.379 C 
ATOM     26  O   UNL     1      -0.283  -7.027   0.510  0.00  0.00    -0.241 OA
BRANCH  25  27
ATOM     27  O   UNL     1      -2.183  -7.204  -0.623  0.00  0.00    -0.462 OA
ATOM     28  C   UNL     1      -2.161  -8.612  -0.378  0.00  0.00    +0.280 C 
ENDBRANCH  25  27
ENDBRANCH   8  25
TORSDOF 5
