REMARK  Name = ZINC41097589
REMARK  3 active torsions:
REMARK  status: ('A' for Active; 'I' for Inactive)
REMARK    1  A    between atoms: C_4  and  N_22
REMARK    2  A    between atoms: C_5  and  C_7
REMARK    3  A    between atoms: C_7  and  N_8
REMARK                            x       y       z     vdW  Elec       q    Type
REMARK                         _______ _______ _______ _____ _____    ______ ____
ROOT
ATOM      1  N   UNL     1       1.407  -2.367   1.576  0.00  0.00    -0.220 N 
ATOM      2  C   UNL     1       2.574  -2.398   2.258  0.00  0.00    +0.247 C 
ATOM      3  O   UNL     1       3.616  -1.854   1.985  0.00  0.00    -0.273 OA
ATOM      4  C   UNL     1       2.293  -3.316   3.435  0.00  0.00    +0.113 C 
ATOM      5  C   UNL     1       2.459  -4.762   2.971  0.00  0.00    +0.035 C 
ATOM      6  C   UNL     1       2.590  -5.723   4.152  0.00  0.00    +0.003 C 
ATOM      7  C   UNL     1       1.227  -6.127   4.742  0.00  0.00    +0.000 C 
ATOM      8  C   UNL     1       0.701  -4.957   5.594  0.00  0.00    +0.000 C 
ATOM      9  C   UNL     1       1.844  -4.368   6.422  0.00  0.00    +0.000 C 
ATOM     10  C   UNL     1       2.235  -2.981   5.924  0.00  0.00    +0.003 C 
ATOM     11  C   UNL     1       3.107  -3.007   4.670  0.00  0.00    +0.035 C 
ATOM     12  N   UNL     1       0.869  -2.974   3.636  0.00  0.00    -0.285 N 
ATOM     13  C   UNL     1       0.399  -2.673   2.402  0.00  0.00    +0.310 C 
ATOM     14  O   UNL     1      -0.770  -2.680   2.095  0.00  0.00    -0.252 OA
ATOM     15  H   UNL     1       0.374  -2.856   4.446  0.00  0.00    +0.151 HD
ENDROOT
BRANCH   1  16
ATOM     16  C   UNL     1       1.261  -2.014   0.167  0.00  0.00    +0.155 C 
BRANCH  16  21
ATOM     17  C   UNL     1       0.796   1.625   1.059  0.00  0.00    +0.000 A 
ATOM     18  C   UNL     1       0.547   2.183  -0.181  0.00  0.00    +0.002 A 
ATOM     19  C   UNL     1       0.529   1.383  -1.308  0.00  0.00    +0.033 A 
ATOM     20  C   UNL     1       0.760   0.025  -1.195  0.00  0.00    +0.131 A 
ATOM     21  C   UNL     1       1.010  -0.533   0.044  0.00  0.00    +0.001 A 
ATOM     22  C   UNL     1       1.026   0.267   1.172  0.00  0.00    +0.007 A 
BRANCH  20  23
ATOM     23  N   UNL     1       0.740  -0.832  -2.402  0.00  0.00    +0.057 N 
ATOM     24  O   UNL     1       0.427  -0.363  -3.471  0.00  0.00    -0.126 OA
ATOM     25  O   UNL     1       1.036  -2.001  -2.318  0.00  0.00    -0.126 OA
ENDBRANCH  20  23
ENDBRANCH  16  21
ENDBRANCH   1  16
TORSDOF 3
