REMARK  Name = ZINC16482552
REMARK  7 active torsions:
REMARK  status: ('A' for Active; 'I' for Inactive)
REMARK    1  A    between atoms: C_1  and  C_2
REMARK    2  A    between atoms: C_2  and  O_3
REMARK    3  A    between atoms: O_3  and  C_4
REMARK    4  A    between atoms: C_4  and  C_6
REMARK    5  A    between atoms: C_12  and  C_13
REMARK    6  A    between atoms: C_12  and  N_61
REMARK    7  A    between atoms: N_18  and  C_19
REMARK                            x       y       z     vdW  Elec       q    Type
REMARK                         _______ _______ _______ _____ _____    ______ ____
ROOT
ATOM      1  C   UNL     1       3.321   3.638  -1.550  0.00  0.00    +0.204 C 
ATOM      2  O   UNL     1       2.224   4.149  -1.616  0.00  0.00    -0.277 OA
ATOM      3  N   UNL     1       4.427   4.397  -1.689  0.00  0.00    -0.242 N 
ATOM      4  C   UNL     1       4.312   5.723  -1.900  0.00  0.00    +0.306 C 
ATOM      5  O   UNL     1       3.211   6.235  -1.966  0.00  0.00    -0.252 OA
ATOM      6  N   UNL     1       5.417   6.482  -2.039  0.00  0.00    -0.294 N 
ATOM      7  H   UNL     1       5.305   3.988  -1.636  0.00  0.00    +0.159 HD
ATOM      8  H   UNL     1       6.295   6.073  -1.986  0.00  0.00    +0.151 HD
ENDROOT
BRANCH   6   9
ATOM      9  C   UNL     1       5.292   7.923  -2.268  0.00  0.00    +0.037 C 
ATOM     10  C   UNL     1       4.549   8.564  -1.095  0.00  0.00    +0.029 C 
ATOM     11  C   UNL     1       4.418  10.069  -1.335  0.00  0.00    -0.008 C 
ATOM     12  C   UNL     1       5.812  10.689  -1.456  0.00  0.00    +0.007 C 
ATOM     13  C   UNL     1       6.556  10.048  -2.629  0.00  0.00    -0.008 C 
ATOM     14  C   UNL     1       6.686   8.543  -2.389  0.00  0.00    +0.029 C 
ATOM     15  C   UNL     1       5.775  10.293  -3.922  0.00  0.00    +0.007 C 
ATOM     16  C   UNL     1       4.381   9.673  -3.802  0.00  0.00    -0.008 C 
ATOM     17  C   UNL     1       3.638  10.314  -2.628  0.00  0.00    +0.007 C 
ATOM     18  C   UNL     1       4.512   8.168  -3.562  0.00  0.00    +0.029 C 
ENDBRANCH   6   9
BRANCH   1  19
ATOM     19  C   UNL     1       3.450   2.156  -1.314  0.00  0.00    +0.019 C 
BRANCH  19  25
ATOM     20  C   UNL     1       0.771  -0.489  -1.230  0.00  0.00    +0.081 C 
ATOM     21  C   UNL     1       0.002  -0.004   0.002  0.00  0.00    +0.011 C 
ATOM     22  C   UNL     1      -0.019   1.527   0.010  0.00  0.00    -0.018 C 
ATOM     23  C   UNL     1       1.419   2.052  -0.001  0.00  0.00    -0.078 C 
ATOM     24  C   UNL     1       2.186   0.094  -1.205  0.00  0.00    -0.064 C 
ATOM     25  N   UNL     1       2.096   1.569  -1.223  0.00  0.00    +0.386 N 
ATOM     26  H   UNL     1       1.551   1.860  -2.042  0.00  0.00    -0.081 HD
BRANCH  20  27
ATOM     27  C   UNL     1       0.847  -1.994  -1.215  0.00  0.00    +0.308 C 
ATOM     28  O   UNL     1       1.922  -2.545  -1.190  0.00  0.00    -0.251 OA
BRANCH  27  29
ATOM     29  O   UNL     1      -0.280  -2.724  -1.228  0.00  0.00    -0.465 OA
BRANCH  29  31
ATOM     30  C   UNL     1      -1.513  -4.823  -1.231  0.00  0.00    +0.048 C 
ATOM     31  C   UNL     1      -0.131  -4.168  -1.212  0.00  0.00    +0.229 C 
ENDBRANCH  29  31
ENDBRANCH  27  29
ENDBRANCH  20  27
ENDBRANCH  19  25
ENDBRANCH   1  19
TORSDOF 6
