REMARK  Name = ZINC13738996
REMARK  7 active torsions:
REMARK  status: ('A' for Active; 'I' for Inactive)
REMARK    1  A    between atoms: C_1  and  C_2
REMARK    2  A    between atoms: C_2  and  C_26
REMARK    3  A    between atoms: N_3  and  N_4
REMARK    4  A    between atoms: N_9  and  C_10
REMARK    5  A    between atoms: C_10  and  C_11
REMARK    6  A    between atoms: C_11  and  C_12
REMARK    7  A    between atoms: N_24  and  C_25
REMARK                            x       y       z     vdW  Elec       q    Type
REMARK                         _______ _______ _______ _____ _____    ______ ____
ROOT
ATOM      1  N   UNL     1       6.928   0.244  -1.522  0.00  0.00    -0.206 N 
ATOM      2  C   UNL     1       6.661  -1.107  -1.520  0.00  0.00    +0.218 A 
ATOM      3  N   UNL     1       7.569  -2.062  -1.530  0.00  0.00    -0.195 NA
ATOM      4  C   UNL     1       6.973  -3.255  -1.530  0.00  0.00    +0.170 A 
ATOM      5  C   UNL     1       5.599  -3.039  -1.514  0.00  0.00    +0.153 A 
ATOM      6  N   UNL     1       5.420  -1.663  -1.505  0.00  0.00    -0.305 N 
ATOM      7  C   UNL     1       4.730  -4.145  -1.511  0.00  0.00    +0.280 A 
ATOM      8  O   UNL     1       3.522  -3.979  -1.498  0.00  0.00    -0.265 OA
ATOM      9  N   UNL     1       5.247  -5.391  -1.524  0.00  0.00    -0.273 N 
ATOM     10  H   UNL     1       4.631  -6.179  -1.521  0.00  0.00    +0.173 HD
ATOM     11  C   UNL     1       6.576  -5.589  -1.540  0.00  0.00    +0.331 A 
ATOM     12  O   UNL     1       7.006  -6.726  -1.551  0.00  0.00    -0.246 OA
ATOM     13  N   UNL     1       7.443  -4.559  -1.543  0.00  0.00    -0.280 N 
ATOM     14  C   UNL     1       8.885  -4.817  -1.560  0.00  0.00    +0.155 C 
ATOM     15  H   UNL     1       6.198   0.882  -1.511  0.00  0.00    +0.177 HD
ENDROOT
BRANCH   1  18
ATOM     16  C   UNL     1       7.371   2.961  -1.523  0.00  0.00    +0.068 C 
ATOM     17  C   UNL     1       8.505   1.969  -1.540  0.00  0.00    +0.063 C 
ATOM     18  N   UNL     1       8.254   0.696  -1.538  0.00  0.00    -0.184 NA
BRANCH  17  19
ATOM     19  C   UNL     1       9.901   2.445  -1.557  0.00  0.00    -0.002 A 
ATOM     20  C   UNL     1      10.175   3.815  -1.564  0.00  0.00    +0.011 A 
ATOM     21  C   UNL     1      11.482   4.254  -1.575  0.00  0.00    +0.016 A 
ATOM     22  C   UNL     1      12.522   3.339  -1.590  0.00  0.00    +0.018 A 
ATOM     23  C   UNL     1      12.257   1.980  -1.589  0.00  0.00    +0.016 A 
ATOM     24  C   UNL     1      10.954   1.528  -1.572  0.00  0.00    +0.011 A 
ATOM     25 BR   UNL     1      14.312   3.950  -1.613  0.00  0.00    -0.050 Br
ENDBRANCH  17  19
ENDBRANCH   1  18
BRANCH   6  26
ATOM     26  C   UNL     1       4.142  -0.948  -1.488  0.00  0.00    +0.130 C 
BRANCH  26  27
ATOM     27  C   UNL     1       3.711  -0.707  -0.039  0.00  0.00    +0.057 C 
BRANCH  27  28
ATOM     28  C   UNL     1       2.396   0.029  -0.022  0.00  0.00    -0.046 A 
ATOM     29  C   UNL     1       1.208  -0.679  -0.014  0.00  0.00    +0.004 A 
ATOM     30  C   UNL     1       0.002  -0.004   0.002  0.00  0.00    +0.000 A 
ATOM     31  C   UNL     1      -0.017   1.378   0.010  0.00  0.00    +0.000 A 
ATOM     32  C   UNL     1       1.171   2.086   0.002  0.00  0.00    +0.000 A 
ATOM     33  C   UNL     1       2.377   1.411  -0.014  0.00  0.00    +0.004 A 
ENDBRANCH  27  28
ENDBRANCH  26  27
ENDBRANCH   6  26
TORSDOF 5
