REMARK  Name = ZINC39335450
REMARK  9 active torsions:
REMARK  status: ('A' for Active; 'I' for Inactive)
REMARK    1  A    between atoms: C_1  and  C_2
REMARK    2  A    between atoms: C_3  and  C_26
REMARK    3  A    between atoms: C_4  and  N_25
REMARK    4  A    between atoms: C_6  and  S_10
REMARK    5  A    between atoms: C_7  and  C_8
REMARK    6  A    between atoms: S_10  and  C_11
REMARK    7  A    between atoms: C_11  and  C_12
REMARK    8  A    between atoms: N_14  and  C_15
REMARK    9  A    between atoms: C_20  and  C_21
REMARK                            x       y       z     vdW  Elec       q    Type
REMARK                         _______ _______ _______ _____ _____    ______ ____
ROOT
ATOM      1  S   UNL     1       0.074  -3.059   2.646  0.00  0.00    -0.095 S 
ENDROOT
BRANCH   1   7
ATOM      2  C   UNL     1       0.034   1.503   0.008  0.00  0.00    +0.046 C 
ATOM      3  C   UNL     1       0.049  -0.004   0.000  0.00  0.00    -0.010 A 
ATOM      4  C   UNL     1       0.060  -0.714  -1.203  0.00  0.00    +0.095 A 
ATOM      5  C   UNL     1       0.074  -2.122  -1.169  0.00  0.00    +0.135 A 
ATOM      6  N   UNL     1       0.078  -2.772  -0.016  0.00  0.00    -0.224 NA
ATOM      7  C   UNL     1       0.069  -2.135   1.145  0.00  0.00    +0.117 A 
ATOM      8  C   UNL     1       0.059  -0.726   1.196  0.00  0.00    +0.088 A 
BRANCH   5   9
ATOM      9  N   UNL     1       0.084  -2.833  -2.352  0.00  0.00    -0.342 N 
ATOM     10  H   UNL     1       0.081  -2.363  -3.200  0.00  0.00    +0.144 HD
ATOM     11  H   UNL     1       0.095  -3.803  -2.334  0.00  0.00    +0.144 HD
ENDBRANCH   5   9
BRANCH   8  12
ATOM     12  C   UNL     1       0.054  -0.045   2.455  0.00  0.00    +0.102 C 
ATOM     13  N   UNL     1       0.051   0.495   3.454  0.00  0.00    -0.191 NA
ENDBRANCH   8  12
BRANCH   4  14
ATOM     14  C   UNL     1       0.055  -0.019  -2.455  0.00  0.00    +0.103 C 
ATOM     15  N   UNL     1       0.052   0.532  -3.449  0.00  0.00    -0.191 NA
ENDBRANCH   4  14
ENDBRANCH   1   7
BRANCH   1  16
ATOM     16  C   UNL     1       0.094  -4.788   2.096  0.00  0.00    +0.172 C 
BRANCH  16  17
ATOM     17  C   UNL     1       0.101  -5.697   3.298  0.00  0.00    +0.227 C 
ATOM     18  O   UNL     1       0.093  -5.226   4.415  0.00  0.00    -0.275 OA
ATOM     19  N   UNL     1       0.115  -7.035   3.131  0.00  0.00    -0.284 N 
ATOM     20  H   UNL     1       0.040  -7.413   2.241  0.00  0.00    +0.155 HD
BRANCH  19  21
ATOM     21  C   UNL     1       0.238  -7.877   4.241  0.00  0.00    +0.045 A 
ATOM     22  C   UNL     1       0.843  -7.414   5.402  0.00  0.00    +0.024 A 
ATOM     23  C   UNL     1       0.962  -8.248   6.497  0.00  0.00    +0.002 A 
ATOM     24  C   UNL     1       0.481  -9.543   6.437  0.00  0.00    +0.001 A 
ATOM     25  C   UNL     1      -0.122 -10.007   5.282  0.00  0.00    +0.014 A 
ATOM     26  C   UNL     1      -0.251  -9.176   4.187  0.00  0.00    +0.076 A 
BRANCH  26  27
ATOM     27  C   UNL     1      -0.914  -9.680   2.931  0.00  0.00    +0.419 C 
ATOM     28  F   UNL     1      -1.319 -11.006   3.118  0.00  0.00    -0.166 F 
ATOM     29  F   UNL     1      -2.030  -8.887   2.643  0.00  0.00    -0.166 F 
ATOM     30  F   UNL     1      -0.008  -9.615   1.867  0.00  0.00    -0.166 F 
ENDBRANCH  26  27
ENDBRANCH  19  21
ENDBRANCH  16  17
ENDBRANCH   1  16
TORSDOF 8
