REMARK  Name = ZINC44791026
REMARK  14 active torsions:
REMARK  status: ('A' for Active; 'I' for Inactive)
REMARK    1  A    between atoms: C_1  and  C_2
REMARK    2  A    between atoms: C_2  and  C_28
REMARK    3  A    between atoms: N_3  and  N_4
REMARK    4  A    between atoms: C_9  and  C_12
REMARK    5  A    between atoms: C_12  and  C_13
REMARK    6  A    between atoms: N_15  and  C_16
REMARK    7  A    between atoms: C_16  and  C_17
REMARK    8  A    between atoms: C_17  and  C_18
REMARK    9  A    between atoms: C_21  and  O_26
REMARK   10  A    between atoms: C_22  and  O_24
REMARK   11  A    between atoms: O_24  and  C_25
REMARK   12  A    between atoms: O_26  and  C_27
REMARK   13  A    between atoms: C_28  and  C_29
REMARK   14  A    between atoms: C_29  and  C_30
REMARK                            x       y       z     vdW  Elec       q    Type
REMARK                         _______ _______ _______ _____ _____    ______ ____
ROOT
ATOM      1  N   UNL     1       0.041  -2.058   1.111  0.00  0.00    -0.127 NA
ATOM      2  C   UNL     1       0.060  -2.721   2.246  0.00  0.00    +0.183 C 
ATOM      3  N   UNL     1       0.087  -4.087   2.434  0.00  0.00    -0.263 N 
ATOM      4  C   UNL     1       0.105  -4.638   3.635  0.00  0.00    +0.233 C 
ATOM      5  O   UNL     1       0.129  -5.840   3.792  0.00  0.00    -0.274 OA
ATOM      6  C   UNL     1       0.096  -3.670   4.808  0.00  0.00    +0.149 C 
ATOM      7  S   UNL     1       0.067  -2.065   3.908  0.00  0.00    -0.075 S 
ATOM      8  H   UNL     1       0.092  -4.665   1.655  0.00  0.00    +0.157 HD
ENDROOT
BRANCH   1  11
ATOM      9  C   UNL     1      -0.018   1.503   0.010  0.00  0.00    +0.062 C 
ATOM     10  C   UNL     1       0.002  -0.004   0.002  0.00  0.00    +0.038 C 
ATOM     11  N   UNL     1       0.021  -0.657   1.119  0.00  0.00    -0.157 NA
BRANCH  10  12
ATOM     12  C   UNL     1      -0.000  -0.750  -1.307  0.00  0.00    +0.057 C 
BRANCH  12  13
ATOM     13  C   UNL     1      -1.318  -0.491  -2.040  0.00  0.00    +0.041 C 
BRANCH  13  14
ATOM     14  C   UNL     1      -1.320  -1.238  -3.349  0.00  0.00    -0.043 A 
ATOM     15  C   UNL     1      -0.828  -0.631  -4.489  0.00  0.00    +0.007 A 
ATOM     16  C   UNL     1      -0.827  -1.312  -5.693  0.00  0.00    +0.050 A 
ATOM     17  C   UNL     1      -1.321  -2.605  -5.758  0.00  0.00    +0.166 A 
ATOM     18  C   UNL     1      -1.818  -3.216  -4.609  0.00  0.00    +0.166 A 
ATOM     19  C   UNL     1      -1.810  -2.529  -3.405  0.00  0.00    +0.053 A 
ATOM     20  O   UNL     1      -2.241  -4.473  -4.931  0.00  0.00    -0.453 OA
ATOM     21  C   UNL     1      -2.376  -4.477  -6.365  0.00  0.00    +0.466 C 
ATOM     22  O   UNL     1      -1.433  -3.479  -6.800  0.00  0.00    -0.453 OA
ENDBRANCH  13  14
ENDBRANCH  12  13
ENDBRANCH  10  12
ENDBRANCH   1  11
BRANCH   6  23
ATOM     23  C   UNL     1      -1.156  -3.853   5.668  0.00  0.00    +0.119 C 
BRANCH  23  24
ATOM     24  C   UNL     1      -1.066  -2.964   6.881  0.00  0.00    +0.215 C 
ATOM     25  O   UNL     1      -0.096  -2.254   7.042  0.00  0.00    -0.276 OA
ATOM     26  N   UNL     1      -2.064  -2.957   7.787  0.00  0.00    -0.315 N 
ATOM     27  H   UNL     1      -2.840  -3.525   7.658  0.00  0.00    +0.149 HD
BRANCH  26  28
ATOM     28  C   UNL     1      -1.977  -2.093   8.967  0.00  0.00    +0.109 C 
BRANCH  28  29
ATOM     29  C   UNL     1      -3.229  -2.276   9.827  0.00  0.00    +0.054 C 
BRANCH  29  30
ATOM     30  C   UNL     1      -3.139  -1.386  11.040  0.00  0.00    -0.042 A 
ATOM     31  C   UNL     1      -2.549  -1.858  12.198  0.00  0.00    +0.007 A 
ATOM     32  C   UNL     1      -2.464  -1.046  13.314  0.00  0.00    +0.049 A 
ATOM     33  C   UNL     1      -2.971   0.243  13.273  0.00  0.00    +0.161 A 
ATOM     34  C   UNL     1      -3.564   0.718  12.107  0.00  0.00    +0.162 A 
ATOM     35  C   UNL     1      -3.641  -0.099  10.991  0.00  0.00    +0.053 A 
BRANCH  34  36
ATOM     36  O   UNL     1      -4.062   1.982  12.062  0.00  0.00    -0.491 OA
ATOM     37  C   UNL     1      -4.657   2.402  10.832  0.00  0.00    +0.277 C 
ENDBRANCH  34  36
BRANCH  33  38
ATOM     38  O   UNL     1      -2.888   1.043  14.370  0.00  0.00    -0.491 OA
ATOM     39  C   UNL     1      -2.267   0.489  15.531  0.00  0.00    +0.277 C 
ENDBRANCH  33  38
ENDBRANCH  29  30
ENDBRANCH  28  29
ENDBRANCH  26  28
ENDBRANCH  23  24
ENDBRANCH   6  23
TORSDOF 11
