REMARK  Name = ZINC20693382
REMARK  8 active torsions:
REMARK  status: ('A' for Active; 'I' for Inactive)
REMARK    1  A    between atoms: C_1  and  C_2
REMARK    2  A    between atoms: C_2  and  C_3
REMARK    3  A    between atoms: C_2  and  O_4
REMARK    4  A    between atoms: O_4  and  C_5
REMARK    5  A    between atoms: C_18  and  C_21
REMARK    6  A    between atoms: C_24  and  O_29
REMARK    7  A    between atoms: C_25  and  O_27
REMARK    8  A    between atoms: O_27  and  C_28
REMARK                            x       y       z     vdW  Elec       q    Type
REMARK                         _______ _______ _______ _____ _____    ______ ____
ROOT
ATOM      1  C   UNL     1      -1.772   2.352   0.256  0.00  0.00    +0.121 A 
ATOM      2  C   UNL     1      -0.677   1.509   0.135  0.00  0.00    +0.047 A 
ATOM      3  C   UNL     1       0.602   2.021   0.199  0.00  0.00    +0.027 A 
ATOM      4  C   UNL     1       0.805   3.382   0.390  0.00  0.00    +0.032 A 
ATOM      5  C   UNL     1      -0.302   4.226   0.531  0.00  0.00    -0.016 A 
ATOM      6  C   UNL     1      -1.578   3.710   0.459  0.00  0.00    +0.051 A 
ATOM      7  C   UNL     1      -0.040   5.661   0.778  0.00  0.00    +0.049 C 
ATOM      8  C   UNL     1      -1.021   6.713   0.407  0.00  0.00    -0.023 C 
ATOM      9  C   UNL     1      -0.357   7.819   0.094  0.00  0.00    -0.030 C 
ATOM     10  C   UNL     1       1.149   7.575   0.202  0.00  0.00    +0.033 C 
ATOM     11  C   UNL     1       1.233   6.059  -0.028  0.00  0.00    +0.029 C 
ATOM     12  C   UNL     1       2.381   5.322   0.637  0.00  0.00    +0.105 C 
ATOM     13  N   UNL     1       2.115   3.884   0.413  0.00  0.00    -0.336 N 
ATOM     14  H   UNL     1       2.952   3.186   0.262  0.00  0.00    +0.147 HD
ENDROOT
BRANCH  12  15
ATOM     15  C   UNL     1       2.409   5.622   2.113  0.00  0.00    -0.023 A 
ATOM     16  C   UNL     1       1.764   4.781   3.001  0.00  0.00    +0.009 A 
ATOM     17  C   UNL     1       1.786   5.052   4.356  0.00  0.00    +0.049 A 
ATOM     18  C   UNL     1       2.455   6.170   4.828  0.00  0.00    +0.158 A 
ATOM     19  C   UNL     1       3.104   7.017   3.934  0.00  0.00    +0.162 A 
ATOM     20  C   UNL     1       3.083   6.736   2.578  0.00  0.00    +0.054 A 
BRANCH  19  21
ATOM     21  O   UNL     1       3.762   8.116   4.393  0.00  0.00    -0.491 OA
ATOM     22  C   UNL     1       4.406   8.940   3.419  0.00  0.00    +0.277 C 
ENDBRANCH  19  21
BRANCH  18  23
ATOM     23  O   UNL     1       2.477   6.439   6.160  0.00  0.00    -0.503 OA
ATOM     24  H   UNL     1       3.009   7.327   6.534  0.00  0.00    +0.292 HD
ENDBRANCH  18  23
ENDBRANCH  12  15
BRANCH   1  25
ATOM     25  O   UNL     1      -3.033   1.847   0.180  0.00  0.00    -0.489 OA
BRANCH  25  27
ATOM     26  C   UNL     1      -4.478  -0.007   0.739  0.00  0.00    +0.051 C 
ATOM     27  C   UNL     1      -3.159   0.426   0.096  0.00  0.00    +0.167 C 
ATOM     28  C   UNL     1      -3.142  -0.002  -1.373  0.00  0.00    +0.051 C 
ENDBRANCH  25  27
ENDBRANCH   1  25
TORSDOF 5
