REMARK  Name = ZINC39992206
REMARK  7 active torsions:
REMARK  status: ('A' for Active; 'I' for Inactive)
REMARK    1  A    between atoms: C_2  and  C_3
REMARK    2  A    between atoms: C_3  and  N_4
REMARK    3  A    between atoms: C_5  and  C_7
REMARK    4  A    between atoms: C_11  and  N_12
REMARK    5  A    between atoms: C_13  and  C_15
REMARK    6  A    between atoms: C_15  and  C_24
REMARK    7  A    between atoms: C_16  and  C_17
REMARK                            x       y       z     vdW  Elec       q    Type
REMARK                         _______ _______ _______ _____ _____    ______ ____
ROOT
ATOM      1  C   UNL     1      -1.892  -3.173  -2.610  0.00  0.00    +0.069 A 
ATOM      2  C   UNL     1      -1.121  -4.404  -2.570  0.00  0.00    -0.023 A 
ATOM      3  C   UNL     1      -1.042  -5.044  -3.757  0.00  0.00    -0.004 A 
ATOM      4  S   UNL     1      -1.965  -4.032  -4.876  0.00  0.00    -0.077 S 
ATOM      5  C   UNL     1      -2.447  -2.812  -3.828  0.00  0.00    +0.085 A 
ATOM      6  C   UNL     1      -0.323  -6.327  -4.040  0.00  0.00    +0.043 C 
ATOM      7  C   UNL     1       0.628  -6.616  -2.869  0.00  0.00    +0.005 C 
ATOM      8  C   UNL     1      -0.138  -6.441  -1.554  0.00  0.00    +0.005 C 
ATOM      9  C   UNL     1      -0.447  -4.960  -1.325  0.00  0.00    +0.037 C 
ENDROOT
BRANCH   1  11
ATOM     10  N   UNL     1      -1.201  -1.372  -1.121  0.00  0.00    -0.308 N 
ATOM     11  C   UNL     1      -2.080  -2.351  -1.411  0.00  0.00    +0.247 C 
ATOM     12  O   UNL     1      -3.030  -2.553  -0.677  0.00  0.00    -0.270 OA
ATOM     13  H   UNL     1      -0.443  -1.211  -1.705  0.00  0.00    +0.149 HD
BRANCH  10  14
ATOM     14  C   UNL     1      -1.389  -0.550   0.078  0.00  0.00    +0.131 C 
BRANCH  14  16
ATOM     15  C   UNL     1      -0.561   1.739   0.269  0.00  0.00    +0.005 C 
ATOM     16  C   UNL     1      -0.278   0.464   0.171  0.00  0.00    -0.016 C 
ENDBRANCH  14  16
ENDBRANCH  10  14
ENDBRANCH   1  11
BRANCH   5  17
ATOM     17  N   UNL     1      -3.219  -1.698  -4.115  0.00  0.00    -0.275 N 
ATOM     18  C   UNL     1      -3.679  -1.502  -5.367  0.00  0.00    +0.259 C 
ATOM     19  O   UNL     1      -3.417  -2.303  -6.244  0.00  0.00    -0.269 OA
ATOM     20  H   UNL     1      -3.428  -1.059  -3.416  0.00  0.00    +0.156 HD
BRANCH  18  21
ATOM     21  C   UNL     1      -4.500  -0.318  -5.672  0.00  0.00    +0.114 C 
ATOM     22  C   UNL     1      -4.966  -0.120  -6.940  0.00  0.00    +0.032 C 
BRANCH  22  23
ATOM     23  C   UNL     1      -5.640   1.137  -7.286  0.00  0.00    -0.022 A 
ATOM     24  C   UNL     1      -5.223   2.342  -6.705  0.00  0.00    +0.008 A 
ATOM     25  C   UNL     1      -5.861   3.519  -7.035  0.00  0.00    +0.002 A 
ATOM     26  C   UNL     1      -6.911   3.512  -7.937  0.00  0.00    +0.020 A 
ATOM     27  C   UNL     1      -7.331   2.325  -8.516  0.00  0.00    +0.042 A 
ATOM     28  C   UNL     1      -6.700   1.140  -8.201  0.00  0.00    +0.028 A 
ATOM     29 CL   UNL     1      -8.650   2.331  -9.645  0.00  0.00    -0.084 Cl
ENDBRANCH  22  23
BRANCH  21  30
ATOM     30  C   UNL     1      -4.808   0.625  -4.639  0.00  0.00    +0.104 C 
ATOM     31  N   UNL     1      -5.053   1.373  -3.820  0.00  0.00    -0.191 NA
ENDBRANCH  21  30
ENDBRANCH  18  21
ENDBRANCH   5  17
TORSDOF 7
