REMARK  Name = ZINC01796981
REMARK  13 active torsions:
REMARK  status: ('A' for Active; 'I' for Inactive)
REMARK    1  A    between atoms: C_1  and  O_2
REMARK    2  A    between atoms: O_2  and  C_3
REMARK    3  A    between atoms: C_6  and  C_11
REMARK    4  A    between atoms: C_8  and  O_9
REMARK    5  A    between atoms: O_9  and  C_10
REMARK    6  A    between atoms: C_13  and  C_31
REMARK    7  A    between atoms: C_17  and  C_19
REMARK    8  A    between atoms: C_21  and  O_29
REMARK    9  A    between atoms: C_22  and  O_27
REMARK   10  A    between atoms: C_23  and  O_25
REMARK   11  A    between atoms: O_25  and  C_26
REMARK   12  A    between atoms: O_27  and  C_28
REMARK   13  A    between atoms: O_29  and  C_30
REMARK                            x       y       z     vdW  Elec       q    Type
REMARK                         _______ _______ _______ _____ _____    ______ ____
ROOT
ATOM      1  C   UNL     1       2.510  -2.490  -4.362  0.00  0.00    +0.050 C 
ATOM      2  C   UNL     1       3.059  -1.834  -5.381  0.00  0.00    +0.027 C 
ATOM      3  C   UNL     1       3.597  -2.867  -6.346  0.00  0.00    +0.152 C 
ATOM      4  N   UNL     1       3.273  -4.163  -5.727  0.00  0.00    -0.207 N 
ATOM      5  N   UNL     1       2.620  -3.865  -4.524  0.00  0.00    -0.261 N 
ATOM      6  C   UNL     1       3.553  -5.387  -6.216  0.00  0.00    +0.264 C 
ATOM      7  O   UNL     1       4.071  -5.501  -7.310  0.00  0.00    -0.268 OA
ATOM      8  H   UNL     1       2.289  -4.525  -3.895  0.00  0.00    +0.170 HD
ENDROOT
BRANCH   3   9
ATOM      9  C   UNL     1       2.917  -2.738  -7.685  0.00  0.00    -0.021 A 
ATOM     10  C   UNL     1       1.645  -3.249  -7.867  0.00  0.00    +0.007 A 
ATOM     11  C   UNL     1       1.021  -3.131  -9.094  0.00  0.00    +0.015 A 
ATOM     12  C   UNL     1       1.670  -2.501 -10.142  0.00  0.00    +0.018 A 
ATOM     13  C   UNL     1       2.942  -1.990  -9.960  0.00  0.00    +0.015 A 
ATOM     14  C   UNL     1       3.563  -2.104  -8.730  0.00  0.00    +0.007 A 
ATOM     15 BR   UNL     1       0.817  -2.340 -11.822  0.00  0.00    -0.050 Br
ENDBRANCH   3   9
BRANCH   1  19
ATOM     16  C   UNL     1       0.669  -0.607  -1.021  0.00  0.00    +0.162 A 
ATOM     17  C   UNL     1       1.210   0.163  -2.040  0.00  0.00    +0.050 A 
ATOM     18  C   UNL     1       1.808  -0.445  -3.124  0.00  0.00    +0.013 A 
ATOM     19  C   UNL     1       1.869  -1.837  -3.198  0.00  0.00    +0.001 A 
ATOM     20  C   UNL     1       1.325  -2.611  -2.174  0.00  0.00    +0.059 A 
ATOM     21  C   UNL     1       0.732  -1.997  -1.086  0.00  0.00    +0.162 A 
BRANCH  16  23
ATOM     22  C   UNL     1       0.051   1.425   0.048  0.00  0.00    +0.277 C 
ATOM     23  O   UNL     1       0.081  -0.004   0.046  0.00  0.00    -0.491 OA
ENDBRANCH  16  23
BRANCH  21  24
ATOM     24  O   UNL     1       0.206  -2.749  -0.083  0.00  0.00    -0.491 OA
ATOM     25  C   UNL     1       0.306  -4.168  -0.215  0.00  0.00    +0.277 C 
ENDBRANCH  21  24
ENDBRANCH   1  19
BRANCH   6  26
ATOM     26  C   UNL     1       3.231  -6.590  -5.423  0.00  0.00    +0.046 A 
ATOM     27  C   UNL     1       2.085  -6.615  -4.624  0.00  0.00    +0.062 A 
ATOM     28  C   UNL     1       1.785  -7.742  -3.883  0.00  0.00    +0.166 A 
ATOM     29  C   UNL     1       2.625  -8.852  -3.931  0.00  0.00    +0.204 A 
ATOM     30  C   UNL     1       3.767  -8.830  -4.727  0.00  0.00    +0.166 A 
ATOM     31  C   UNL     1       4.068  -7.707  -5.475  0.00  0.00    +0.062 A 
BRANCH  30  32
ATOM     32  O   UNL     1       4.585  -9.916  -4.772  0.00  0.00    -0.491 OA
ATOM     33  C   UNL     1       5.739  -9.824  -5.609  0.00  0.00    +0.277 C 
ENDBRANCH  30  32
BRANCH  29  34
ATOM     34  O   UNL     1       2.328  -9.959  -3.200  0.00  0.00    -0.488 OA
ATOM     35  C   UNL     1       1.515 -10.952  -3.828  0.00  0.00    +0.277 C 
ENDBRANCH  29  34
BRANCH  28  36
ATOM     36  O   UNL     1       0.670  -7.767  -3.104  0.00  0.00    -0.491 OA
ATOM     37  C   UNL     1      -0.145  -6.594  -3.102  0.00  0.00    +0.277 C 
ENDBRANCH  28  36
ENDBRANCH   6  26
TORSDOF 8
