REMARK  Name = ZINC59987125
REMARK  6 active torsions:
REMARK  status: ('A' for Active; 'I' for Inactive)
REMARK    1  A    between atoms: C_1  and  C_2
REMARK    2  A    between atoms: C_5  and  O_32
REMARK    3  A    between atoms: C_6  and  S_8
REMARK    4  A    between atoms: S_8  and  N_11
REMARK    5  A    between atoms: C_17  and  C_19
REMARK    6  A    between atoms: C_21  and  C_31
REMARK                            x       y       z     vdW  Elec       q    Type
REMARK                         _______ _______ _______ _____ _____    ______ ____
ROOT
ATOM      1  N   UNL     1      -1.365  -3.809   2.802  0.00  0.00    -0.173 NA
ATOM      2  C   UNL     1      -2.554  -3.201   3.414  0.00  0.00    +0.128 C 
ATOM      3  C   UNL     1      -3.709  -3.261   2.406  0.00  0.00    +0.125 C 
ATOM      4  N   UNL     1      -3.804  -4.630   1.882  0.00  0.00    -0.296 N 
ATOM      5  C   UNL     1      -2.614  -5.238   1.269  0.00  0.00    +0.125 C 
ATOM      6  C   UNL     1      -1.461  -5.176   2.272  0.00  0.00    +0.128 C 
ATOM      7  C   UNL     1      -4.961  -5.317   1.961  0.00  0.00    +0.260 C 
ATOM      8  O   UNL     1      -5.906  -4.845   2.557  0.00  0.00    -0.271 OA
ENDROOT
BRANCH   7   9
ATOM      9  C   UNL     1      -5.080  -6.671   1.309  0.00  0.00    +0.299 C 
ATOM     10  C   UNL     1      -5.480  -6.503  -0.163  0.00  0.00    +0.220 C 
ATOM     11  O   UNL     1      -6.740  -5.824  -0.211  0.00  0.00    -0.481 OA
ATOM     12  C   UNL     1      -7.708  -6.272   0.634  0.00  0.00    +0.163 A 
ATOM     13  C   UNL     1      -9.030  -5.923   0.400  0.00  0.00    +0.049 A 
ATOM     14  C   UNL     1     -10.024  -6.368   1.251  0.00  0.00    +0.004 A 
ATOM     15  C   UNL     1      -9.704  -7.162   2.337  0.00  0.00    +0.004 A 
ATOM     16  C   UNL     1      -8.389  -7.514   2.575  0.00  0.00    +0.049 A 
ATOM     17  C   UNL     1      -7.387  -7.072   1.724  0.00  0.00    +0.163 A 
ATOM     18  O   UNL     1      -6.097  -7.435   1.967  0.00  0.00    -0.472 OA
ATOM     19  C   UNL     1      -4.420  -5.677  -0.894  0.00  0.00    +0.056 C 
ENDBRANCH   7   9
BRANCH   1  20
ATOM     20  S   UNL     1       0.057  -2.966   2.704  0.00  0.00    +0.064 S 
ATOM     21  O   UNL     1       1.096  -3.930   2.605  0.00  0.00    -0.153 OA
ATOM     22  O   UNL     1       0.021  -1.988   3.735  0.00  0.00    -0.153 OA
BRANCH  20  28
ATOM     23  C   UNL     1      -0.018   1.491  -0.024  0.00  0.00    +0.044 C 
ATOM     24  C   UNL     1       0.004  -0.016  -0.024  0.00  0.00    -0.048 A 
ATOM     25  C   UNL     1       0.009  -0.707  -1.222  0.00  0.00    +0.007 A 
ATOM     26  C   UNL     1       0.028  -2.088  -1.225  0.00  0.00    +0.047 A 
ATOM     27  C   UNL     1       0.043  -2.782  -0.024  0.00  0.00    +0.143 A 
ATOM     28  C   UNL     1       0.038  -2.087   1.177  0.00  0.00    +0.147 A 
ATOM     29  C   UNL     1       0.024  -0.706   1.174  0.00  0.00    +0.035 A 
BRANCH  27  30
ATOM     30  O   UNL     1       0.061  -4.141  -0.023  0.00  0.00    -0.505 OA
ATOM     31  H   UNL     1       0.950  -4.522  -0.027  0.00  0.00    +0.292 HD
ENDBRANCH  27  30
ENDBRANCH  20  28
ENDBRANCH   1  20
TORSDOF 4
