REMARK  Name = ZINC06008659
REMARK  15 active torsions:
REMARK  status: ('A' for Active; 'I' for Inactive)
REMARK    1  A    between atoms: C_1  and  C_2
REMARK    2  A    between atoms: C_4  and  O_11
REMARK    3  A    between atoms: C_7  and  C_8
REMARK    4  A    between atoms: C_8  and  C_9
REMARK    5  A    between atoms: C_8  and  C_10
REMARK    6  A    between atoms: O_11  and  C_12
REMARK    7  A    between atoms: C_12  and  C_13
REMARK    8  A    between atoms: C_13  and  C_15
REMARK    9  A    between atoms: C_13  and  O_26
REMARK   10  A    between atoms: C_15  and  N_63
REMARK   11  A    between atoms: C_16  and  C_24
REMARK   12  A    between atoms: C_16  and  C_25
REMARK   13  A    between atoms: C_18  and  O_23
REMARK   14  A    between atoms: C_20  and  C_21
REMARK   15  A    between atoms: C_20  and  C_22
REMARK                            x       y       z     vdW  Elec       q    Type
REMARK                         _______ _______ _______ _____ _____    ______ ____
ROOT
ATOM      1  C   UNL     1       1.461  -2.686   3.994  0.00  0.00    +0.135 C 
ENDROOT
BRANCH   1   2
ATOM      2  O   UNL     1       1.981  -1.417   4.396  0.00  0.00    -0.390 OA
ATOM      3  H   UNL     1       2.737  -1.475   4.996  0.00  0.00    +0.210 HD
ENDBRANCH   1   2
BRANCH   1   4
ATOM      4  C   UNL     1       2.580  -3.522   3.369  0.00  0.00    +0.258 C 
BRANCH   4   5
ATOM      5  O   UNL     1       3.566  -3.815   4.361  0.00  0.00    -0.489 OA
BRANCH   5   9
ATOM      6  C   UNL     1       7.799  -5.979   5.467  0.00  0.00    +0.044 C 
ATOM      7  C   UNL     1       6.717  -5.630   4.477  0.00  0.00    -0.044 A 
ATOM      8  C   UNL     1       5.630  -4.877   4.879  0.00  0.00    +0.049 A 
ATOM      9  C   UNL     1       4.636  -4.555   3.968  0.00  0.00    +0.121 A 
ATOM     10  C   UNL     1       4.732  -4.995   2.655  0.00  0.00    +0.046 A 
ATOM     11  C   UNL     1       5.823  -5.742   2.257  0.00  0.00    +0.008 A 
ATOM     12  C   UNL     1       6.813  -6.062   3.167  0.00  0.00    -0.042 A 
BRANCH  12  13
ATOM     13  C   UNL     1       8.000  -6.883   2.731  0.00  0.00    +0.013 C 
ATOM     14  C   UNL     1       7.512  -8.182   2.087  0.00  0.00    +0.012 C 
ATOM     15  C   UNL     1       8.824  -6.088   1.716  0.00  0.00    +0.012 C 
ENDBRANCH  12  13
ENDBRANCH   5   9
ENDBRANCH   4   5
ENDBRANCH   1   4
BRANCH   1  16
ATOM     16  C   UNL     1       0.346  -2.477   2.967  0.00  0.00    -0.042 C 
BRANCH  16  26
ATOM     17  C   UNL     1      -0.371  -3.914   1.155  0.00  0.00    -0.068 C 
ATOM     18  C   UNL     1      -1.026  -5.233   0.753  0.00  0.00    +0.019 C 
ATOM     19  C   UNL     1      -2.302  -5.469   1.559  0.00  0.00    +0.112 C 
ATOM     20  C   UNL     1      -1.946  -5.493   3.046  0.00  0.00    +0.019 C 
ATOM     21  C   UNL     1      -1.327  -4.157   3.458  0.00  0.00    -0.068 C 
ATOM     22  C   UNL     1      -0.773  -4.326   4.890  0.00  0.00    -0.010 C 
ATOM     23  C   UNL     1      -2.407  -3.075   3.511  0.00  0.00    -0.010 C 
ATOM     24  C   UNL     1      -1.152  -2.743   0.553  0.00  0.00    -0.010 C 
ATOM     25  C   UNL     1       1.042  -3.889   0.529  0.00  0.00    -0.010 C 
ATOM     26  N   UNL     1      -0.132  -3.819   2.631  0.00  0.00    +0.388 N 
ATOM     27  H   UNL     1       0.606  -4.492   2.869  0.00  0.00    -0.080 HD
BRANCH  19  28
ATOM     28  O   UNL     1      -2.865  -6.734   1.190  0.00  0.00    -0.392 OA
ATOM     29  H   UNL     1      -3.116  -6.796   0.259  0.00  0.00    +0.210 HD
ENDBRANCH  19  28
ENDBRANCH  16  26
ENDBRANCH   1  16
TORSDOF 8
