REMARK  Name = ZINC08695101
REMARK  9 active torsions:
REMARK  status: ('A' for Active; 'I' for Inactive)
REMARK    1  A    between atoms: C_1  and  C_2
REMARK    2  A    between atoms: C_5  and  C_8
REMARK    3  A    between atoms: C_8  and  C_9
REMARK    4  A    between atoms: N_15  and  C_18
REMARK    5  A    between atoms: C_21  and  O_24
REMARK    6  A    between atoms: O_24  and  C_25
REMARK    7  A    between atoms: N_26  and  C_27
REMARK    8  A    between atoms: C_27  and  C_28
REMARK    9  A    between atoms: C_28  and  C_29
REMARK                            x       y       z     vdW  Elec       q    Type
REMARK                         _______ _______ _______ _____ _____    ______ ____
ROOT
ATOM      1  C   UNL     1      -3.973   2.489   5.056  0.00  0.00    +0.210 C 
ATOM      2  C   UNL     1      -4.172   3.712   5.848  0.00  0.00    +0.238 C 
ATOM      3  O   UNL     1      -3.426   3.987   6.770  0.00  0.00    -0.274 OA
ATOM      4  N   UNL     1      -5.200   4.522   5.524  0.00  0.00    -0.238 N 
ATOM      5  C   UNL     1      -6.032   4.228   4.515  0.00  0.00    +0.319 C 
ATOM      6  O   UNL     1      -6.943   4.996   4.276  0.00  0.00    -0.251 OA
ATOM      7  N   UNL     1      -5.912   3.129   3.756  0.00  0.00    -0.193 N 
ATOM      8  C   UNL     1      -4.925   2.233   3.965  0.00  0.00    +0.245 C 
ATOM      9  O   UNL     1      -4.826   1.240   3.269  0.00  0.00    -0.274 OA
ATOM     10  H   UNL     1      -5.343   5.334   6.035  0.00  0.00    +0.159 HD
ENDROOT
BRANCH   7  11
ATOM     11  C   UNL     1      -6.832   2.906   2.721  0.00  0.00    +0.046 A 
ATOM     12  C   UNL     1      -6.608   3.449   1.463  0.00  0.00    +0.027 A 
ATOM     13  C   UNL     1      -7.511   3.224   0.444  0.00  0.00    +0.047 A 
ATOM     14  C   UNL     1      -8.649   2.466   0.679  0.00  0.00    +0.120 A 
ATOM     15  C   UNL     1      -8.877   1.929   1.938  0.00  0.00    +0.047 A 
ATOM     16  C   UNL     1      -7.971   2.148   2.956  0.00  0.00    +0.027 A 
BRANCH  14  17
ATOM     17  O   UNL     1      -9.541   2.250  -0.324  0.00  0.00    -0.495 OA
ATOM     18  C   UNL     1      -9.243   2.833  -1.594  0.00  0.00    +0.277 C 
ENDBRANCH  14  17
ENDBRANCH   7  11
BRANCH   1  19
ATOM     19  C   UNL     1      -2.926   1.605   5.331  0.00  0.00    +0.064 C 
ATOM     20  N   UNL     1      -1.971   1.942   6.245  0.00  0.00    -0.286 NA
BRANCH  19  25
ATOM     21  C   UNL     1      -2.644  -3.453   2.608  0.00  0.00    +0.044 C 
ATOM     22  C   UNL     1      -2.718  -2.127   3.322  0.00  0.00    -0.050 A 
ATOM     23  C   UNL     1      -1.667  -1.232   3.222  0.00  0.00    +0.004 A 
ATOM     24  C   UNL     1      -1.730  -0.015   3.868  0.00  0.00    +0.010 A 
ATOM     25  C   UNL     1      -2.854   0.309   4.633  0.00  0.00    -0.003 A 
ATOM     26  C   UNL     1      -3.909  -0.603   4.734  0.00  0.00    +0.010 A 
ATOM     27  C   UNL     1      -3.834  -1.814   4.078  0.00  0.00    +0.004 A 
ENDBRANCH  19  25
BRANCH  20  28
ATOM     28  C   UNL     1      -0.874   1.015   6.534  0.00  0.00    +0.148 C 
BRANCH  28  29
ATOM     29  C   UNL     1      -0.003   1.589   7.653  0.00  0.00    +0.078 C 
BRANCH  29  30
ATOM     30  C   UNL     1       1.126   0.635   7.950  0.00  0.00    +0.037 A 
ATOM     31  C   UNL     1       2.309   0.567   7.310  0.00  0.00    +0.133 A 
ATOM     32  N   UNL     1       3.031  -0.411   7.876  0.00  0.00    -0.244 NA
ATOM     33  C   UNL     1       2.342  -0.951   8.843  0.00  0.00    +0.196 A 
ATOM     34  N   UNL     1       1.149  -0.324   8.927  0.00  0.00    -0.348 N 
ATOM     35  H   UNL     1       0.418  -0.523   9.580  0.00  0.00    +0.166 HD
ENDBRANCH  29  30
ENDBRANCH  28  29
ENDBRANCH  20  28
ENDBRANCH   1  19
TORSDOF 7
