REMARK  Name = ZINC08935652
REMARK  6 active torsions:
REMARK  status: ('A' for Active; 'I' for Inactive)
REMARK    1  A    between atoms: C_1  and  C_2
REMARK    2  A    between atoms: C_2  and  C_20
REMARK    3  A    between atoms: N_5  and  C_9
REMARK    4  A    between atoms: C_9  and  C_10
REMARK    5  A    between atoms: C_23  and  O_26
REMARK    6  A    between atoms: O_26  and  C_27
REMARK                            x       y       z     vdW  Elec       q    Type
REMARK                         _______ _______ _______ _____ _____    ______ ____
ROOT
ATOM      1  C   UNL     1      -2.290   4.002   2.902  0.00  0.00    +0.047 C 
ATOM      2  C   UNL     1      -1.366   2.788   3.019  0.00  0.00    +0.135 C 
ATOM      3  C   UNL     1      -0.418   2.719   1.838  0.00  0.00    +0.251 C 
ATOM      4  O   UNL     1       0.418   3.538   1.521  0.00  0.00    -0.272 OA
ATOM      5  N   UNL     1      -0.698   1.558   1.213  0.00  0.00    -0.218 N 
ATOM      6  C   UNL     1      -1.677   0.888   1.833  0.00  0.00    +0.310 C 
ATOM      7  O   UNL     1      -2.101  -0.188   1.459  0.00  0.00    -0.252 OA
ATOM      8  N   UNL     1      -2.138   1.538   2.917  0.00  0.00    -0.281 N 
ATOM      9  H   UNL     1      -2.842   1.241   3.514  0.00  0.00    +0.152 HD
ENDROOT
BRANCH   2  10
ATOM     10  C   UNL     1      -0.593   2.830   4.312  0.00  0.00    -0.015 A 
ATOM     11  C   UNL     1       0.624   3.484   4.368  0.00  0.00    +0.010 A 
ATOM     12  C   UNL     1       1.331   3.529   5.554  0.00  0.00    +0.046 A 
ATOM     13  C   UNL     1       0.825   2.907   6.686  0.00  0.00    +0.127 A 
ATOM     14  C   UNL     1      -0.393   2.247   6.626  0.00  0.00    +0.046 A 
ATOM     15  C   UNL     1      -1.100   2.210   5.439  0.00  0.00    +0.010 A 
BRANCH  13  16
ATOM     16  O   UNL     1       1.523   2.944   7.852  0.00  0.00    -0.434 OA
BRANCH  16  17
ATOM     17  C   UNL     1       2.770   3.642   7.840  0.00  0.00    +0.541 C 
ATOM     18  F   UNL     1       3.627   3.048   6.908  0.00  0.00    -0.166 F 
ATOM     19  F   UNL     1       2.553   4.978   7.489  0.00  0.00    -0.166 F 
ENDBRANCH  16  17
ENDBRANCH  13  16
ENDBRANCH   2  10
BRANCH   5  20
ATOM     20  C   UNL     1      -0.013   1.086   0.008  0.00  0.00    +0.173 C 
BRANCH  20  21
ATOM     21  C   UNL     1      -0.742   1.585  -1.213  0.00  0.00    +0.067 A 
ATOM     22  C   UNL     1      -0.139   2.478  -2.073  0.00  0.00    +0.095 A 
ATOM     23  C   UNL     1      -0.828   2.925  -3.201  0.00  0.00    +0.259 A 
ATOM     24  O   UNL     1      -0.298   3.712  -3.969  0.00  0.00    -0.267 OA
ATOM     25  N   UNL     1      -2.099   2.485  -3.442  0.00  0.00    -0.262 N 
ATOM     26  C   UNL     1      -2.903   2.836  -4.500  0.00  0.00    +0.104 A 
ATOM     27  C   UNL     1      -4.132   2.335  -4.626  0.00  0.00    +0.067 A 
ATOM     28  S   UNL     1      -4.246   1.281  -3.188  0.00  0.00    -0.058 S 
ATOM     29  C   UNL     1      -2.623   1.604  -2.535  0.00  0.00    +0.180 A 
ATOM     30  N   UNL     1      -1.980   1.176  -1.477  0.00  0.00    -0.226 NA
ENDBRANCH  20  21
ENDBRANCH   5  20
TORSDOF 5
