REMARK  Name = ZINC13609745
REMARK  13 active torsions:
REMARK  status: ('A' for Active; 'I' for Inactive)
REMARK    1  A    between atoms: C_1  and  C_2
REMARK    2  A    between atoms: C_6  and  O_32
REMARK    3  A    between atoms: C_12  and  C_13
REMARK    4  A    between atoms: C_13  and  C_14
REMARK    5  A    between atoms: N_16  and  C_17
REMARK    6  A    between atoms: C_17  and  C_18
REMARK    7  A    between atoms: C_18  and  C_19
REMARK    8  A    between atoms: C_22  and  S_25
REMARK    9  A    between atoms: S_25  and  N_28
REMARK   10  A    between atoms: C_29  and  C_31
REMARK   11  A    between atoms: O_32  and  C_33
REMARK   12  A    between atoms: C_33  and  C_34
REMARK   13  A    between atoms: C_34  and  C_36
REMARK                            x       y       z     vdW  Elec       q    Type
REMARK                         _______ _______ _______ _____ _____    ______ ____
ROOT
ATOM      1  C   UNL     1      -2.634   2.804   8.580  0.00  0.00    +0.218 C 
ATOM      2  O   UNL     1      -1.569   2.237   8.703  0.00  0.00    -0.275 OA
ATOM      3  N   UNL     1      -3.121   3.064   7.350  0.00  0.00    -0.315 N 
ATOM      4  H   UNL     1      -3.972   3.518   7.252  0.00  0.00    +0.149 HD
ENDROOT
BRANCH   1   5
ATOM      5  C   UNL     1      -3.412   3.218   9.802  0.00  0.00    +0.138 C 
BRANCH   5  17
ATOM      6  C   UNL     1      -1.508   5.028  11.002  0.00  0.00    +0.045 C 
ATOM      7  C   UNL     1      -1.760   3.668  11.601  0.00  0.00    -0.029 A 
ATOM      8  C   UNL     1      -1.048   3.233  12.804  0.00  0.00    +0.021 A 
ATOM      9  C   UNL     1      -0.114   4.067  13.430  0.00  0.00    +0.015 A 
ATOM     10  C   UNL     1       0.536   3.636  14.550  0.00  0.00    +0.046 A 
ATOM     11  C   UNL     1       0.276   2.372  15.075  0.00  0.00    +0.124 A 
ATOM     12  C   UNL     1      -0.646   1.534  14.469  0.00  0.00    +0.092 A 
ATOM     13  C   UNL     1      -1.315   1.955  13.330  0.00  0.00    +0.143 A 
ATOM     14  O   UNL     1      -2.218   1.155  12.724  0.00  0.00    -0.422 OA
ATOM     15  C   UNL     1      -2.878   1.550  11.624  0.00  0.00    +0.341 A 
ATOM     16  O   UNL     1      -3.687   0.795  11.115  0.00  0.00    -0.245 OA
ATOM     17  C   UNL     1      -2.655   2.814  11.041  0.00  0.00    +0.049 A 
BRANCH  11  18
ATOM     18  O   UNL     1       0.931   1.958  16.190  0.00  0.00    -0.488 OA
BRANCH  18  19
ATOM     19  C   UNL     1       1.869   2.869  16.767  0.00  0.00    +0.259 C 
BRANCH  19  20
ATOM     20  C   UNL     1       2.493   2.241  17.987  0.00  0.00    -0.043 C 
ATOM     21  C   UNL     1       2.140   1.034  18.355  0.00  0.00    +0.011 C 
ATOM     22  C   UNL     1       3.522   3.002  18.782  0.00  0.00    +0.042 C 
ENDBRANCH  19  20
ENDBRANCH  18  19
ENDBRANCH  11  18
ENDBRANCH   5  17
ENDBRANCH   1   5
BRANCH   3  23
ATOM     23  C   UNL     1      -2.364   2.662   6.162  0.00  0.00    +0.109 C 
BRANCH  23  24
ATOM     24  C   UNL     1      -3.132   3.072   4.905  0.00  0.00    +0.054 C 
BRANCH  24  25
ATOM     25  C   UNL     1      -2.354   2.659   3.683  0.00  0.00    -0.046 A 
ATOM     26  C   UNL     1      -2.559   1.412   3.121  0.00  0.00    +0.005 A 
ATOM     27  C   UNL     1      -1.846   1.033   2.000  0.00  0.00    +0.029 A 
ATOM     28  C   UNL     1      -0.927   1.900   1.439  0.00  0.00    +0.109 A 
ATOM     29  C   UNL     1      -0.717   3.145   2.004  0.00  0.00    +0.029 A 
ATOM     30  C   UNL     1      -1.434   3.526   3.123  0.00  0.00    +0.005 A 
BRANCH  28  31
ATOM     31  S   UNL     1      -0.017   1.417   0.010  0.00  0.00    +0.074 S 
ATOM     32  O   UNL     1       0.002  -0.004   0.002  0.00  0.00    -0.150 OA
ATOM     33  O   UNL     1       1.172   2.195   0.003  0.00  0.00    -0.150 OA
BRANCH  31  34
ATOM     34  N   UNL     1      -0.897   1.885  -1.312  0.00  0.00    -0.186 N 
ATOM     35  C   UNL     1      -1.107   3.195  -1.553  0.00  0.00    +0.229 C 
ATOM     36  O   UNL     1      -0.650   4.030  -0.801  0.00  0.00    -0.275 OA
ATOM     37  C   UNL     1      -1.908   3.622  -2.756  0.00  0.00    +0.111 C 
ATOM     38  H   UNL     1      -1.263   1.218  -1.913  0.00  0.00    +0.177 HD
ENDBRANCH  31  34
ENDBRANCH  28  31
ENDBRANCH  24  25
ENDBRANCH  23  24
ENDBRANCH   3  23
TORSDOF 10
