REMARK  Name = ZINC04161874
REMARK  11 active torsions:
REMARK  status: ('A' for Active; 'I' for Inactive)
REMARK    1  A    between atoms: C_1  and  C_2
REMARK    2  A    between atoms: C_2  and  C_3
REMARK    3  A    between atoms: C_3  and  C_4
REMARK    4  A    between atoms: C_3  and  C_5
REMARK    5  A    between atoms: C_3  and  N_6
REMARK    6  A    between atoms: C_7  and  C_11
REMARK    7  A    between atoms: C_11  and  C_13
REMARK    8  A    between atoms: C_11  and  N_63
REMARK    9  A    between atoms: C_18  and  O_25
REMARK   10  A    between atoms: O_25  and  C_26
REMARK   11  A    between atoms: C_30  and  C_33
REMARK                            x       y       z     vdW  Elec       q    Type
REMARK                         _______ _______ _______ _____ _____    ______ ____
ROOT
ATOM      1  C   UNL     1      -3.546   2.138   0.193  0.00  0.00    +0.039 C 
ENDROOT
BRANCH   1   2
ATOM      2  C   UNL     1      -2.369   1.229   0.439  0.00  0.00    +0.011 A 
ATOM      3  C   UNL     1      -1.159   1.758   0.752  0.00  0.00    +0.017 A 
ATOM      4  C   UNL     1      -0.036   0.850   0.979  0.00  0.00    -0.001 A 
ATOM      5  C   UNL     1       1.236   1.339   1.300  0.00  0.00    +0.013 A 
ATOM      6  C   UNL     1       2.264   0.467   1.511  0.00  0.00    +0.046 A 
ATOM      7  C   UNL     1       2.057  -0.909   1.412  0.00  0.00    +0.122 A 
ATOM      8  C   UNL     1       0.807  -1.412   1.096  0.00  0.00    +0.072 A 
ATOM      9  C   UNL     1      -0.251  -0.539   0.877  0.00  0.00    +0.053 A 
ATOM     10  N   UNL     1      -1.507  -1.013   0.561  0.00  0.00    -0.322 N 
ATOM     11  H   UNL     1      -1.658  -1.999   0.489  0.00  0.00    +0.169 HD
ATOM     12  C   UNL     1      -2.531  -0.169   0.349  0.00  0.00    +0.251 A 
ATOM     13  O   UNL     1      -3.628  -0.623   0.072  0.00  0.00    -0.268 OA
BRANCH   7  14
ATOM     14  O   UNL     1       3.091  -1.762   1.626  0.00  0.00    -0.495 OA
ATOM     15  C   UNL     1       4.356  -1.180   1.948  0.00  0.00    +0.277 C 
ENDBRANCH   7  14
ENDBRANCH   1   2
BRANCH   1  22
ATOM     16  C   UNL     1      -3.140   2.043  -2.192  0.00  0.00    -0.077 C 
ATOM     17  C   UNL     1      -3.732   1.588  -3.527  0.00  0.00    -0.018 C 
ATOM     18  C   UNL     1      -5.000   2.396  -3.819  0.00  0.00    -0.001 C 
ATOM     19  C   UNL     1      -5.992   2.207  -2.668  0.00  0.00    -0.031 C 
ATOM     20  C   UNL     1      -5.334   2.644  -1.358  0.00  0.00    -0.074 C 
ATOM     21  C   UNL     1      -7.238   3.058  -2.923  0.00  0.00    +0.005 C 
ATOM     22  N   UNL     1      -4.135   1.813  -1.122  0.00  0.00    +0.389 N 
ATOM     23  H   UNL     1      -4.408   0.823  -1.130  0.00  0.00    -0.080 HD
ENDBRANCH   1  22
BRANCH   1  25
ATOM     24  N   UNL     1      -4.930   2.777   2.238  0.00  0.00    -0.225 N 
ATOM     25  C   UNL     1      -4.584   1.916   1.262  0.00  0.00    +0.143 A 
ATOM     26  N   UNL     1      -5.322   0.845   1.427  0.00  0.00    -0.115 NA
ATOM     27  N   UNL     1      -6.085   1.040   2.446  0.00  0.00    -0.023 NA
ATOM     28  N   UNL     1      -5.853   2.207   2.937  0.00  0.00    -0.043 NA
BRANCH  24  29
ATOM     29  C   UNL     1      -4.367   4.111   2.461  0.00  0.00    +0.061 C 
ATOM     30  C   UNL     1      -2.853   4.000   2.650  0.00  0.00    +0.036 C 
ATOM     31  C   UNL     1      -4.667   5.000   1.252  0.00  0.00    +0.036 C 
BRANCH  29  33
ATOM     32  C   UNL     1      -4.407   6.119   3.947  0.00  0.00    +0.006 C 
ATOM     33  C   UNL     1      -4.995   4.726   3.714  0.00  0.00    +0.026 C 
ENDBRANCH  29  33
ENDBRANCH  24  29
ENDBRANCH   1  25
TORSDOF 6
