REMARK  Name = ZINC39465921
REMARK  6 active torsions:
REMARK  status: ('A' for Active; 'I' for Inactive)
REMARK    1  A    between atoms: C_1  and  S_2
REMARK    2  A    between atoms: S_2  and  C_3
REMARK    3  A    between atoms: C_8  and  O_9
REMARK    4  A    between atoms: P_14  and  S_20
REMARK    5  A    between atoms: S_20  and  O_23
REMARK    6  A    between atoms: O_23  and  C_24
REMARK                            x       y       z     vdW  Elec       q    Type
REMARK                         _______ _______ _______ _____ _____    ______ ____
ROOT
ATOM      1  C   UNL     1       0.877  -0.427   1.472  0.00  0.00    +0.049 A 
ATOM      2  C   UNL     1       1.349   0.569   2.313  0.00  0.00    +0.022 A 
ATOM      3  C   UNL     1       2.037   0.239   3.470  0.00  0.00    -0.040 A 
ATOM      4  C   UNL     1       2.256  -1.083   3.792  0.00  0.00    -0.020 A 
ATOM      5  C   UNL     1       1.784  -2.084   2.953  0.00  0.00    +0.052 A 
ATOM      6  C   UNL     1       1.093  -1.764   1.800  0.00  0.00    +0.131 A 
ATOM      7  C   UNL     1       3.000  -1.491   5.037  0.00  0.00    +0.130 C 
ATOM      8  C   UNL     1       2.276  -2.674   5.686  0.00  0.00    +0.195 C 
ATOM      9  O   UNL     1       3.056  -3.134   6.808  0.00  0.00    -0.296 OA
ATOM     10  P   UNL     1       3.561  -2.036   7.897  0.00  0.00    +0.458 P 
ATOM     11  O   UNL     1       2.474  -1.726   8.851  0.00  0.00    -0.243 OA
ATOM     12  N   UNL     1       3.955  -0.690   7.022  0.00  0.00    -0.158 NA
ATOM     13  N   UNL     1       3.104  -0.378   5.980  0.00  0.00    -0.224 NA
ATOM     14  C   UNL     1       3.591   0.836   5.307  0.00  0.00    +0.108 C 
ATOM     15  C   UNL     1       2.530   1.356   4.355  0.00  0.00    +0.052 C 
ATOM     16  H   UNL     1       4.732  -0.151   7.237  0.00  0.00    +0.152 HD
ENDROOT
BRANCH  10  17
ATOM     17  S   UNL     1       5.261  -2.763   8.935  0.00  0.00    +0.211 S 
ATOM     18  O   UNL     1       6.214  -3.130   7.947  0.00  0.00    -0.126 OA
ATOM     19  O   UNL     1       5.548  -1.817   9.956  0.00  0.00    -0.126 OA
BRANCH  17  20
ATOM     20  O   UNL     1       4.844  -4.048   9.636  0.00  0.00    -0.339 OA
BRANCH  20  21
ATOM     21  C   UNL     1       4.717  -5.115   8.805  0.00  0.00    +0.157 A 
ATOM     22  C   UNL     1       3.498  -5.380   8.197  0.00  0.00    +0.048 A 
ATOM     23  C   UNL     1       3.372  -6.466   7.352  0.00  0.00    +0.004 A 
ATOM     24  C   UNL     1       4.457  -7.287   7.112  0.00  0.00    +0.000 A 
ATOM     25  C   UNL     1       5.673  -7.025   7.717  0.00  0.00    +0.004 A 
ATOM     26  C   UNL     1       5.806  -5.937   8.558  0.00  0.00    +0.048 A 
ENDBRANCH  20  21
ENDBRANCH  17  20
ENDBRANCH  10  17
BRANCH   1  28
ATOM     27  C   UNL     1      -0.022   1.810   0.012  0.00  0.00    +0.090 C 
ATOM     28  S   UNL     1       0.002  -0.004   0.002  0.00  0.00    -0.125 S 
ENDBRANCH   1  28
BRANCH   6  29
ATOM     29  O   UNL     1       0.629  -2.750   0.986  0.00  0.00    -0.506 OA
ATOM     30  H   UNL     1       1.255  -3.022   0.301  0.00  0.00    +0.292 HD
ENDBRANCH   6  29
TORSDOF 5
