REMARK  Name = ZINC16693904
REMARK  7 active torsions:
REMARK  status: ('A' for Active; 'I' for Inactive)
REMARK    1  A    between atoms: C_1  and  C_2
REMARK    2  A    between atoms: C_3  and  C_26
REMARK    3  A    between atoms: N_6  and  C_19
REMARK    4  A    between atoms: C_10  and  N_11
REMARK    5  A    between atoms: N_11  and  C_12
REMARK    6  A    between atoms: C_15  and  O_18
REMARK    7  A    between atoms: C_19  and  C_20
REMARK                            x       y       z     vdW  Elec       q    Type
REMARK                         _______ _______ _______ _____ _____    ______ ____
ROOT
ATOM      1  C   UNL     1      -0.160   1.480   0.003  0.00  0.00    +0.046 C 
ATOM      2  C   UNL     1       0.006  -0.018   0.002  0.00  0.00    -0.015 C 
ATOM      3  C   UNL     1       0.082  -0.720  -1.193  0.00  0.00    +0.118 C 
ATOM      4  C   UNL     1       0.243  -2.175  -1.167  0.00  0.00    +0.264 C 
ATOM      5  O   UNL     1       0.310  -2.791  -2.214  0.00  0.00    -0.269 OA
ATOM      6  N   UNL     1       0.318  -2.838   0.000  0.00  0.00    -0.229 N 
ATOM      7  C   UNL     1       0.248  -2.193   1.178  0.00  0.00    +0.255 C 
ATOM      8  O   UNL     1       0.320  -2.821   2.218  0.00  0.00    -0.269 OA
ATOM      9  C   UNL     1       0.092  -0.733   1.216  0.00  0.00    +0.055 C 
ATOM     10  C   UNL     1       0.025  -0.063   2.435  0.00  0.00    +0.085 C 
ENDROOT
BRANCH  10  11
ATOM     11  N   UNL     1      -0.056  -0.760   3.582  0.00  0.00    -0.320 N 
ATOM     12  H   UNL     1      -0.043  -1.730   3.563  0.00  0.00    +0.152 HD
BRANCH  11  13
ATOM     13  C   UNL     1      -0.159  -0.087   4.804  0.00  0.00    +0.031 A 
ATOM     14  C   UNL     1      -0.184   1.302   4.832  0.00  0.00    +0.027 A 
ATOM     15  C   UNL     1      -0.287   1.965   6.039  0.00  0.00    +0.047 A 
ATOM     16  C   UNL     1      -0.365   1.246   7.222  0.00  0.00    +0.117 A 
ATOM     17  C   UNL     1      -0.340  -0.141   7.195  0.00  0.00    +0.047 A 
ATOM     18  C   UNL     1      -0.243  -0.807   5.989  0.00  0.00    +0.027 A 
BRANCH  16  19
ATOM     19  O   UNL     1      -0.466   1.900   8.410  0.00  0.00    -0.507 OA
ATOM     20  H   UNL     1      -1.375   2.075   8.686  0.00  0.00    +0.292 HD
ENDBRANCH  16  19
ENDBRANCH  11  13
ENDBRANCH  10  11
BRANCH   3  21
ATOM     21  C   UNL     1       0.002  -0.026  -2.443  0.00  0.00    +0.105 C 
ATOM     22  N   UNL     1      -0.061   0.524  -3.435  0.00  0.00    -0.191 NA
ENDBRANCH   3  21
BRANCH   6  23
ATOM     23  C   UNL     1       0.478  -4.294  -0.012  0.00  0.00    +0.152 C 
BRANCH  23  24
ATOM     24  C   UNL     1       1.946  -4.638  -0.018  0.00  0.00    -0.030 A 
ATOM     25  C   UNL     1       2.617  -4.780  -1.218  0.00  0.00    +0.005 A 
ATOM     26  C   UNL     1       3.963  -5.095  -1.224  0.00  0.00    +0.000 A 
ATOM     27  C   UNL     1       4.638  -5.267  -0.030  0.00  0.00    +0.000 A 
ATOM     28  C   UNL     1       3.967  -5.124   1.170  0.00  0.00    +0.000 A 
ATOM     29  C   UNL     1       2.622  -4.805   1.176  0.00  0.00    +0.005 A 
ENDBRANCH  23  24
ENDBRANCH   6  23
TORSDOF 6
