REMARK  Name = ZINC11784898
REMARK  11 active torsions:
REMARK  status: ('A' for Active; 'I' for Inactive)
REMARK    1  A    between atoms: C_1  and  N_62
REMARK    2  A    between atoms: C_2  and  N_62
REMARK    3  A    between atoms: C_3  and  C_4
REMARK    4  A    between atoms: C_3  and  N_62
REMARK    5  A    between atoms: C_6  and  C_28
REMARK    6  A    between atoms: C_9  and  O_10
REMARK    7  A    between atoms: O_10  and  C_11
REMARK    8  A    between atoms: C_11  and  C_12
REMARK    9  A    between atoms: N_14  and  C_15
REMARK   10  A    between atoms: C_15  and  C_16
REMARK   11  A    between atoms: C_16  and  C_17
REMARK                            x       y       z     vdW  Elec       q    Type
REMARK                         _______ _______ _______ _____ _____    ______ ____
ROOT
ATOM      1  C   UNL     1       4.702  -2.559  -0.058  0.00  0.00    -0.022 A 
ATOM      2  C   UNL     1       3.966  -1.393  -0.049  0.00  0.00    +0.016 A 
ATOM      3  C   UNL     1       2.571  -1.451  -0.031  0.00  0.00    +0.008 A 
ATOM      4  C   UNL     1       1.927  -2.690  -0.032  0.00  0.00    +0.014 A 
ATOM      5  C   UNL     1       2.669  -3.850  -0.045  0.00  0.00    +0.046 A 
ATOM      6  C   UNL     1       4.057  -3.789  -0.059  0.00  0.00    +0.123 A 
ENDROOT
BRANCH   3   7
ATOM      7  C   UNL     1       1.778  -0.204  -0.016  0.00  0.00    +0.109 A 
ATOM      8  N   UNL     1       2.200   1.042  -0.013  0.00  0.00    -0.239 NA
ATOM      9  C   UNL     1       1.356   2.093   0.000  0.00  0.00    +0.079 A 
ATOM     10  C   UNL     1       1.676   3.471   0.005  0.00  0.00    +0.029 A 
ATOM     11  C   UNL     1       0.696   4.414   0.020  0.00  0.00    +0.002 A 
ATOM     12  C   UNL     1      -0.648   4.068   0.032  0.00  0.00    +0.001 A 
ATOM     13  C   UNL     1      -1.004   2.732   0.031  0.00  0.00    +0.017 A 
ATOM     14  C   UNL     1      -0.022   1.772   0.012  0.00  0.00    +0.040 A 
ATOM     15  S   UNL     1       0.002  -0.004   0.002  0.00  0.00    -0.067 S 
ENDBRANCH   3   7
BRANCH   1  16
ATOM     16  C   UNL     1       6.207  -2.498  -0.072  0.00  0.00    -0.040 C 
BRANCH  16  19
ATOM     17  C   UNL     1       6.290  -1.604  -2.321  0.00  0.00    -0.096 C 
ATOM     18  C   UNL     1       8.150  -2.894  -1.462  0.00  0.00    -0.096 C 
ATOM     19  N   UNL     1       6.681  -2.734  -1.452  0.00  0.00    +0.379 N 
ATOM     20  H   UNL     1       6.249  -3.595  -1.810  0.00  0.00    -0.082 HD
ENDBRANCH  16  19
ENDBRANCH   1  16
BRANCH   6  21
ATOM     21  O   UNL     1       4.786  -4.935  -0.073  0.00  0.00    -0.483 OA
BRANCH  21  22
ATOM     22  C   UNL     1       4.059  -6.166  -0.073  0.00  0.00    +0.324 C 
BRANCH  22  23
ATOM     23  C   UNL     1       5.027  -7.321  -0.090  0.00  0.00    +0.251 C 
ATOM     24  O   UNL     1       6.221  -7.111  -0.101  0.00  0.00    -0.272 OA
ATOM     25  N   UNL     1       4.565  -8.587  -0.094  0.00  0.00    -0.312 N 
ATOM     26  H   UNL     1       3.610  -8.755  -0.085  0.00  0.00    +0.149 HD
BRANCH  25  27
ATOM     27  C   UNL     1       5.506  -9.710  -0.110  0.00  0.00    +0.112 C 
BRANCH  27  28
ATOM     28  C   UNL     1       4.729 -11.027  -0.111  0.00  0.00    +0.093 C 
BRANCH  28  29
ATOM     29  C   UNL     1       5.697 -12.182  -0.127  0.00  0.00    +0.110 A 
ATOM     30  N   UNL     1       5.716 -13.195   0.779  0.00  0.00    -0.342 N 
ATOM     31  H   UNL     1       5.102 -13.303   1.561  0.00  0.00    +0.167 HD
ATOM     32  C   UNL     1       6.742 -14.048   0.420  0.00  0.00    +0.066 A 
ATOM     33  C   UNL     1       7.242 -15.231   0.947  0.00  0.00    +0.029 A 
ATOM     34  C   UNL     1       8.307 -15.857   0.336  0.00  0.00    +0.022 A 
ATOM     35  C   UNL     1       8.884 -15.313  -0.804  0.00  0.00    +0.043 A 
ATOM     36  C   UNL     1       8.401 -14.140  -1.340  0.00  0.00    +0.050 A 
ATOM     37  C   UNL     1       7.321 -13.493  -0.732  0.00  0.00    +0.090 A 
ATOM     38  N   UNL     1       6.632 -12.358  -1.014  0.00  0.00    -0.232 NA
ATOM     39 CL   UNL     1      10.225 -16.117  -1.559  0.00  0.00    -0.083 Cl
ENDBRANCH  28  29
ENDBRANCH  27  28
ENDBRANCH  25  27
ENDBRANCH  22  23
ENDBRANCH  21  22
ENDBRANCH   6  21
TORSDOF 9
