REMARK  Name = ZINC12882047
REMARK  11 active torsions:
REMARK  status: ('A' for Active; 'I' for Inactive)
REMARK    1  A    between atoms: CD1_1  and  CG1_2
REMARK    2  A    between atoms: CG1_2  and  CB_3
REMARK    3  A    between atoms: CB_3  and  CG2_5
REMARK    4  A    between atoms: CB_3  and  CA_6
REMARK    5  A    between atoms: CA_6  and  C_8
REMARK    6  A    between atoms: CA_6  and  N_16
REMARK    7  A    between atoms: N_10  and  CA_11
REMARK    8  A    between atoms: CA_11  and  CB_13
REMARK    9  A    between atoms: CA_11  and  C_14
REMARK   10  A    between atoms: C_14  and  O_15
REMARK   11  A    between atoms: C_17  and  C_19
REMARK                            x       y       z     vdW  Elec       q    Type
REMARK                         _______ _______ _______ _____ _____    ______ ____
ROOT
ATOM      1  N   ALA A   1       3.095   0.551   0.147  0.00  0.00    -0.302 N 
ATOM      2  C   UNK A   0       3.933  -0.425  -0.253  0.00  0.00    +0.235 C 
ATOM      3  O   UNK A   0       3.552  -1.576  -0.286  0.00  0.00    -0.274 OA
ATOM      4  H   ALA A   1       3.376   1.479   0.107  0.00  0.00    +0.150 HD
ENDROOT
BRANCH   2   5
ATOM      5  C   UNK A   0       5.345  -0.087  -0.657  0.00  0.00    +0.173 C 
ATOM      6  C   UNK A   0       5.316   0.889  -1.866  0.00  0.00    +0.103 C 
ATOM      7  S   UNK A   0       6.865   0.407  -2.743  0.00  0.00    -0.131 S 
ATOM      8  C   UNK A   0       7.374  -0.969  -1.634  0.00  0.00    +0.166 C 
ATOM      9  N   UNK A   0       6.055  -1.319  -1.028  0.00  0.00    -0.269 N 
ATOM     10  C   UNK A   0       5.971  -2.662  -1.052  0.00  0.00    +0.249 C 
ATOM     11  O   UNK A   0       5.240  -3.330  -0.347  0.00  0.00    -0.270 OA
ATOM     12  C   UNK A   0       6.902  -3.200  -2.063  0.00  0.00    +0.043 A 
ATOM     13  C   UNK A   0       7.771  -2.172  -2.442  0.00  0.00    -0.005 A 
ATOM     14  C   UNK A   0       8.740  -2.399  -3.393  0.00  0.00    +0.007 A 
ATOM     15  C   UNK A   0       8.871  -3.655  -3.962  0.00  0.00    +0.000 A 
ATOM     16  C   UNK A   0       8.031  -4.685  -3.577  0.00  0.00    +0.001 A 
ATOM     17  C   UNK A   0       7.052  -4.466  -2.629  0.00  0.00    +0.013 A 
ENDBRANCH   2   5
BRANCH   1  18
ATOM     18  CA  ALA A   1       1.758   0.212   0.642  0.00  0.00    +0.162 C 
BRANCH  18  19
ATOM     19  C   ALA A   1       0.770   1.248   0.173  0.00  0.00    +0.234 C 
ATOM     20  O   ALA A   1       1.152   2.202  -0.472  0.00  0.00    -0.274 OA
ATOM     21  N   ALA A   1      -0.538   1.115   0.469  0.00  0.00    -0.309 N 
ATOM     22  H   ALA A   1      -0.856   0.314   0.913  0.00  0.00    +0.149 HD
BRANCH  21  23
ATOM     23  CA  ALA A   1      -1.481   2.180   0.116  0.00  0.00    +0.095 C 
ATOM     24  CB  ALA A   1      -1.935   1.998  -1.334  0.00  0.00    +0.030 C 
BRANCH  23  25
ATOM     25  C   ALA A   1      -2.696   2.113   1.043  0.00  0.00    +0.177 C 
BRANCH  25  26
ATOM     26  O   ALA A   1      -3.402   0.892   0.817  0.00  0.00    -0.393 OA
ATOM     27  H   ALA A   1      -4.186   0.782   1.372  0.00  0.00    +0.209 HD
ENDBRANCH  25  26
ENDBRANCH  23  25
ENDBRANCH  21  23
ENDBRANCH  18  19
BRANCH  18  28
ATOM     28  CB  ALA A   1       1.774   0.179   2.172  0.00  0.00    +0.015 C 
ATOM     29  CG2 ALA A   1       2.645  -0.985   2.648  0.00  0.00    +0.010 C 
BRANCH  28  31
ATOM     30  CD1 ALA A   1       1.377   2.636   2.391  0.00  0.00    +0.004 C 
ATOM     31  CG1 ALA A   1       2.346   1.495   2.704  0.00  0.00    +0.002 C 
ENDBRANCH  28  31
ENDBRANCH  18  28
ENDBRANCH   1  18
TORSDOF 8
