REMARK  Name = ZINC47172670
REMARK  6 active torsions:
REMARK  status: ('A' for Active; 'I' for Inactive)
REMARK    1  A    between atoms: C_1  and  C_2
REMARK    2  A    between atoms: C_2  and  C_3
REMARK    3  A    between atoms: C_2  and  N_4
REMARK    4  A    between atoms: C_9  and  C_18
REMARK    5  A    between atoms: C_11  and  C_13
REMARK    6  A    between atoms: N_20  and  C_21
REMARK                            x       y       z     vdW  Elec       q    Type
REMARK                         _______ _______ _______ _____ _____    ______ ____
ROOT
ATOM      1  N   UNL     1      -1.433  -0.355  -0.089  0.00  0.00    -0.244 N 
ATOM      2  C   UNL     1      -1.981  -1.210  -1.010  0.00  0.00    +0.160 A 
ATOM      3  C   UNL     1      -3.306  -1.447  -0.592  0.00  0.00    +0.051 A 
ATOM      4  C   UNL     1      -3.506  -0.708   0.592  0.00  0.00    +0.145 A 
ATOM      5  N   UNL     1      -2.403  -0.078   0.881  0.00  0.00    -0.177 NA
ATOM      6  C   UNL     1      -4.128  -2.305  -1.360  0.00  0.00    +0.051 A 
ATOM      7  C   UNL     1      -3.585  -2.879  -2.502  0.00  0.00    +0.042 A 
ATOM      8  C   UNL     1      -2.258  -2.591  -2.849  0.00  0.00    +0.081 A 
ATOM      9  N   UNL     1      -1.513  -1.783  -2.109  0.00  0.00    -0.227 NA
ENDROOT
BRANCH   8  10
ATOM     10  C   UNL     1      -1.679  -3.200  -4.062  0.00  0.00    +0.038 A 
ATOM     11  C   UNL     1      -0.417  -3.063  -4.579  0.00  0.00    +0.017 A 
ATOM     12  C   UNL     1      -0.100  -3.736  -5.737  0.00  0.00    +0.008 A 
ATOM     13  C   UNL     1      -1.044  -4.513  -6.330  0.00  0.00    +0.046 A 
ATOM     14  S   UNL     1      -2.438  -4.312  -5.234  0.00  0.00    -0.095 S 
ENDBRANCH   8  10
BRANCH   6  15
ATOM     15  C   UNL     1      -5.524  -2.583  -0.959  0.00  0.00    +0.245 C 
ATOM     16  O   UNL     1      -5.981  -2.071   0.045  0.00  0.00    -0.270 OA
ATOM     17  N   UNL     1      -6.290  -3.403  -1.705  0.00  0.00    -0.300 N 
ATOM     18  H   UNL     1      -5.925  -3.811  -2.506  0.00  0.00    +0.150 HD
BRANCH  17  19
ATOM     19  C   UNL     1      -7.673  -3.678  -1.308  0.00  0.00    +0.159 C 
ATOM     20  C   UNL     1      -8.187  -4.911  -2.054  0.00  0.00    +0.032 C 
ATOM     21  C   UNL     1      -7.606  -4.972  -3.455  0.00  0.00    +0.004 C 
ATOM     22  C   UNL     1      -8.084  -3.855  -4.366  0.00  0.00    +0.019 C 
ATOM     23  C   UNL     1      -7.556  -2.501  -3.891  0.00  0.00    +0.104 C 
ATOM     24  N   UNL     1      -8.484  -1.959  -2.886  0.00  0.00    -0.314 N 
ATOM     25  C   UNL     1      -8.549  -2.495  -1.663  0.00  0.00    +0.233 C 
ATOM     26  O   UNL     1      -9.313  -2.040  -0.839  0.00  0.00    -0.274 OA
ATOM     27  H   UNL     1      -9.052  -1.205  -3.111  0.00  0.00    +0.149 HD
ENDBRANCH  17  19
ENDBRANCH   6  15
BRANCH   1  29
ATOM     28  C   UNL     1      -0.108   1.699  -0.181  0.00  0.00    +0.032 C 
ATOM     29  C   UNL     1      -0.066   0.171  -0.112  0.00  0.00    +0.103 C 
ATOM     30  C   UNL     1       0.669  -0.261   1.159  0.00  0.00    +0.032 C 
ENDBRANCH   1  29
TORSDOF 4
