REMARK  Name = ZINC06930574
REMARK  6 active torsions:
REMARK  status: ('A' for Active; 'I' for Inactive)
REMARK    1  A    between atoms: C_1  and  C_2
REMARK    2  A    between atoms: C_11  and  O_26
REMARK    3  A    between atoms: C_13  and  C_16
REMARK    4  A    between atoms: C_20  and  O_23
REMARK    5  A    between atoms: C_21  and  O_22
REMARK    6  A    between atoms: O_23  and  C_24
REMARK                            x       y       z     vdW  Elec       q    Type
REMARK                         _______ _______ _______ _____ _____    ______ ____
ROOT
ATOM      1  C   UNL     1      -0.758   1.595  -1.227  0.00  0.00    +0.008 C 
ATOM      2  C   UNL     1      -0.013   1.086   0.008  0.00  0.00    -0.009 C 
ATOM      3  C   UNL     1      -0.713   1.583   1.276  0.00  0.00    +0.008 C 
ATOM      4  C   UNL     1      -0.128   0.881   2.502  0.00  0.00    +0.037 C 
ATOM      5  C   UNL     1       1.388   1.037   2.483  0.00  0.00    -0.023 A 
ATOM      6  C   UNL     1       2.035   1.367   1.341  0.00  0.00    -0.004 A 
ATOM      7  S   UNL     1       3.750   1.428   1.791  0.00  0.00    -0.078 S 
ATOM      8  C   UNL     1       3.605   1.026   3.447  0.00  0.00    +0.080 A 
ATOM      9  C   UNL     1       2.230   0.851   3.651  0.00  0.00    +0.068 A 
ATOM     10  C   UNL     1       1.788   0.482   5.020  0.00  0.00    +0.220 C 
ATOM     11  N   UNL     1       2.665   0.555   5.983  0.00  0.00    -0.223 NA
ATOM     12  C   UNL     1       4.023   1.062   5.831  0.00  0.00    +0.227 C 
ATOM     13  N   UNL     1       4.524   0.872   4.457  0.00  0.00    -0.313 N 
ATOM     14  C   UNL     1       1.427   1.620  -0.003  0.00  0.00    +0.046 C 
ATOM     15  H   UNL     1       5.582   0.623   4.287  0.00  0.00    +0.149 HD
ENDROOT
BRANCH  12  16
ATOM     16  C   UNL     1       4.039   2.532   6.161  0.00  0.00    +0.041 A 
ATOM     17  C   UNL     1       4.885   3.385   5.476  0.00  0.00    +0.031 A 
ATOM     18  C   UNL     1       4.898   4.736   5.772  0.00  0.00    +0.045 A 
ATOM     19  C   UNL     1       4.073   5.237   6.763  0.00  0.00    +0.069 A 
ATOM     20  C   UNL     1       3.227   4.387   7.456  0.00  0.00    +0.163 A 
ATOM     21  C   UNL     1       3.211   3.028   7.154  0.00  0.00    +0.165 A 
ATOM     22 CL   UNL     1       5.957   5.803   4.904  0.00  0.00    -0.083 Cl
BRANCH  21  23
ATOM     23  O   UNL     1       2.382   2.189   7.832  0.00  0.00    -0.503 OA
ATOM     24  H   UNL     1       1.725   2.584   8.620  0.00  0.00    +0.292 HD
ENDBRANCH  21  23
BRANCH  20  25
ATOM     25  O   UNL     1       2.415   4.878   8.430  0.00  0.00    -0.491 OA
ATOM     26  C   UNL     1       2.486   6.282   8.687  0.00  0.00    +0.277 C 
ENDBRANCH  20  25
ENDBRANCH  12  16
BRANCH  10  27
ATOM     27  O   UNL     1       0.517   0.085   5.261  0.00  0.00    -0.492 OA
ATOM     28  H   UNL     1       0.209  -0.184   6.282  0.00  0.00    +0.294 HD
ENDBRANCH  10  27
TORSDOF 4
