REMARK  Name = ZINC12605054
REMARK  9 active torsions:
REMARK  status: ('A' for Active; 'I' for Inactive)
REMARK    1  A    between atoms: C_1  and  O_2
REMARK    2  A    between atoms: O_2  and  C_3
REMARK    3  A    between atoms: C_3  and  C_5
REMARK    4  A    between atoms: C_5  and  C_7
REMARK    5  A    between atoms: C_5  and  N_18
REMARK    6  A    between atoms: C_7  and  C_8
REMARK    7  A    between atoms: C_19  and  C_21
REMARK    8  A    between atoms: N_27  and  S_28
REMARK    9  A    between atoms: S_28  and  C_31
REMARK                            x       y       z     vdW  Elec       q    Type
REMARK                         _______ _______ _______ _____ _____    ______ ____
ROOT
ATOM      1  N   UNL     1      -2.284   5.590  -1.534  0.00  0.00    -0.301 N 
ATOM      2  C   UNL     1      -1.672   5.062  -0.455  0.00  0.00    +0.234 C 
ATOM      3  O   UNL     1      -1.133   5.788   0.353  0.00  0.00    -0.274 OA
ATOM      4  H   UNL     1      -2.773   4.931  -2.267  0.00  0.00    +0.150 HD
ENDROOT
BRANCH   2   5
ATOM      5  C   UNL     1      -1.658   3.568  -0.253  0.00  0.00    +0.179 C 
ATOM      6  C   UNL     1      -0.215   3.088  -0.065  0.00  0.00    +0.111 C 
ATOM      7  N   UNL     1      -0.219   1.661   0.285  0.00  0.00    -0.313 NA
ATOM      8  C   UNL     1      -0.897   1.429   1.567  0.00  0.00    +0.098 C 
ATOM      9  C   UNL     1      -2.368   1.841   1.446  0.00  0.00    +0.125 C 
ATOM     10  N   UNL     1      -2.426   3.226   0.954  0.00  0.00    -0.162 NA
ATOM     11  H   UNL     1      -0.745   1.094  -0.497  0.00  0.00    +0.122 HD
BRANCH  10  12
ATOM     12  S   UNL     1      -3.331   4.369   1.738  0.00  0.00    +0.062 S 
ATOM     13  O   UNL     1      -3.449   5.473   0.851  0.00  0.00    -0.153 OA
ATOM     14  O   UNL     1      -4.463   3.696   2.271  0.00  0.00    -0.153 OA
BRANCH  12  15
ATOM     15  C   UNL     1      -2.384   4.929   3.115  0.00  0.00    +0.106 A 
ATOM     16  C   UNL     1      -2.504   4.298   4.339  0.00  0.00    +0.028 A 
ATOM     17  C   UNL     1      -1.758   4.734   5.417  0.00  0.00    +0.002 A 
ATOM     18  C   UNL     1      -0.898   5.808   5.274  0.00  0.00    +0.000 A 
ATOM     19  C   UNL     1      -0.782   6.442   4.052  0.00  0.00    +0.002 A 
ATOM     20  C   UNL     1      -1.525   6.003   2.972  0.00  0.00    +0.028 A 
ENDBRANCH  12  15
ENDBRANCH  10  12
ENDBRANCH   2   5
BRANCH   1  21
ATOM     21  C   UNL     1      -2.297   7.042  -1.730  0.00  0.00    +0.186 C 
BRANCH  21  22
ATOM     22  C   UNL     1      -1.028   7.467  -2.422  0.00  0.00    +0.328 C 
ATOM     23  O   UNL     1      -0.197   6.642  -2.720  0.00  0.00    -0.249 OA
BRANCH  22  25
ATOM     24  C   UNL     1       0.425   9.099  -3.373  0.00  0.00    +0.280 C 
ATOM     25  O   UNL     1      -0.820   8.762  -2.706  0.00  0.00    -0.467 OA
ENDBRANCH  22  25
ENDBRANCH  21  22
BRANCH  21  26
ATOM     26  C   UNL     1      -3.501   7.429  -2.592  0.00  0.00    +0.071 C 
BRANCH  26  27
ATOM     27  C   UNL     1      -4.773   7.115  -1.847  0.00  0.00    -0.020 A 
ATOM     28  C   UNL     1      -5.506   5.996  -1.954  0.00  0.00    +0.087 A 
ATOM     29  N   UNL     1      -6.592   6.067  -1.124  0.00  0.00    -0.360 N 
ATOM     30  H   UNL     1      -7.308   5.233  -1.082  0.00  0.00    +0.165 HD
ATOM     31  C   UNL     1      -6.584   7.265  -0.445  0.00  0.00    +0.047 A 
ATOM     32  C   UNL     1      -5.441   7.971  -0.864  0.00  0.00    +0.003 A 
ATOM     33  C   UNL     1      -5.174   9.237  -0.339  0.00  0.00    +0.010 A 
ATOM     34  C   UNL     1      -6.020   9.780   0.587  0.00  0.00    +0.001 A 
ATOM     35  C   UNL     1      -7.146   9.085   1.007  0.00  0.00    +0.002 A 
ATOM     36  C   UNL     1      -7.431   7.836   0.499  0.00  0.00    +0.026 A 
ENDBRANCH  26  27
ENDBRANCH  21  26
ENDBRANCH   1  21
TORSDOF 8
