REMARK  Name = ZINC04529371
REMARK  4 active torsions:
REMARK  status: ('A' for Active; 'I' for Inactive)
REMARK    1  A    between atoms: C_1  and  C_2
REMARK    2  A    between atoms: C_2  and  O_4
REMARK    3  A    between atoms: O_4  and  C_5
REMARK    4  A    between atoms: C_21  and  O_22
REMARK                            x       y       z     vdW  Elec       q    Type
REMARK                         _______ _______ _______ _____ _____    ______ ____
ROOT
ATOM      1  C   UNL     1      -1.057  -2.117   0.001  0.00  0.00    +0.210 C 
ATOM      2  C   UNL     1      -0.996  -2.616   1.414  0.00  0.00    +0.013 C 
ATOM      3  C   UNL     1      -1.994  -3.167   2.026  0.00  0.00    -0.027 C 
ATOM      4  C   UNL     1      -3.339  -3.397   1.409  0.00  0.00    +0.039 C 
ATOM      5  C   UNL     1      -3.517  -2.529   0.158  0.00  0.00    +0.078 C 
ATOM      6  C   UNL     1      -2.267  -2.695  -0.724  0.00  0.00    +0.116 C 
ATOM      7  C   UNL     1      -2.071  -4.171  -0.985  0.00  0.00    +0.175 C 
ATOM      8  O   UNL     1      -0.985  -4.693  -0.844  0.00  0.00    -0.291 OA
ATOM      9  C   UNL     1      -3.241  -4.954  -1.417  0.00  0.00    +0.070 A 
ATOM     10  C   UNL     1      -4.537  -4.414  -1.247  0.00  0.00    +0.032 A 
ATOM     11  C   UNL     1      -5.645  -5.142  -1.661  0.00  0.00    +0.012 A 
ATOM     12  C   UNL     1      -5.475  -6.394  -2.231  0.00  0.00    +0.004 A 
ATOM     13  C   UNL     1      -4.214  -6.929  -2.395  0.00  0.00    +0.046 A 
ATOM     14  C   UNL     1      -3.087  -6.218  -1.992  0.00  0.00    +0.128 A 
ATOM     15  C   UNL     1      -4.693  -3.085  -0.628  0.00  0.00    +0.168 C 
ATOM     16  O   UNL     1      -5.725  -2.458  -0.740  0.00  0.00    -0.292 OA
ENDROOT
BRANCH  14  17
ATOM     17  O   UNL     1      -1.850  -6.747  -2.155  0.00  0.00    -0.506 OA
ATOM     18  H   UNL     1      -1.543  -7.271  -1.403  0.00  0.00    +0.292 HD
ENDBRANCH  14  17
BRANCH   1  19
ATOM     19  O   UNL     1      -1.151  -0.691   0.009  0.00  0.00    -0.457 OA
BRANCH  19  21
ATOM     20  C   UNL     1      -0.018   1.503   0.010  0.00  0.00    +0.136 C 
ATOM     21  C   UNL     1       0.002  -0.004   0.002  0.00  0.00    +0.305 C 
ATOM     22  O   UNL     1       1.056  -0.594  -0.011  0.00  0.00    -0.251 OA
ENDBRANCH  19  21
ENDBRANCH   1  19
TORSDOF 3
