REMARK  Name = ZINC06813077
REMARK  7 active torsions:
REMARK  status: ('A' for Active; 'I' for Inactive)
REMARK    1  A    between atoms: C_1  and  C_2
REMARK    2  A    between atoms: C_5  and  C_8
REMARK    3  A    between atoms: C_8  and  C_10
REMARK    4  A    between atoms: N_14  and  C_24
REMARK    5  A    between atoms: C_15  and  C_17
REMARK    6  A    between atoms: C_20  and  O_23
REMARK    7  A    between atoms: C_24  and  C_25
REMARK                            x       y       z     vdW  Elec       q    Type
REMARK                         _______ _______ _______ _____ _____    ______ ____
ROOT
ATOM      1  C   UNL     1      -1.363   1.923  -0.134  0.00  0.00    +0.076 C 
ATOM      2  C   UNL     1      -2.599   1.371  -0.167  0.00  0.00    +0.249 C 
ATOM      3  C   UNL     1      -3.605   2.443  -0.321  0.00  0.00    +0.288 C 
ATOM      4  O   UNL     1      -4.806   2.269  -0.384  0.00  0.00    -0.266 OA
ATOM      5  N   UNL     1      -2.994   3.641  -0.383  0.00  0.00    -0.276 N 
ATOM      6  C   UNL     1      -1.549   3.417  -0.265  0.00  0.00    +0.145 C 
ATOM      7  O   UNL     1      -2.870   0.050  -0.072  0.00  0.00    -0.282 OA
ENDROOT
BRANCH   6   8
ATOM      8  C   UNL     1      -0.847   3.920  -1.500  0.00  0.00    -0.022 A 
ATOM      9  C   UNL     1      -1.464   3.819  -2.733  0.00  0.00    +0.009 A 
ATOM     10  C   UNL     1      -0.825   4.285  -3.866  0.00  0.00    +0.046 A 
ATOM     11  C   UNL     1       0.441   4.843  -3.767  0.00  0.00    +0.117 A 
ATOM     12  C   UNL     1       1.060   4.939  -2.529  0.00  0.00    +0.046 A 
ATOM     13  C   UNL     1       0.414   4.477  -1.399  0.00  0.00    +0.009 A 
BRANCH  11  14
ATOM     14  O   UNL     1       1.073   5.298  -4.881  0.00  0.00    -0.507 OA
ATOM     15  H   UNL     1       2.077   5.741  -4.801  0.00  0.00    +0.292 HD
ENDBRANCH  11  14
ENDBRANCH   6   8
BRANCH   1  16
ATOM     16  C   UNL     1      -0.090   1.210   0.008  0.00  0.00    +0.195 C 
ATOM     17  O   UNL     1       0.297   0.475  -0.881  0.00  0.00    -0.287 OA
BRANCH  16  22
ATOM     18  C   UNL     1       3.085   1.904   4.758  0.00  0.00    +0.044 C 
ATOM     19  C   UNL     1       2.253   1.722   3.514  0.00  0.00    -0.050 A 
ATOM     20  C   UNL     1       2.657   0.825   2.541  0.00  0.00    +0.004 A 
ATOM     21  C   UNL     1       1.901   0.653   1.400  0.00  0.00    +0.012 A 
ATOM     22  C   UNL     1       0.725   1.388   1.228  0.00  0.00    +0.022 A 
ATOM     23  C   UNL     1       0.327   2.295   2.212  0.00  0.00    +0.012 A 
ATOM     24  C   UNL     1       1.090   2.453   3.350  0.00  0.00    +0.004 A 
ENDBRANCH  16  22
ENDBRANCH   1  16
BRANCH   5  25
ATOM     25  C   UNL     1      -3.656   4.939  -0.534  0.00  0.00    +0.183 C 
BRANCH  25  26
ATOM     26  C   UNL     1      -3.974   5.502   0.827  0.00  0.00    +0.122 A 
ATOM     27  C   UNL     1      -3.168   6.294   1.558  0.00  0.00    +0.046 A 
ATOM     28  C   UNL     1      -3.858   6.585   2.757  0.00  0.00    +0.041 A 
ATOM     29  C   UNL     1      -5.044   5.953   2.688  0.00  0.00    +0.195 A 
ATOM     30  O   UNL     1      -5.111   5.304   1.514  0.00  0.00    -0.466 OA
ENDBRANCH  25  26
ENDBRANCH   5  25
TORSDOF 6
