REMARK  Name = ZINC35099709
REMARK  12 active torsions:
REMARK  status: ('A' for Active; 'I' for Inactive)
REMARK    1  A    between atoms: C_1  and  C_2
REMARK    2  A    between atoms: C_2  and  C_3
REMARK    3  A    between atoms: C_2  and  C_4
REMARK    4  A    between atoms: C_8  and  C_36
REMARK    5  A    between atoms: C_9  and  N_10
REMARK    6  A    between atoms: N_13  and  C_14
REMARK    7  A    between atoms: N_13  and  C_26
REMARK    8  A    between atoms: C_14  and  C_15
REMARK    9  A    between atoms: C_15  and  C_16
REMARK   10  A    between atoms: C_26  and  C_27
REMARK   11  A    between atoms: C_36  and  C_37
REMARK   12  A    between atoms: C_36  and  C_38
REMARK                            x       y       z     vdW  Elec       q    Type
REMARK                         _______ _______ _______ _____ _____    ______ ____
ROOT
ATOM      1  N   UNL     1      -1.536  -0.130   2.015  0.00  0.00    -0.269 N 
ATOM      2  C   UNL     1      -2.484  -1.036   2.327  0.00  0.00    +0.307 C 
ATOM      3  O   UNL     1      -2.163  -2.137   2.729  0.00  0.00    -0.252 OA
ATOM      4  N   UNL     1      -3.788  -0.720   2.194  0.00  0.00    -0.281 N 
ATOM      5  H   UNL     1      -1.792   0.760   1.727  0.00  0.00    +0.156 HD
ENDROOT
BRANCH   1  11
ATOM      6  C   UNL     1       0.622  -0.437   0.975  0.00  0.00    -0.023 A 
ATOM      7  C   UNL     1       1.959  -0.771   1.069  0.00  0.00    +0.006 A 
ATOM      8  C   UNL     1       2.495  -1.148   2.288  0.00  0.00    +0.001 A 
ATOM      9  C   UNL     1       1.694  -1.192   3.414  0.00  0.00    +0.006 A 
ATOM     10  C   UNL     1       0.357  -0.859   3.326  0.00  0.00    -0.023 A 
ATOM     11  C   UNL     1      -0.183  -0.474   2.106  0.00  0.00    +0.042 A 
BRANCH   6  13
ATOM     12  C   UNL     1       0.773   1.212  -0.871  0.00  0.00    +0.012 C 
ATOM     13  C   UNL     1       0.039  -0.027  -0.352  0.00  0.00    +0.015 C 
ATOM     14  C   UNL     1       0.200  -1.171  -1.355  0.00  0.00    +0.012 C 
ENDBRANCH   6  13
BRANCH  10  15
ATOM     15  C   UNL     1      -0.515  -0.907   4.555  0.00  0.00    +0.015 C 
ATOM     16  C   UNL     1       0.096  -1.869   5.576  0.00  0.00    +0.012 C 
ATOM     17  C   UNL     1      -0.613   0.491   5.166  0.00  0.00    +0.012 C 
ENDBRANCH  10  15
ENDBRANCH   1  11
BRANCH   4  18
ATOM     18  C   UNL     1      -4.818  -1.705   2.533  0.00  0.00    +0.114 C 
BRANCH  18  19
ATOM     19  C   UNL     1      -5.197  -1.558   4.008  0.00  0.00    +0.056 C 
BRANCH  19  20
ATOM     20  C   UNL     1      -6.257  -2.571   4.357  0.00  0.00    -0.021 A 
ATOM     21  C   UNL     1      -7.584  -2.370   4.358  0.00  0.00    +0.087 A 
ATOM     22  N   UNL     1      -8.230  -3.518   4.728  0.00  0.00    -0.360 N 
ATOM     23  H   UNL     1      -9.192  -3.617   4.802  0.00  0.00    +0.165 HD
ATOM     24  C   UNL     1      -7.311  -4.512   4.981  0.00  0.00    +0.047 A 
ATOM     25  C   UNL     1      -6.035  -3.964   4.753  0.00  0.00    +0.003 A 
ATOM     26  C   UNL     1      -4.897  -4.753   4.928  0.00  0.00    +0.010 A 
ATOM     27  C   UNL     1      -5.028  -6.057   5.316  0.00  0.00    +0.001 A 
ATOM     28  C   UNL     1      -6.285  -6.603   5.538  0.00  0.00    +0.002 A 
ATOM     29  C   UNL     1      -7.421  -5.839   5.380  0.00  0.00    +0.026 A 
ENDBRANCH  19  20
ENDBRANCH  18  19
ENDBRANCH   4  18
BRANCH   4  30
ATOM     30  C   UNL     1      -4.174   0.608   1.709  0.00  0.00    +0.144 C 
BRANCH  30  31
ATOM     31  C   UNL     1      -4.286   0.581   0.207  0.00  0.00    -0.026 A 
ATOM     32  C   UNL     1      -3.181   0.866  -0.573  0.00  0.00    +0.009 A 
ATOM     33  C   UNL     1      -3.279   0.843  -1.951  0.00  0.00    +0.050 A 
ATOM     34  C   UNL     1      -4.486   0.533  -2.555  0.00  0.00    +0.166 A 
ATOM     35  C   UNL     1      -5.600   0.246  -1.770  0.00  0.00    +0.167 A 
ATOM     36  C   UNL     1      -5.493   0.266  -0.389  0.00  0.00    +0.054 A 
ATOM     37  O   UNL     1      -6.656  -0.024  -2.593  0.00  0.00    -0.453 OA
ATOM     38  C   UNL     1      -6.283   0.500  -3.881  0.00  0.00    +0.466 C 
ATOM     39  O   UNL     1      -4.844   0.444  -3.870  0.00  0.00    -0.453 OA
ENDBRANCH  30  31
ENDBRANCH   4  30
TORSDOF 8
