REMARK  Name = ZINC14158037
REMARK  11 active torsions:
REMARK  status: ('A' for Active; 'I' for Inactive)
REMARK    1  A    between atoms: C_1  and  C_2
REMARK    2  A    between atoms: C_7  and  N_8
REMARK    3  A    between atoms: N_8  and  C_9
REMARK    4  A    between atoms: C_9  and  N_11
REMARK    5  A    between atoms: C_16  and  C_21
REMARK    6  A    between atoms: C_18  and  C_20
REMARK    7  A    between atoms: N_22  and  C_23
REMARK    8  A    between atoms: C_25  and  C_31
REMARK    9  A    between atoms: C_25  and  C_32
REMARK   10  A    between atoms: C_27  and  C_29
REMARK   11  A    between atoms: C_27  and  C_30
REMARK                            x       y       z     vdW  Elec       q    Type
REMARK                         _______ _______ _______ _____ _____    ______ ____
ROOT
ATOM      1  N   UNL     1       0.916  -0.143   5.806  0.00  0.00    -0.159 NA
ATOM      2  C   UNL     1      -0.222  -0.758   6.077  0.00  0.00    +0.196 C 
ATOM      3  N   UNL     1      -0.271  -2.125   6.107  0.00  0.00    -0.297 N 
ATOM      4  C   UNL     1      -0.100  -2.851   4.935  0.00  0.00    +0.231 A 
ATOM      5  N   UNL     1       0.151  -2.206   3.806  0.00  0.00    -0.217 NA
ATOM      6  C   UNL     1       0.318  -2.867   2.673  0.00  0.00    +0.044 A 
ATOM      7  C   UNL     1       0.229  -4.250   2.677  0.00  0.00    +0.046 A 
ATOM      8  C   UNL     1      -0.035  -4.893   3.877  0.00  0.00    +0.044 A 
ATOM      9  N   UNL     1      -0.187  -4.172   4.975  0.00  0.00    -0.217 NA
ATOM     10  C   UNL     1      -0.142  -6.396   3.930  0.00  0.00    +0.066 C 
ATOM     11  C   UNL     1       0.603  -2.126   1.392  0.00  0.00    +0.066 C 
ATOM     12  N   UNL     1      -1.348  -0.029   6.329  0.00  0.00    -0.355 N 
ATOM     13  H   UNL     1      -0.425  -2.587   6.946  0.00  0.00    +0.171 HD
ATOM     14  H   UNL     1      -1.331   0.937   6.239  0.00  0.00    +0.163 HD
ENDROOT
BRANCH  12  15
ATOM     15  C   UNL     1      -2.586  -0.707   6.735  0.00  0.00    +0.079 C 
ATOM     16  C   UNL     1      -3.328  -1.189   5.487  0.00  0.00    +0.011 C 
ATOM     17  C   UNL     1      -4.625  -1.887   5.893  0.00  0.00    -0.071 C 
ATOM     18  N   UNL     1      -5.455  -1.049   6.746  0.00  0.00    +0.386 N 
ATOM     19  C   UNL     1      -4.809  -0.367   7.856  0.00  0.00    -0.071 C 
ATOM     20  C   UNL     1      -3.484   0.284   7.474  0.00  0.00    +0.011 C 
ATOM     21  C   UNL     1      -5.758   0.763   8.322  0.00  0.00    -0.010 C 
ATOM     22  C   UNL     1      -4.606  -1.300   9.053  0.00  0.00    -0.010 C 
ATOM     23  C   UNL     1      -4.320  -3.239   6.537  0.00  0.00    -0.010 C 
ATOM     24  C   UNL     1      -5.421  -2.166   4.597  0.00  0.00    -0.010 C 
ATOM     25  H   UNL     1      -5.912  -0.346   6.159  0.00  0.00    -0.084 HD
ATOM     26  H   UNL     1      -6.215  -1.622   7.118  0.00  0.00    -0.084 HD
ENDBRANCH  12  15
BRANCH   1  27
ATOM     27  C   UNL     1       2.063  -0.837   5.774  0.00  0.00    +0.161 C 
ATOM     28  S   UNL     1       2.061  -2.510   6.140  0.00  0.00    -0.016 S 
BRANCH  27  29
ATOM     29  N   UNL     1       3.216  -0.219   5.452  0.00  0.00    -0.295 N 
ATOM     30  H   UNL     1       3.230   0.740   5.311  0.00  0.00    +0.154 HD
BRANCH  29  37
ATOM     31  C   UNL     1       4.839   0.228   3.158  0.00  0.00    +0.045 C 
ATOM     32  C   UNL     1       5.216  -0.775   4.218  0.00  0.00    -0.029 A 
ATOM     33  C   UNL     1       6.381  -1.506   4.095  0.00  0.00    +0.005 A 
ATOM     34  C   UNL     1       6.728  -2.426   5.067  0.00  0.00    +0.000 A 
ATOM     35  C   UNL     1       5.910  -2.618   6.165  0.00  0.00    +0.002 A 
ATOM     36  C   UNL     1       4.743  -1.890   6.294  0.00  0.00    +0.023 A 
ATOM     37  C   UNL     1       4.394  -0.961   5.322  0.00  0.00    +0.036 A 
ENDBRANCH  29  37
ENDBRANCH  27  29
ENDBRANCH   1  27
TORSDOF 4
