REMARK  Name = ZINC36740070
REMARK  7 active torsions:
REMARK  status: ('A' for Active; 'I' for Inactive)
REMARK    1  A    between atoms: C_1  and  C_2
REMARK    2  A    between atoms: C_2  and  N_3
REMARK    3  A    between atoms: C_5  and  C_9
REMARK    4  A    between atoms: C_6  and  C_8
REMARK    5  A    between atoms: C_9  and  N_10
REMARK    6  A    between atoms: C_28  and  C_31
REMARK    7  A    between atoms: C_31  and  O_32
REMARK                            x       y       z     vdW  Elec       q    Type
REMARK                         _______ _______ _______ _____ _____    ______ ____
ROOT
ATOM      1  N   UNL     1      -5.054  -1.670  -2.082  0.00  0.00    +0.389 N 
ATOM      2  C   UNL     1      -6.036  -2.528  -2.796  0.00  0.00    -0.062 C 
ATOM      3  C   UNL     1      -6.495  -1.686  -4.001  0.00  0.00    -0.016 C 
ATOM      4  C   UNL     1      -5.374  -0.648  -4.220  0.00  0.00    -0.012 C 
ATOM      5  C   UNL     1      -4.282  -1.043  -3.190  0.00  0.00    -0.034 C 
ATOM      6  C   UNL     1      -3.480  -2.148  -3.841  0.00  0.00    -0.021 A 
ATOM      7  C   UNL     1      -2.241  -1.881  -4.394  0.00  0.00    +0.118 A 
ATOM      8  N   UNL     1      -1.570  -2.870  -4.964  0.00  0.00    -0.223 NA
ATOM      9  C   UNL     1      -2.078  -4.093  -5.004  0.00  0.00    +0.218 A 
ATOM     10  N   UNL     1      -3.260  -4.377  -4.479  0.00  0.00    -0.219 NA
ATOM     11  C   UNL     1      -3.981  -3.434  -3.888  0.00  0.00    +0.046 A 
ATOM     12  C   UNL     1      -5.312  -3.792  -3.260  0.00  0.00    +0.040 C 
ATOM     13  N   UNL     1      -1.352  -5.103  -5.612  0.00  0.00    -0.299 N 
ATOM     14  C   UNL     1      -1.885  -6.471  -5.681  0.00  0.00    +0.108 C 
ATOM     15  C   UNL     1      -1.864  -6.935  -7.140  0.00  0.00    +0.019 C 
ATOM     16  C   UNL     1      -0.447  -6.784  -7.699  0.00  0.00    +0.009 C 
ATOM     17  C   UNL     1      -0.034  -5.311  -7.654  0.00  0.00    +0.032 C 
ATOM     18  C   UNL     1      -0.037  -4.827  -6.206  0.00  0.00    +0.113 C 
ATOM     19  H   UNL     1      -5.526  -0.966  -1.534  0.00  0.00    -0.080 HD
ENDROOT
BRANCH   1  20
ATOM     20  C   UNL     1      -4.174  -2.485  -1.233  0.00  0.00    -0.038 C 
BRANCH  20  23
ATOM     21  N   UNL     1      -1.372  -0.511   0.012  0.00  0.00    -0.271 N 
ATOM     22  C   UNL     1      -1.907  -1.373  -0.878  0.00  0.00    +0.110 A 
ATOM     23  C   UNL     1      -3.194  -1.589  -0.520  0.00  0.00    -0.024 A 
ATOM     24  C   UNL     1      -3.455  -0.834   0.628  0.00  0.00    +0.061 A 
ATOM     25  N   UNL     1      -2.361  -0.192   0.952  0.00  0.00    -0.176 NA
ATOM     26  C   UNL     1      -4.766  -0.775   1.369  0.00  0.00    +0.068 C 
BRANCH  21  28
ATOM     27  C   UNL     1      -0.019   1.526   0.010  0.00  0.00    +0.029 C 
ATOM     28  C   UNL     1       0.002  -0.004   0.002  0.00  0.00    +0.140 C 
ENDBRANCH  21  28
ENDBRANCH  20  23
ENDBRANCH   1  20
BRANCH  17  29
ATOM     29  C   UNL     1       1.370  -5.156  -8.244  0.00  0.00    +0.160 C 
BRANCH  29  30
ATOM     30  O   UNL     1       1.708  -3.770  -8.310  0.00  0.00    -0.395 OA
ATOM     31  H   UNL     1       2.587  -3.596  -8.674  0.00  0.00    +0.209 HD
ENDBRANCH  29  30
ENDBRANCH  17  29
TORSDOF 5
