REMARK  Name = ZINC14012539
REMARK  7 active torsions:
REMARK  status: ('A' for Active; 'I' for Inactive)
REMARK    1  A    between atoms: C_1  and  C_2
REMARK    2  A    between atoms: C_2  and  C_3
REMARK    3  A    between atoms: C_2  and  C_4
REMARK    4  A    between atoms: C_7  and  N_10
REMARK    5  A    between atoms: C_11  and  C_13
REMARK    6  A    between atoms: C_13  and  C_14
REMARK    7  A    between atoms: N_25  and  C_28
REMARK                            x       y       z     vdW  Elec       q    Type
REMARK                         _______ _______ _______ _____ _____    ______ ____
ROOT
ATOM      1  C   UNL     1       4.389   5.693   0.049  0.00  0.00    +0.112 C 
ATOM      2  C   UNL     1       5.729   6.438   0.127  0.00  0.00    +0.103 C 
ATOM      3  S   UNL     1       5.670   7.433  -1.409  0.00  0.00    -0.085 S 
ATOM      4  C   UNL     1       4.086   6.907  -2.032  0.00  0.00    +0.174 A 
ATOM      5  N   UNL     1       3.588   6.008  -1.133  0.00  0.00    -0.283 N 
ATOM      6  C   UNL     1       2.360   5.460  -1.405  0.00  0.00    +0.266 A 
ATOM      7  O   UNL     1       1.868   4.651  -0.637  0.00  0.00    -0.267 OA
ATOM      8  C   UNL     1       1.668   5.833  -2.577  0.00  0.00    +0.103 A 
ATOM      9  C   UNL     1       0.426   5.473  -3.144  0.00  0.00    +0.150 A 
ATOM     10  N   UNL     1       0.274   6.130  -4.260  0.00  0.00    -0.172 NA
ATOM     11  N   UNL     1       1.392   6.944  -4.480  0.00  0.00    -0.214 N 
ATOM     12  C   UNL     1       2.259   6.766  -3.445  0.00  0.00    +0.171 A 
ATOM     13  N   UNL     1       3.456   7.268  -3.127  0.00  0.00    -0.203 NA
ENDROOT
BRANCH  11  14
ATOM     14  C   UNL     1       1.586   7.794  -5.577  0.00  0.00    +0.068 A 
ATOM     15  C   UNL     1       2.244   9.006  -5.410  0.00  0.00    +0.030 A 
ATOM     16  C   UNL     1       2.438   9.840  -6.494  0.00  0.00    +0.040 A 
ATOM     17  C   UNL     1       1.968   9.474  -7.744  0.00  0.00    +0.124 A 
ATOM     18  C   UNL     1       1.307   8.268  -7.911  0.00  0.00    +0.040 A 
ATOM     19  C   UNL     1       1.116   7.429  -6.832  0.00  0.00    +0.030 A 
ATOM     20  F   UNL     1       2.155  10.293  -8.801  0.00  0.00    -0.205 F 
ENDBRANCH  11  14
BRANCH   1  21
ATOM     21  C   UNL     1       4.670   4.189   0.058  0.00  0.00    +0.122 C 
BRANCH  21  23
ATOM     22  N   UNL     1       5.697   2.536   1.585  0.00  0.00    -0.285 N 
ATOM     23  C   UNL     1       5.261   3.796   1.387  0.00  0.00    +0.219 C 
ATOM     24  O   UNL     1       5.343   4.613   2.280  0.00  0.00    -0.275 OA
ATOM     25  H   UNL     1       5.694   1.901   0.851  0.00  0.00    +0.155 HD
BRANCH  22  29
ATOM     26  C   UNL     1       7.061   1.369   5.344  0.00  0.00    -0.045 A 
ATOM     27  C   UNL     1       7.298   2.654   4.893  0.00  0.00    +0.006 A 
ATOM     28  C   UNL     1       6.848   3.044   3.647  0.00  0.00    +0.023 A 
ATOM     29  C   UNL     1       6.155   2.144   2.848  0.00  0.00    +0.033 A 
ATOM     30  C   UNL     1       5.919   0.854   3.304  0.00  0.00    +0.023 A 
ATOM     31  C   UNL     1       6.372   0.470   4.551  0.00  0.00    +0.006 A 
BRANCH  26  33
ATOM     32  C   UNL     1       6.365   0.524   7.570  0.00  0.00    +0.012 C 
ATOM     33  C   UNL     1       7.554   0.947   6.705  0.00  0.00    +0.013 C 
ATOM     34  C   UNL     1       8.519  -0.230   6.554  0.00  0.00    +0.012 C 
ENDBRANCH  26  33
ENDBRANCH  22  29
ENDBRANCH  21  23
ENDBRANCH   1  21
TORSDOF 5
