REMARK  Name = ZINC20984042
REMARK  4 active torsions:
REMARK  status: ('A' for Active; 'I' for Inactive)
REMARK    1  A    between atoms: C_3  and  C_6
REMARK    2  A    between atoms: C_12  and  S_14
REMARK    3  A    between atoms: S_14  and  C_15
REMARK    4  A    between atoms: C_15  and  C_16
REMARK                            x       y       z     vdW  Elec       q    Type
REMARK                         _______ _______ _______ _____ _____    ______ ____
ROOT
ATOM      1  C   UNL     1       1.937 -11.426  -1.123  0.00  0.00    +0.285 C 
ATOM      2  O   UNL     1       1.597 -11.134   0.009  0.00  0.00    -0.266 OA
ATOM      3  N   UNL     1       2.043 -10.465  -2.062  0.00  0.00    -0.257 N 
ATOM      4  C   UNL     1       1.766  -9.141  -1.738  0.00  0.00    +0.189 A 
ATOM      5  N   UNL     1       1.387  -8.625  -0.585  0.00  0.00    -0.125 NA
ATOM      6  N   UNL     1       1.162  -7.271  -0.482  0.00  0.00    -0.133 NA
ATOM      7  C   UNL     1       1.326  -6.496  -1.538  0.00  0.00    +0.160 A 
ATOM      8  S   UNL     1       1.817  -7.687  -2.775  0.00  0.00    -0.024 S 
ATOM      9  H   UNL     1       2.350 -10.729  -3.085  0.00  0.00    +0.157 HD
ENDROOT
BRANCH   1  12
ATOM     10  C   UNL     1       2.522 -15.021  -1.357  0.00  0.00    +0.042 A 
ATOM     11  C   UNL     1       2.162 -13.887  -0.613  0.00  0.00    +0.054 A 
ATOM     12  C   UNL     1       2.230 -12.821  -1.464  0.00  0.00    +0.189 A 
ATOM     13  O   UNL     1       2.608 -13.278  -2.676  0.00  0.00    -0.458 OA
ATOM     14  C   UNL     1       2.791 -14.604  -2.614  0.00  0.00    +0.196 A 
ENDBRANCH   1  12
BRANCH   7  15
ATOM     15  S   UNL     1       1.111  -4.754  -1.688  0.00  0.00    -0.091 S 
BRANCH  15  16
ATOM     16  C   UNL     1       0.600  -4.230  -0.028  0.00  0.00    +0.132 C 
BRANCH  16  17
ATOM     17  C   UNL     1       0.379  -2.739  -0.018  0.00  0.00    +0.059 A 
ATOM     18  C   UNL     1      -0.897  -2.219  -0.003  0.00  0.00    +0.095 A 
ATOM     19  C   UNL     1      -1.082  -0.836   0.007  0.00  0.00    +0.259 A 
ATOM     20  O   UNL     1      -2.210  -0.370   0.021  0.00  0.00    -0.267 OA
ATOM     21  N   UNL     1       0.002  -0.004   0.002  0.00  0.00    -0.262 N 
ATOM     22  C   UNL     1      -0.017   1.370   0.010  0.00  0.00    +0.104 A 
ATOM     23  C   UNL     1       1.115   2.074   0.003  0.00  0.00    +0.067 A 
ATOM     24  S   UNL     1       2.349   0.782  -0.015  0.00  0.00    -0.058 S 
ATOM     25  C   UNL     1       1.233  -0.605  -0.013  0.00  0.00    +0.180 A 
ATOM     26  N   UNL     1       1.413  -1.902  -0.022  0.00  0.00    -0.227 NA
ENDBRANCH  16  17
ENDBRANCH  15  16
ENDBRANCH   7  15
TORSDOF 4
