REMARK  Name = ZINC12052430
REMARK  6 active torsions:
REMARK  status: ('A' for Active; 'I' for Inactive)
REMARK    1  A    between atoms: C_6  and  C_11
REMARK    2  A    between atoms: C_11  and  C_12
REMARK    3  A    between atoms: C_12  and  C_18
REMARK    4  A    between atoms: C_18  and  C_19
REMARK    5  A    between atoms: C_19  and  C_20
REMARK    6  A    between atoms: C_26  and  C_28
REMARK                            x       y       z     vdW  Elec       q    Type
REMARK                         _______ _______ _______ _____ _____    ______ ____
ROOT
ATOM      1  C   UNL     1      -2.209   1.800   0.655  0.00  0.00    +0.039 C 
ATOM      2  C   UNL     1      -0.787   1.610   1.239  0.00  0.00    +0.035 C 
ATOM      3  C   UNL     1      -0.013   1.086   0.008  0.00  0.00    +0.098 C 
ATOM      4  C   UNL     1      -0.793   1.611  -1.176  0.00  0.00    +0.214 C 
ATOM      5  O   UNL     1      -0.377   1.667  -2.314  0.00  0.00    -0.276 OA
ATOM      6  N   UNL     1      -2.016   2.009  -0.784  0.00  0.00    -0.309 N 
ATOM      7  H   UNL     1      -2.685   2.386  -1.377  0.00  0.00    +0.149 HD
ENDROOT
BRANCH   1   8
ATOM      8  C   UNL     1      -3.054   0.548   0.900  0.00  0.00    +0.061 C 
BRANCH   8  14
ATOM      9  C   UNL     1      -0.685  -4.329  -2.608  0.00  0.00    +0.001 A 
ATOM     10  C   UNL     1      -1.582  -3.596  -3.384  0.00  0.00    +0.001 A 
ATOM     11  C   UNL     1      -2.223  -2.509  -2.874  0.00  0.00    +0.008 A 
ATOM     12  C   UNL     1      -1.980  -2.117  -1.547  0.00  0.00    -0.018 A 
ATOM     13  C   UNL     1      -2.627  -1.003  -0.985  0.00  0.00    +0.012 A 
ATOM     14  C   UNL     1      -2.362  -0.650   0.302  0.00  0.00    -0.045 A 
ATOM     15  C   UNL     1      -1.466  -1.383   1.078  0.00  0.00    +0.004 A 
ATOM     16  C   UNL     1      -0.825  -2.470   0.569  0.00  0.00    +0.009 A 
ATOM     17  C   UNL     1      -1.068  -2.862  -0.759  0.00  0.00    -0.018 A 
ATOM     18  C   UNL     1      -0.425  -3.979  -1.319  0.00  0.00    +0.008 A 
ENDBRANCH   8  14
ENDBRANCH   1   8
BRANCH   1  19
ATOM     19  C   UNL     1      -2.881   3.023   1.283  0.00  0.00    +0.035 C 
BRANCH  19  20
ATOM     20  C   UNL     1      -4.258   3.229   0.649  0.00  0.00    +0.098 C 
BRANCH  20  21
ATOM     21  C   UNL     1      -4.920   4.433   1.267  0.00  0.00    +0.216 C 
ATOM     22  O   UNL     1      -4.347   5.065   2.129  0.00  0.00    -0.276 OA
ATOM     23  N   UNL     1      -6.150   4.809   0.861  0.00  0.00    -0.291 N 
ATOM     24  C   UNL     1      -6.957   4.135  -0.172  0.00  0.00    +0.108 C 
ATOM     25  C   UNL     1      -7.921   5.227  -0.697  0.00  0.00    +0.021 C 
ATOM     26  C   UNL     1      -8.242   6.010   0.603  0.00  0.00    +0.032 C 
ATOM     27  C   UNL     1      -6.911   5.954   1.381  0.00  0.00    +0.144 C 
BRANCH  27  28
ATOM     28  C   UNL     1      -7.180   5.766   2.852  0.00  0.00    +0.152 A 
ATOM     29  N   UNL     1      -7.947   6.593   3.636  0.00  0.00    -0.292 N 
ATOM     30  H   UNL     1      -8.405   7.395   3.338  0.00  0.00    +0.172 HD
ATOM     31  C   UNL     1      -7.954   6.101   4.891  0.00  0.00    +0.342 A 
ATOM     32  O   UNL     1      -8.533   6.579   5.850  0.00  0.00    -0.245 OA
ATOM     33  N   UNL     1      -7.202   4.981   4.889  0.00  0.00    -0.227 N 
ATOM     34  H   UNL     1      -7.022   4.407   5.651  0.00  0.00    +0.194 HD
ATOM     35  N   UNL     1      -6.732   4.796   3.581  0.00  0.00    -0.155 NA
ENDBRANCH  27  28
ENDBRANCH  20  21
ENDBRANCH  19  20
ENDBRANCH   1  19
TORSDOF 6
