REMARK  Name = ZINC44421332
REMARK  6 active torsions:
REMARK  status: ('A' for Active; 'I' for Inactive)
REMARK    1  A    between atoms: C_1  and  C_2
REMARK    2  A    between atoms: C_2  and  C_3
REMARK    3  A    between atoms: C_2  and  C_4
REMARK    4  A    between atoms: C_6  and  C_10
REMARK    5  A    between atoms: C_12  and  C_15
REMARK    6  A    between atoms: N_20  and  C_22
REMARK                            x       y       z     vdW  Elec       q    Type
REMARK                         _______ _______ _______ _____ _____    ______ ____
ROOT
ATOM      1  C   UNL     1      -4.575  -1.550   1.559  0.00  0.00    +0.276 A 
ATOM      2  N   UNL     1      -5.736  -2.031   1.165  0.00  0.00    -0.190 NA
ATOM      3  C   UNL     1      -6.531  -2.222   2.219  0.00  0.00    +0.177 A 
ATOM      4  N   UNL     1      -5.897  -1.869   3.302  0.00  0.00    -0.060 NA
ATOM      5  O   UNL     1      -4.609  -1.430   2.899  0.00  0.00    -0.331 OA
ENDROOT
BRANCH   1   8
ATOM      6  C   UNL     1      -1.435  -0.533  -0.049  0.00  0.00    +0.066 A 
ATOM      7  C   UNL     1      -2.216  -0.712   1.091  0.00  0.00    +0.058 A 
ATOM      8  C   UNL     1      -3.438  -1.211   0.688  0.00  0.00    +0.123 A 
ATOM      9  N   UNL     1      -3.393  -1.330  -0.672  0.00  0.00    -0.272 N 
ATOM     10  H   UNL     1      -4.108  -1.655  -1.242  0.00  0.00    +0.189 HD
ATOM     11  N   UNL     1      -2.132  -0.893  -1.097  0.00  0.00    -0.178 NA
BRANCH   6  13
ATOM     12  C   UNL     1      -0.051   1.524  -0.081  0.00  0.00    +0.014 C 
ATOM     13  C   UNL     1      -0.024  -0.006  -0.072  0.00  0.00    +0.033 C 
ATOM     14  C   UNL     1       0.724  -0.495   1.171  0.00  0.00    +0.014 C 
ENDBRANCH   6  13
ENDBRANCH   1   8
BRANCH   3  15
ATOM     15  C   UNL     1      -7.937  -2.760   2.166  0.00  0.00    +0.087 C 
ATOM     16  C   UNL     1      -8.090  -4.001   3.075  0.00  0.00    +0.109 C 
ATOM     17  C   UNL     1      -9.477  -3.864   3.661  0.00  0.00    +0.221 C 
ATOM     18  O   UNL     1     -10.095  -4.756   4.202  0.00  0.00    -0.275 OA
ATOM     19  N   UNL     1      -9.927  -2.607   3.496  0.00  0.00    -0.271 N 
ATOM     20  C   UNL     1      -8.932  -1.771   2.812  0.00  0.00    +0.125 C 
BRANCH  19  21
ATOM     21  C   UNL     1     -11.181  -2.155   3.921  0.00  0.00    +0.042 A 
ATOM     22  C   UNL     1     -12.098  -3.050   4.457  0.00  0.00    +0.062 A 
ATOM     23  C   UNL     1     -13.337  -2.600   4.876  0.00  0.00    +0.128 A 
ATOM     24  C   UNL     1     -13.664  -1.260   4.761  0.00  0.00    +0.076 A 
ATOM     25  C   UNL     1     -12.751  -0.366   4.227  0.00  0.00    +0.128 A 
ATOM     26  C   UNL     1     -11.508  -0.810   3.812  0.00  0.00    +0.062 A 
ATOM     27  F   UNL     1     -13.072   0.942   4.116  0.00  0.00    -0.205 F 
ATOM     28  F   UNL     1     -14.230  -3.470   5.397  0.00  0.00    -0.205 F 
ENDBRANCH  19  21
ENDBRANCH   3  15
TORSDOF 4
