REMARK  Name = ZINC53202820
REMARK  6 active torsions:
REMARK  status: ('A' for Active; 'I' for Inactive)
REMARK    1  A    between atoms: C_1  and  C_2
REMARK    2  A    between atoms: C_5  and  S_11
REMARK    3  A    between atoms: C_7  and  N_8
REMARK    4  A    between atoms: S_11  and  N_14
REMARK    5  A    between atoms: C_18  and  N_21
REMARK    6  A    between atoms: N_21  and  C_22
REMARK                            x       y       z     vdW  Elec       q    Type
REMARK                         _______ _______ _______ _____ _____    ______ ____
ROOT
ATOM      1  S   UNL     1       0.627  -4.470  -0.108  0.00  0.00    +0.061 S 
ATOM      2  O   UNL     1       0.420  -4.968   1.207  0.00  0.00    -0.153 OA
ATOM      3  O   UNL     1      -0.069  -4.983  -1.235  0.00  0.00    -0.153 OA
ENDROOT
BRANCH   1   8
ATOM      4  C   UNL     1      -0.537   1.447   0.088  0.00  0.00    +0.046 C 
ATOM      5  C   UNL     1      -0.246  -0.031   0.039  0.00  0.00    -0.020 A 
ATOM      6  C   UNL     1      -0.347  -0.716  -1.157  0.00  0.00    +0.007 A 
ATOM      7  C   UNL     1      -0.080  -2.071  -1.202  0.00  0.00    +0.029 A 
ATOM      8  C   UNL     1       0.288  -2.742  -0.051  0.00  0.00    +0.108 A 
ATOM      9  C   UNL     1       0.390  -2.057   1.145  0.00  0.00    +0.061 A 
ATOM     10  C   UNL     1       0.127  -0.700   1.190  0.00  0.00    +0.131 A 
BRANCH  10  11
ATOM     11  N   UNL     1       0.241   0.035   2.470  0.00  0.00    +0.057 N 
ATOM     12  O   UNL     1       0.674   1.163   2.482  0.00  0.00    -0.126 OA
ATOM     13  O   UNL     1      -0.099  -0.494   3.502  0.00  0.00    -0.126 OA
ENDBRANCH  10  11
ENDBRANCH   1   8
BRANCH   1  14
ATOM     14  N   UNL     1       2.242  -4.642  -0.430  0.00  0.00    -0.178 NA
ATOM     15  C   UNL     1       2.725  -4.721  -1.816  0.00  0.00    +0.109 C 
ATOM     16  C   UNL     1       3.813  -3.663  -2.020  0.00  0.00    +0.016 C 
ATOM     17  C   UNL     1       4.904  -3.848  -0.963  0.00  0.00    -0.013 C 
ATOM     18  C   UNL     1       4.303  -3.659   0.431  0.00  0.00    -0.056 C 
ATOM     19  C   UNL     1       3.221  -4.712   0.664  0.00  0.00    +0.094 C 
BRANCH  18  20
ATOM     20  N   UNL     1       5.357  -3.805   1.444  0.00  0.00    +0.380 N 
ATOM     21  C   UNL     1       6.335  -2.720   1.292  0.00  0.00    -0.100 C 
ATOM     22  H   UNL     1       4.948  -3.763   2.365  0.00  0.00    -0.086 HD
ATOM     23  H   UNL     1       5.820  -4.694   1.322  0.00  0.00    -0.086 HD
ENDBRANCH  18  20
ENDBRANCH   1  14
TORSDOF 4
