REMARK  Name = ZINC39690051
REMARK  7 active torsions:
REMARK  status: ('A' for Active; 'I' for Inactive)
REMARK    1  A    between atoms: N_4  and  C_6
REMARK    2  A    between atoms: C_9  and  C_12
REMARK    3  A    between atoms: C_12  and  N_13
REMARK    4  A    between atoms: C_14  and  C_16
REMARK    5  A    between atoms: C_27  and  C_29
REMARK    6  A    between atoms: C_29  and  C_30
REMARK    7  A    between atoms: C_30  and  C_31
REMARK                            x       y       z     vdW  Elec       q    Type
REMARK                         _______ _______ _______ _____ _____    ______ ____
ROOT
ATOM      1  C   UNL     1       3.823  -8.023   2.971  0.00  0.00    +0.100 C 
ATOM      2  C   UNL     1       2.491  -7.895   3.742  0.00  0.00    +0.121 C 
ATOM      3  N   UNL     1       1.858  -9.229   3.622  0.00  0.00    -0.300 N 
ATOM      4  C   UNL     1       2.984 -10.184   3.758  0.00  0.00    +0.115 C 
ATOM      5  C   UNL     1       4.146  -9.527   2.986  0.00  0.00    -0.004 C 
ATOM      6  C   UNL     1       5.467  -9.776   3.707  0.00  0.00    -0.010 C 
ATOM      7  C   UNL     1       5.795 -11.271   3.659  0.00  0.00    -0.082 C 
ATOM      8  N   UNL     1       5.887 -11.709   2.261  0.00  0.00    +0.379 N 
ATOM      9  C   UNL     1       4.585 -11.552   1.600  0.00  0.00    -0.082 C 
ATOM     10  C   UNL     1       4.206 -10.069   1.562  0.00  0.00    -0.010 C 
ATOM     11  C   UNL     1       0.554  -9.512   3.431  0.00  0.00    +0.216 C 
ATOM     12  O   UNL     1       0.189 -10.665   3.353  0.00  0.00    -0.276 OA
ATOM     13  H   UNL     1       6.576 -11.151   1.780  0.00  0.00    -0.086 HD
ATOM     14  H   UNL     1       6.163 -12.679   2.231  0.00  0.00    -0.086 HD
ENDROOT
BRANCH   1  16
ATOM     15  N   UNL     1       4.714  -7.024   0.891  0.00  0.00    -0.311 N 
ATOM     16  C   UNL     1       3.659  -7.536   1.554  0.00  0.00    +0.218 C 
ATOM     17  O   UNL     1       2.576  -7.606   1.011  0.00  0.00    -0.275 OA
ATOM     18  H   UNL     1       5.579  -6.968   1.325  0.00  0.00    +0.149 HD
BRANCH  15  19
ATOM     19  C   UNL     1       4.553  -6.551  -0.487  0.00  0.00    +0.139 C 
BRANCH  19  23
ATOM     20  C   UNL     1       8.295  -5.072  -1.930  0.00  0.00    +0.046 A 
ATOM     21  C   UNL     1       7.961  -6.409  -2.103  0.00  0.00    +0.026 A 
ATOM     22  C   UNL     1       6.751  -6.883  -1.636  0.00  0.00    +0.007 A 
ATOM     23  C   UNL     1       5.873  -6.029  -0.996  0.00  0.00    -0.030 A 
ATOM     24  C   UNL     1       6.202  -4.697  -0.822  0.00  0.00    +0.007 A 
ATOM     25  C   UNL     1       7.412  -4.218  -1.282  0.00  0.00    +0.026 A 
BRANCH  20  29
ATOM     26  C   UNL     1      11.185  -3.225  -2.863  0.00  0.00    +0.019 A 
ATOM     27  C   UNL     1      11.506  -4.509  -3.348  0.00  0.00    +0.019 A 
ATOM     28  C   UNL     1      10.472  -5.322  -3.053  0.00  0.00    +0.091 A 
ATOM     29  N   UNL     1       9.522  -4.587  -2.402  0.00  0.00    -0.323 N 
ATOM     30  C   UNL     1       9.967  -3.301  -2.290  0.00  0.00    +0.091 A 
ENDBRANCH  20  29
ENDBRANCH  19  23
ENDBRANCH  15  19
ENDBRANCH   1  16
BRANCH  11  31
ATOM     31  C   UNL     1      -0.450  -8.393   3.316  0.00  0.00    +0.096 C 
BRANCH  31  32
ATOM     32  C   UNL     1      -1.846  -8.982   3.106  0.00  0.00    +0.013 C 
BRANCH  32  33
ATOM     33  C   UNL     1      -2.865  -7.847   2.989  0.00  0.00    -0.011 C 
ATOM     34  C   UNL     1      -3.004  -7.119   4.342  0.00  0.00    +0.003 C 
ATOM     35  C   UNL     1      -4.510  -6.770   4.434  0.00  0.00    +0.000 C 
ATOM     36  C   UNL     1      -5.188  -8.017   3.813  0.00  0.00    +0.000 C 
ATOM     37  C   UNL     1      -4.254  -8.418   2.653  0.00  0.00    +0.003 C 
ENDBRANCH  32  33
ENDBRANCH  31  32
ENDBRANCH  11  31
TORSDOF 7
