REMARK  Name = ZINC55502404
REMARK  4 active torsions:
REMARK  status: ('A' for Active; 'I' for Inactive)
REMARK    1  A    between atoms: C_1  and  C_2
REMARK    2  A    between atoms: C_5  and  N_8
REMARK    3  A    between atoms: C_9  and  C_11
REMARK    4  A    between atoms: C_11  and  C_12
REMARK                            x       y       z     vdW  Elec       q    Type
REMARK                         _______ _______ _______ _____ _____    ______ ____
ROOT
ATOM      1  C   UNL     1       0.423  -6.859   2.535  0.00  0.00    +0.120 A 
ATOM      2  N   UNL     1       0.558  -8.192   2.754  0.00  0.00    -0.310 N 
ATOM      3  H   UNL     1       0.580  -8.798   1.997  0.00  0.00    +0.170 HD
ATOM      4  C   UNL     1       0.663  -8.690   4.001  0.00  0.00    +0.260 A 
ATOM      5  O   UNL     1       0.784  -9.889   4.181  0.00  0.00    -0.267 OA
ATOM      6  C   UNL     1       0.629  -7.785   5.112  0.00  0.00    +0.075 A 
ATOM      7  C   UNL     1       0.725  -8.101   6.540  0.00  0.00    -0.023 A 
ATOM      8  C   UNL     1       0.662  -7.061   7.396  0.00  0.00    -0.004 A 
ATOM      9  S   UNL     1       0.487  -5.625   6.369  0.00  0.00    -0.073 S 
ATOM     10  C   UNL     1       0.487  -6.428   4.787  0.00  0.00    +0.116 A 
ATOM     11  N   UNL     1       0.395  -6.010   3.527  0.00  0.00    -0.226 NA
ATOM     12  C   UNL     1       0.715  -7.097   8.892  0.00  0.00    +0.043 C 
ATOM     13  C   UNL     1       1.904  -7.959   9.336  0.00  0.00    +0.005 C 
ATOM     14  C   UNL     1       1.430  -9.403   9.465  0.00  0.00    +0.001 C 
ATOM     15  C   UNL     1       0.345  -9.692   8.429  0.00  0.00    +0.005 C 
ATOM     16  C   UNL     1       0.899  -9.540   7.018  0.00  0.00    +0.037 C 
ENDROOT
BRANCH   1  17
ATOM     17  C   UNL     1       0.309  -6.349   1.121  0.00  0.00    +0.170 C 
BRANCH  17  19
ATOM     18  N   UNL     1       0.059  -4.170  -0.021  0.00  0.00    -0.285 N 
ATOM     19  C   UNL     1       0.175  -4.848   1.138  0.00  0.00    +0.225 C 
ATOM     20  O   UNL     1       0.173  -4.251   2.193  0.00  0.00    -0.275 OA
ATOM     21  H   UNL     1      -0.017  -4.651  -0.860  0.00  0.00    +0.155 HD
BRANCH  18  26
ATOM     22  C   UNL     1       0.008   1.503   0.007  0.00  0.00    +0.044 C 
ATOM     23  C   UNL     1       0.022  -0.004  -0.001  0.00  0.00    -0.050 A 
ATOM     24  C   UNL     1       0.777  -0.692   0.931  0.00  0.00    +0.005 A 
ATOM     25  C   UNL     1       0.791  -2.073   0.927  0.00  0.00    +0.023 A 
ATOM     26  C   UNL     1       0.046  -2.771  -0.014  0.00  0.00    +0.033 A 
ATOM     27  C   UNL     1      -0.712  -2.077  -0.948  0.00  0.00    +0.023 A 
ATOM     28  C   UNL     1      -0.726  -0.696  -0.936  0.00  0.00    +0.005 A 
ENDBRANCH  18  26
ENDBRANCH  17  19
ENDBRANCH   1  17
TORSDOF 3
