REMARK  Name = ZINC43401777
REMARK  4 active torsions:
REMARK  status: ('A' for Active; 'I' for Inactive)
REMARK    1  A    between atoms: C_1  and  C_2
REMARK    2  A    between atoms: C_5  and  C_16
REMARK    3  A    between atoms: C_6  and  S_8
REMARK    4  A    between atoms: S_8  and  C_9
REMARK                            x       y       z     vdW  Elec       q    Type
REMARK                         _______ _______ _______ _____ _____    ______ ____
ROOT
ATOM      1  C   UNL     1       0.095   1.489   0.217  0.00  0.00    +0.065 C 
ATOM      2  C   UNL     1       0.068  -0.017   0.157  0.00  0.00    +0.040 A 
ATOM      3  C   UNL     1      -0.154  -0.644  -1.057  0.00  0.00    +0.024 A 
ATOM      4  C   UNL     1      -0.179  -2.026  -1.115  0.00  0.00    +0.015 A 
ATOM      5  C   UNL     1       0.022  -2.745   0.068  0.00  0.00    +0.044 A 
ATOM      6  C   UNL     1       0.242  -2.037   1.261  0.00  0.00    +0.112 A 
ATOM      7  N   UNL     1       0.261  -0.712   1.260  0.00  0.00    -0.245 NA
ENDROOT
BRANCH   5   8
ATOM      8  C   UNL     1       0.005  -4.221   0.062  0.00  0.00    +0.097 C 
ATOM      9  N   UNL     1      -0.839  -4.880   0.857  0.00  0.00    -0.387 N 
ATOM     10  N   UNL     1       0.833  -4.894  -0.737  0.00  0.00    -0.344 N 
ATOM     11  H   UNL     1      -1.426  -4.391   1.454  0.00  0.00    +0.157 HD
ATOM     12  H   UNL     1       1.446  -4.414  -1.315  0.00  0.00    +0.144 HD
ATOM     13  H   UNL     1       0.821  -5.864  -0.740  0.00  0.00    +0.144 HD
ATOM     14  H   UNL     1      -0.865  -5.850   0.838  0.00  0.00    +0.157 HD
ENDBRANCH   5   8
BRANCH   6  15
ATOM     15  S   UNL     1       0.498  -2.915   2.767  0.00  0.00    -0.069 S 
BRANCH  15  16
ATOM     16  C   UNL     1       0.563  -1.650   3.993  0.00  0.00    +0.014 A 
ATOM     17  C   UNL     1      -0.589  -1.289   4.681  0.00  0.00    +0.016 A 
ATOM     18  C   UNL     1      -0.535  -0.298   5.641  0.00  0.00    +0.016 A 
ATOM     19  C   UNL     1       0.664   0.336   5.917  0.00  0.00    +0.018 A 
ATOM     20  C   UNL     1       1.813  -0.022   5.234  0.00  0.00    +0.016 A 
ATOM     21  C   UNL     1       1.766  -1.017   4.276  0.00  0.00    +0.016 A 
ATOM     22 BR   UNL     1       0.733   1.693   7.232  0.00  0.00    -0.050 Br
ENDBRANCH  15  16
ENDBRANCH   6  15
TORSDOF 3
