REMARK  Name = ZINC40205456
REMARK  3 active torsions:
REMARK  status: ('A' for Active; 'I' for Inactive)
REMARK    1  A    between atoms: C_3  and  C_6
REMARK    2  A    between atoms: N_31  and  C_34
REMARK    3  A    between atoms: C_34  and  C_35
REMARK                            x       y       z     vdW  Elec       q    Type
REMARK                         _______ _______ _______ _____ _____    ______ ____
ROOT
ATOM      1  C   UNL     1       3.599   0.625  -0.029  0.00  0.00    +0.099 C 
ATOM      2  C   UNL     1       4.049  -0.010   1.231  0.00  0.00    +0.035 A 
ATOM      3  C   UNL     1       4.893  -1.044   1.399  0.00  0.00    +0.087 A 
ATOM      4  N   UNL     1       5.159  -1.371   2.710  0.00  0.00    -0.311 N 
ATOM      5  H   UNL     1       5.784  -2.083   2.915  0.00  0.00    +0.170 HD
ATOM      6  C   UNL     1       4.551  -0.701   3.707  0.00  0.00    +0.289 A 
ATOM      7  O   UNL     1       4.663  -0.869   4.908  0.00  0.00    -0.260 OA
ATOM      8  S   UNL     1       3.602   0.424   2.894  0.00  0.00    -0.030 S 
ATOM      9  S   UNL     1       5.555  -1.920   0.009  0.00  0.00    -0.103 S 
ATOM     10  C   UNL     1       5.305  -0.818  -1.400  0.00  0.00    +0.061 C 
ATOM     11  C   UNL     1       4.021   0.008  -1.296  0.00  0.00    +0.022 C 
ATOM     12  C   UNL     1       2.978  -0.870  -2.059  0.00  0.00    +0.007 C 
ATOM     13  C   UNL     1       3.890  -0.909  -3.370  0.00  0.00    +0.010 C 
ATOM     14  C   UNL     1       5.109  -1.682  -2.687  0.00  0.00    +0.015 C 
ATOM     15  C   UNL     1       4.257  -2.924  -2.411  0.00  0.00    +0.092 C 
ATOM     16  C   UNL     1       3.162  -2.222  -1.466  0.00  0.00    +0.091 C 
ATOM     17  C   UNL     1       2.417  -3.350  -0.969  0.00  0.00    +0.226 C 
ATOM     18  O   UNL     1       1.229  -3.410  -0.738  0.00  0.00    -0.275 OA
ATOM     19  N   UNL     1       3.358  -4.345  -0.817  0.00  0.00    -0.231 N 
ATOM     20  C   UNL     1       4.607  -4.029  -1.474  0.00  0.00    +0.226 C 
ATOM     21  O   UNL     1       5.699  -4.522  -1.285  0.00  0.00    -0.275 OA
ENDROOT
BRANCH   1  24
ATOM     22  C   UNL     1      -0.016   1.341   0.009  0.00  0.00    +0.041 A 
ATOM     23  C   UNL     1       1.331   1.769  -0.001  0.00  0.00    +0.045 A 
ATOM     24  C   UNL     1       2.092   0.660  -0.014  0.00  0.00    +0.113 A 
ATOM     25  O   UNL     1       1.282  -0.411  -0.012  0.00  0.00    -0.467 OA
ATOM     26  C   UNL     1       0.002  -0.004   0.002  0.00  0.00    +0.195 A 
ENDBRANCH   1  24
BRANCH  19  27
ATOM     27  C   UNL     1       3.102  -5.603  -0.112  0.00  0.00    +0.241 C 
BRANCH  27  28
ATOM     28  C   UNL     1       2.583  -6.629  -1.087  0.00  0.00    +0.373 C 
ATOM     29  O   UNL     1       2.439  -6.335  -2.261  0.00  0.00    -0.245 OA
ATOM     30  O   UNL     1       2.306  -7.751  -0.700  0.00  0.00    -0.245 OA
ENDBRANCH  27  28
ENDBRANCH  19  27
TORSDOF 3
