REMARK  Name = ZINC63385524
REMARK  9 active torsions:
REMARK  status: ('A' for Active; 'I' for Inactive)
REMARK    1  A    between atoms: C_1  and  C_2
REMARK    2  A    between atoms: C_2  and  C_4
REMARK    3  A    between atoms: C_2  and  N_12
REMARK    4  A    between atoms: C_7  and  O_10
REMARK    5  A    between atoms: O_10  and  C_11
REMARK    6  A    between atoms: C_20  and  C_26
REMARK    7  A    between atoms: N_28  and  C_29
REMARK    8  A    between atoms: C_29  and  C_30
REMARK    9  A    between atoms: C_30  and  C_31
REMARK                            x       y       z     vdW  Elec       q    Type
REMARK                         _______ _______ _______ _____ _____    ______ ____
ROOT
ATOM      1  N   UNL     1      -1.387  -0.433  -0.019  0.00  0.00    -0.291 N 
ATOM      2  C   UNL     1      -2.079  -1.377  -0.929  0.00  0.00    +0.148 C 
ATOM      3  C   UNL     1      -3.530  -1.178  -0.621  0.00  0.00    +0.116 C 
ATOM      4  C   UNL     1      -4.584  -2.211  -0.807  0.00  0.00    +0.008 C 
ATOM      5  C   UNL     1      -5.726  -1.530  -0.653  0.00  0.00    +0.004 C 
ATOM      6  C   UNL     1      -5.354  -0.063  -0.411  0.00  0.00    +0.155 C 
ATOM      7  O   UNL     1      -4.108   0.026  -1.193  0.00  0.00    -0.359 OA
ATOM      8  C   UNL     1      -4.788   0.028   1.043  0.00  0.00    +0.122 C 
ATOM      9  C   UNL     1      -3.491  -0.824   0.912  0.00  0.00    +0.127 C 
ATOM     10  C   UNL     1      -2.205  -0.052   0.995  0.00  0.00    +0.223 C 
ATOM     11  O   UNL     1      -1.941   0.783   1.834  0.00  0.00    -0.275 OA
ENDROOT
BRANCH   8  12
ATOM     12  C   UNL     1      -4.459   1.453   1.405  0.00  0.00    +0.220 C 
ATOM     13  O   UNL     1      -4.166   2.248   0.537  0.00  0.00    -0.275 OA
ATOM     14  N   UNL     1      -4.490   1.845   2.695  0.00  0.00    -0.315 N 
ATOM     15  H   UNL     1      -4.724   1.210   3.389  0.00  0.00    +0.149 HD
BRANCH  14  16
ATOM     16  C   UNL     1      -4.170   3.231   3.047  0.00  0.00    +0.108 C 
BRANCH  16  17
ATOM     17  C   UNL     1      -4.279   3.410   4.562  0.00  0.00    +0.052 C 
BRANCH  17  18
ATOM     18  C   UNL     1      -3.950   4.835   4.925  0.00  0.00    -0.040 C 
ATOM     19  C   UNL     1      -4.825   5.850   5.110  0.00  0.00    -0.001 A 
ATOM     20  C   UNL     1      -6.289   5.928   5.032  0.00  0.00    +0.010 A 
ATOM     21  C   UNL     1      -6.897   7.111   5.275  0.00  0.00    +0.001 A 
ATOM     22  C   UNL     1      -6.166   8.262   5.598  0.00  0.00    +0.002 A 
ATOM     23  C   UNL     1      -4.819   8.270   5.689  0.00  0.00    +0.026 A 
ATOM     24  C   UNL     1      -4.076   7.080   5.454  0.00  0.00    +0.043 A 
ATOM     25  N   UNL     1      -2.789   6.835   5.479  0.00  0.00    -0.380 N 
ATOM     26  C   UNL     1      -2.575   5.419   5.161  0.00  0.00    +0.144 C 
ATOM     27  H   UNL     1      -2.094   7.482   5.680  0.00  0.00    +0.160 HD
ENDBRANCH  17  18
ENDBRANCH  16  17
ENDBRANCH  14  16
ENDBRANCH   8  12
BRANCH   1  29
ATOM     28  C   UNL     1       0.014   1.540  -0.375  0.00  0.00    +0.033 C 
ATOM     29  C   UNL     1      -0.004   0.022  -0.187  0.00  0.00    +0.103 C 
BRANCH  29  30
ATOM     30  C   UNL     1       0.797  -0.343   1.036  0.00  0.00    -0.027 A 
ATOM     31  C   UNL     1       0.514  -1.508   1.724  0.00  0.00    +0.009 A 
ATOM     32  C   UNL     1       1.247  -1.844   2.846  0.00  0.00    +0.046 A 
ATOM     33  C   UNL     1       2.268  -1.012   3.281  0.00  0.00    +0.120 A 
ATOM     34  C   UNL     1       2.550   0.157   2.589  0.00  0.00    +0.046 A 
ATOM     35  C   UNL     1       1.817   0.486   1.464  0.00  0.00    +0.009 A 
BRANCH  33  36
ATOM     36  O   UNL     1       2.990  -1.340   4.385  0.00  0.00    -0.495 OA
ATOM     37  C   UNL     1       4.025  -0.436   4.775  0.00  0.00    +0.277 C 
ENDBRANCH  33  36
ENDBRANCH  29  30
ENDBRANCH   1  29
TORSDOF 7
