REMARK  Name = ZINC39451889
REMARK  6 active torsions:
REMARK  status: ('A' for Active; 'I' for Inactive)
REMARK    1  A    between atoms: C_1  and  C_2
REMARK    2  A    between atoms: C_2  and  O_3
REMARK    3  A    between atoms: O_3  and  C_4
REMARK    4  A    between atoms: C_17  and  O_20
REMARK    5  A    between atoms: O_20  and  C_21
REMARK    6  A    between atoms: C_21  and  C_22
REMARK                            x       y       z     vdW  Elec       q    Type
REMARK                         _______ _______ _______ _____ _____    ______ ____
ROOT
ATOM      1  C   UNL     1       0.802  -1.823   1.306  0.00  0.00    +0.139 A 
ATOM      2  C   UNL     1       1.456  -2.357   2.409  0.00  0.00    +0.062 A 
ATOM      3  C   UNL     1       1.539  -3.745   2.511  0.00  0.00    +0.071 A 
ATOM      4  C   UNL     1       0.963  -4.548   1.501  0.00  0.00    +0.099 A 
ATOM      5  C   UNL     1       1.065  -6.007   1.633  0.00  0.00    +0.084 A 
ATOM      6  C   UNL     1       1.715  -6.555   2.724  0.00  0.00    +0.122 A 
ATOM      7  N   UNL     1       2.271  -5.742   3.705  0.00  0.00    -0.237 N 
ATOM      8  C   UNL     1       2.211  -4.400   3.643  0.00  0.00    +0.271 A 
ATOM      9  O   UNL     1       2.713  -3.727   4.524  0.00  0.00    -0.266 OA
ATOM     10 BR   UNL     1       3.122  -6.534   5.145  0.00  0.00    +0.058 Br
ATOM     11  C   UNL     1       1.822  -7.958   2.845  0.00  0.00    +0.186 C 
ATOM     12  O   UNL     1       2.350  -8.438   3.829  0.00  0.00    -0.290 OA
ATOM     13  C   UNL     1       1.289  -8.865   1.768  0.00  0.00    +0.132 C 
ATOM     14  C   UNL     1       0.100  -8.188   1.077  0.00  0.00    +0.211 C 
ATOM     15  N   UNL     1       0.511  -6.834   0.675  0.00  0.00    -0.315 N 
ATOM     16  N   UNL     1       0.350  -3.986   0.467  0.00  0.00    -0.249 NA
ATOM     17  C   UNL     1       0.254  -2.679   0.352  0.00  0.00    +0.157 A 
ATOM     18  H   UNL     1       0.396  -6.530  -0.239  0.00  0.00    +0.149 HD
ENDROOT
BRANCH   1  19
ATOM     19  O   UNL     1       0.693  -0.477   1.160  0.00  0.00    -0.491 OA
BRANCH  19  21
ATOM     20  C   UNL     1      -0.019   1.526   0.010  0.00  0.00    +0.048 C 
ATOM     21  C   UNL     1       0.002  -0.004   0.002  0.00  0.00    +0.226 C 
ENDBRANCH  19  21
ENDBRANCH   1  19
BRANCH  14  22
ATOM     22  O   UNL     1      -1.003  -8.110   1.982  0.00  0.00    -0.359 OA
BRANCH  22  23
ATOM     23  C   UNL     1      -2.251  -7.812   1.353  0.00  0.00    +0.159 C 
ATOM     24  C   UNL     1      -3.354  -7.753   2.411  0.00  0.00    +0.034 C 
ENDBRANCH  22  23
ENDBRANCH  14  22
TORSDOF 4
