REMARK  Name = ZINC11844314
REMARK  14 active torsions:
REMARK  status: ('A' for Active; 'I' for Inactive)
REMARK    1  A    between atoms: C_1  and  N_57
REMARK    2  A    between atoms: C_2  and  C_3
REMARK    3  A    between atoms: C_2  and  N_57
REMARK    4  A    between atoms: C_3  and  C_5
REMARK    5  A    between atoms: C_3  and  O_18
REMARK    6  A    between atoms: C_5  and  O_6
REMARK    7  A    between atoms: O_6  and  C_7
REMARK    8  A    between atoms: C_12  and  C_13
REMARK    9  A    between atoms: C_13  and  N_59
REMARK   10  A    between atoms: C_14  and  C_15
REMARK   11  A    between atoms: C_14  and  N_59
REMARK   12  A    between atoms: C_15  and  S_16
REMARK   13  A    between atoms: S_16  and  C_17
REMARK   14  A    between atoms: C_19  and  N_57
REMARK                            x       y       z     vdW  Elec       q    Type
REMARK                         _______ _______ _______ _____ _____    ______ ____
ROOT
ATOM      1  O   UNL     1      -1.165  -0.701   0.009  0.00  0.00    -0.489 OA
ENDROOT
BRANCH   1   2
ATOM      2  C   UNL     1       0.002  -0.004   0.002  0.00  0.00    +0.122 A 
ATOM      3  C   UNL     1       1.214  -0.679  -0.013  0.00  0.00    +0.046 A 
ATOM      4  C   UNL     1       2.399   0.031  -0.021  0.00  0.00    +0.004 A 
ATOM      5  C   UNL     1       2.377   1.414  -0.013  0.00  0.00    +0.000 A 
ATOM      6  C   UNL     1       1.171   2.089   0.002  0.00  0.00    +0.005 A 
ATOM      7  C   UNL     1      -0.017   1.383   0.010  0.00  0.00    -0.023 A 
BRANCH   7   8
ATOM      8  C   UNL     1      -1.332   2.119   0.020  0.00  0.00    -0.043 C 
BRANCH   8   9
ATOM      9  N   UNL     1      -1.865   2.137   1.395  0.00  0.00    +0.382 N 
ATOM     10  H   UNL     1      -1.195   2.611   2.012  0.00  0.00    -0.085 HD
ATOM     11  H   UNL     1      -2.003   1.172   1.717  0.00  0.00    -0.085 HD
BRANCH   9  12
ATOM     12  C   UNL     1      -3.154   2.853   1.435  0.00  0.00    -0.071 C 
BRANCH  12  13
ATOM     13  C   UNL     1      -3.682   2.855   2.871  0.00  0.00    +0.050 C 
BRANCH  13  14
ATOM     14  S   UNL     1      -5.268   3.733   2.931  0.00  0.00    -0.166 S 
ATOM     15  C   UNL     1      -5.752   3.647   4.677  0.00  0.00    +0.084 C 
ENDBRANCH  13  14
ENDBRANCH  12  13
ENDBRANCH   9  12
ENDBRANCH   8   9
ENDBRANCH   7   8
ENDBRANCH   1   2
BRANCH   1  16
ATOM     16  C   UNL     1      -1.069  -2.126   0.000  0.00  0.00    +0.258 C 
BRANCH  16  17
ATOM     17  C   UNL     1      -2.474  -2.732   0.010  0.00  0.00    +0.135 C 
BRANCH  17  18
ATOM     18  O   UNL     1      -3.126  -2.404   1.239  0.00  0.00    -0.390 OA
ATOM     19  H   UNL     1      -2.669  -2.731   2.026  0.00  0.00    +0.210 HD
ENDBRANCH  17  18
BRANCH  17  20
ATOM     20  C   UNL     1      -2.376  -4.253  -0.125  0.00  0.00    -0.044 C 
BRANCH  20  22
ATOM     21  C   UNL     1      -4.373  -4.403  -1.486  0.00  0.00    -0.096 C 
ATOM     22  N   UNL     1      -3.740  -4.813  -0.214  0.00  0.00    +0.381 N 
ATOM     23  H   UNL     1      -4.300  -4.454   0.568  0.00  0.00    -0.082 HD
BRANCH  22  24
ATOM     24  C   UNL     1      -3.687  -6.288  -0.129  0.00  0.00    -0.069 C 
ATOM     25  C   UNL     1      -2.923  -6.867  -1.321  0.00  0.00    -0.015 C 
ATOM     26  C   UNL     1      -2.885  -8.392  -1.210  0.00  0.00    -0.002 C 
ATOM     27  C   UNL     1      -4.313  -8.940  -1.205  0.00  0.00    -0.000 C 
ATOM     28  C   UNL     1      -5.077  -8.361  -0.012  0.00  0.00    -0.002 C 
ATOM     29  C   UNL     1      -5.116  -6.835  -0.124  0.00  0.00    -0.015 C 
ENDBRANCH  22  24
ENDBRANCH  20  22
ENDBRANCH  17  20
ENDBRANCH  16  17
ENDBRANCH   1  16
TORSDOF 12
