REMARK  Name = ZINC44459165
REMARK  4 active torsions:
REMARK  status: ('A' for Active; 'I' for Inactive)
REMARK    1  A    between atoms: C_1  and  N_2
REMARK    2  A    between atoms: N_2  and  C_3
REMARK    3  A    between atoms: C_3  and  C_4
REMARK    4  A    between atoms: C_17  and  C_19
REMARK                            x       y       z     vdW  Elec       q    Type
REMARK                         _______ _______ _______ _____ _____    ______ ____
ROOT
ATOM      1  C   UNL     1      -1.109  -0.918   1.883  0.00  0.00    +0.236 C 
ATOM      2  O   UNL     1      -2.089  -0.450   1.343  0.00  0.00    -0.274 OA
ATOM      3  N   UNL     1      -1.234  -1.576   3.053  0.00  0.00    -0.263 N 
ATOM      4  C   UNL     1      -2.481  -1.718   3.638  0.00  0.00    +0.165 A 
ATOM      5  N   UNL     1      -3.646  -1.292   3.208  0.00  0.00    -0.225 NA
ATOM      6  C   UNL     1      -4.793  -1.504   3.889  0.00  0.00    +0.080 A 
ATOM      7  C   UNL     1      -6.103  -1.101   3.539  0.00  0.00    +0.030 A 
ATOM      8  C   UNL     1      -7.167  -1.400   4.349  0.00  0.00    +0.022 A 
ATOM      9  C   UNL     1      -7.002  -2.105   5.533  0.00  0.00    +0.042 A 
ATOM     10  C   UNL     1      -5.734  -2.515   5.906  0.00  0.00    +0.037 A 
ATOM     11  C   UNL     1      -4.663  -2.220   5.101  0.00  0.00    +0.042 A 
ATOM     12  S   UNL     1      -2.916  -2.535   5.167  0.00  0.00    -0.052 S 
ATOM     13 CL   UNL     1      -8.372  -2.467   6.537  0.00  0.00    -0.084 Cl
ATOM     14  H   UNL     1      -0.450  -1.950   3.485  0.00  0.00    +0.157 HD
ENDROOT
BRANCH   1  15
ATOM     15  C   UNL     1       0.248  -0.763   1.246  0.00  0.00    +0.203 C 
BRANCH  15  17
ATOM     16  C   UNL     1       0.223   1.445  -0.003  0.00  0.00    +0.133 C 
ATOM     17  N   UNL     1       0.117  -0.016  -0.007  0.00  0.00    -0.292 N 
ATOM     18  C   UNL     1      -0.102  -0.673  -1.163  0.00  0.00    +0.248 C 
ATOM     19  O   UNL     1      -0.280  -1.876  -1.155  0.00  0.00    -0.270 OA
BRANCH  18  20
ATOM     20  C   UNL     1      -0.124   0.067  -2.439  0.00  0.00    +0.053 A 
ATOM     21  C   UNL     1      -1.358   0.413  -3.041  0.00  0.00    +0.020 A 
ATOM     22  C   UNL     1      -1.349   1.095  -4.217  0.00  0.00    +0.071 A 
ATOM     23  C   UNL     1      -0.119   1.442  -4.808  0.00  0.00    +0.249 A 
ATOM     24  O   UNL     1      -0.106   2.054  -5.863  0.00  0.00    -0.268 OA
ATOM     25  N   UNL     1       1.042   1.103  -4.218  0.00  0.00    -0.328 N 
ATOM     26  H   UNL     1       1.880   1.350  -4.638  0.00  0.00    +0.168 HD
ATOM     27  C   UNL     1       1.057   0.432  -3.051  0.00  0.00    +0.099 A 
ENDBRANCH  18  20
ENDBRANCH  15  17
ENDBRANCH   1  15
TORSDOF 3
