REMARK  Name = ZINC06232865
REMARK  5 active torsions:
REMARK  status: ('A' for Active; 'I' for Inactive)
REMARK    1  A    between atoms: C_1  and  C_2
REMARK    2  A    between atoms: C_3  and  O_17
REMARK    3  A    between atoms: O_17  and  C_18
REMARK    4  A    between atoms: C_18  and  C_19
REMARK    5  A    between atoms: C_24  and  O_32
REMARK                            x       y       z     vdW  Elec       q    Type
REMARK                         _______ _______ _______ _____ _____    ______ ____
ROOT
ATOM      1  C   UNL     1      -0.227  -6.678   6.713  0.00  0.00    +0.051 C 
ATOM      2  C   UNL     1       1.193  -6.282   7.027  0.00  0.00    +0.034 A 
ATOM      3  C   UNL     1       1.856  -5.372   6.220  0.00  0.00    +0.128 A 
ATOM      4  C   UNL     1       3.167  -4.996   6.506  0.00  0.00    +0.047 A 
ATOM      5  C   UNL     1       3.819  -5.523   7.584  0.00  0.00    +0.015 A 
ATOM      6  C   UNL     1       3.164  -6.447   8.406  0.00  0.00    +0.022 A 
ATOM      7  C   UNL     1       1.842  -6.830   8.122  0.00  0.00    +0.146 A 
ATOM      8  O   UNL     1       1.220  -7.723   8.921  0.00  0.00    -0.422 OA
ATOM      9  C   UNL     1       1.836  -8.254   9.985  0.00  0.00    +0.341 A 
ATOM     10  O   UNL     1       1.234  -9.057  10.675  0.00  0.00    -0.245 OA
ATOM     11  C   UNL     1       3.166  -7.912  10.334  0.00  0.00    +0.041 A 
ATOM     12  C   UNL     1       3.845  -7.028   9.571  0.00  0.00    -0.027 A 
ATOM     13  C   UNL     1       5.264  -6.618   9.853  0.00  0.00    +0.036 C 
ATOM     14  C   UNL     1       5.652  -6.970  11.288  0.00  0.00    +0.005 C 
ATOM     15  C   UNL     1       5.287  -8.438  11.539  0.00  0.00    +0.005 C 
ATOM     16  C   UNL     1       3.764  -8.557  11.556  0.00  0.00    +0.042 C 
ENDROOT
BRANCH   3  17
ATOM     17  O   UNL     1       1.222  -4.838   5.145  0.00  0.00    -0.482 OA
BRANCH  17  18
ATOM     18  C   UNL     1       1.959  -3.901   4.356  0.00  0.00    +0.324 C 
BRANCH  18  19
ATOM     19  C   UNL     1       1.100  -3.420   3.215  0.00  0.00    +0.253 C 
ATOM     20  O   UNL     1      -0.031  -3.837   3.090  0.00  0.00    -0.272 OA
ATOM     21  N   UNL     1       1.590  -2.525   2.334  0.00  0.00    -0.298 N 
ATOM     22  C   UNL     1       2.959  -2.009   2.472  0.00  0.00    +0.110 C 
ATOM     23  C   UNL     1       2.908  -0.479   2.487  0.00  0.00    +0.054 C 
ATOM     24  C   UNL     1       2.175   0.018   1.238  0.00  0.00    +0.072 C 
ATOM     25  C   UNL     1       2.154   1.548   1.242  0.00  0.00    +0.035 C 
ATOM     26  C   UNL     1       1.418   2.053  -0.001  0.00  0.00    +0.003 C 
ATOM     27  C   UNL     1      -0.019   1.525   0.010  0.00  0.00    +0.001 C 
ATOM     28  C   UNL     1       0.002  -0.004   0.002  0.00  0.00    +0.008 C 
ATOM     29  C   UNL     1       0.740  -0.513   1.242  0.00  0.00    +0.038 C 
ATOM     30  C   UNL     1       0.765  -2.046   1.217  0.00  0.00    +0.114 C 
BRANCH  24  31
ATOM     31  O   UNL     1       2.853  -0.449   0.070  0.00  0.00    -0.388 OA
ATOM     32  H   UNL     1       3.770  -0.150   0.002  0.00  0.00    +0.210 HD
ENDBRANCH  24  31
ENDBRANCH  18  19
ENDBRANCH  17  18
ENDBRANCH   3  17
TORSDOF 4
