REMARK  Name = ZINC04652703
REMARK  7 active torsions:
REMARK  status: ('A' for Active; 'I' for Inactive)
REMARK    1  A    between atoms: C_1  and  C_2
REMARK    2  A    between atoms: C_2  and  C_3
REMARK    3  A    between atoms: C_3  and  O_4
REMARK    4  A    between atoms: O_4  and  C_5
REMARK    5  A    between atoms: C_10  and  C_11
REMARK    6  A    between atoms: C_11  and  S_12
REMARK    7  A    between atoms: S_12  and  C_13
REMARK                            x       y       z     vdW  Elec       q    Type
REMARK                         _______ _______ _______ _____ _____    ______ ____
ROOT
ATOM      1  C   UNL     1       1.341  -2.529  -2.322  0.00  0.00    +0.125 A 
ATOM      2  C   UNL     1       1.909  -1.761  -3.329  0.00  0.00    +0.047 A 
ATOM      3  C   UNL     1       2.522  -2.376  -4.403  0.00  0.00    +0.019 A 
ATOM      4  C   UNL     1       2.570  -3.757  -4.476  0.00  0.00    +0.018 A 
ATOM      5  C   UNL     1       2.005  -4.525  -3.474  0.00  0.00    +0.023 A 
ATOM      6  C   UNL     1       1.396  -3.913  -2.394  0.00  0.00    +0.006 A 
ATOM      7 BR   UNL     1       3.410  -4.596  -5.948  0.00  0.00    -0.050 Br
ENDROOT
BRANCH   1   8
ATOM      8  O   UNL     1       0.738  -1.926  -1.265  0.00  0.00    -0.492 OA
BRANCH   8   9
ATOM      9  C   UNL     1       0.718  -0.497  -1.257  0.00  0.00    +0.229 C 
BRANCH   9  11
ATOM     10  C   UNL     1      -0.019   1.526   0.010  0.00  0.00    +0.007 C 
ATOM     11  C   UNL     1       0.002  -0.004   0.002  0.00  0.00    +0.038 C 
ENDBRANCH   9  11
ENDBRANCH   8   9
ENDBRANCH   1   8
BRANCH   6  12
ATOM     12  C   UNL     1       0.787  -4.750  -1.299  0.00  0.00    +0.115 C 
BRANCH  12  13
ATOM     13  S   UNL     1      -0.947  -5.101  -1.700  0.00  0.00    -0.088 S 
BRANCH  13  14
ATOM     14  C   UNL     1      -1.510  -6.074  -0.342  0.00  0.00    +0.123 C 
ATOM     15  N   UNL     1      -2.789  -6.024   0.028  0.00  0.00    -0.382 N 
ATOM     16  N   UNL     1      -0.656  -6.860   0.314  0.00  0.00    -0.340 N 
ATOM     17  H   UNL     1      -3.410  -5.452  -0.449  0.00  0.00    +0.158 HD
ATOM     18  H   UNL     1       0.275  -6.896   0.044  0.00  0.00    +0.144 HD
ATOM     19  H   UNL     1      -0.966  -7.395   1.061  0.00  0.00    +0.144 HD
ATOM     20  H   UNL     1      -3.099  -6.559   0.776  0.00  0.00    +0.158 HD
ENDBRANCH  13  14
ENDBRANCH  12  13
ENDBRANCH   6  12
TORSDOF 6
