REMARK  Name = ZINC22227577
REMARK  13 active torsions:
REMARK  status: ('A' for Active; 'I' for Inactive)
REMARK    1  A    between atoms: C_1  and  C_2
REMARK    2  A    between atoms: C_2  and  O_3
REMARK    3  A    between atoms: O_3  and  C_4
REMARK    4  A    between atoms: C_4  and  C_6
REMARK    5  A    between atoms: C_7  and  C_32
REMARK    6  A    between atoms: C_11  and  N_31
REMARK    7  A    between atoms: C_13  and  C_15
REMARK    8  A    between atoms: C_15  and  O_16
REMARK    9  A    between atoms: O_16  and  C_17
REMARK   10  A    between atoms: C_17  and  C_19
REMARK   11  A    between atoms: C_20  and  N_30
REMARK   12  A    between atoms: C_22  and  C_29
REMARK   13  A    between atoms: C_24  and  C_28
REMARK                            x       y       z     vdW  Elec       q    Type
REMARK                         _______ _______ _______ _____ _____    ______ ____
ROOT
ATOM      1  C   UNL     1      -2.311  -5.733   0.222  0.00  0.00    +0.308 C 
ENDROOT
BRANCH   1   9
ATOM      2  C   UNL     1       0.261 -10.706   0.662  0.00  0.00    +0.112 A 
ATOM      3  C   UNL     1       0.304 -10.685   2.023  0.00  0.00    +0.119 A 
ATOM      4  O   UNL     1      -0.258  -9.557   2.476  0.00  0.00    -0.441 OA
ATOM      5  C   UNL     1      -0.694  -8.785   1.466  0.00  0.00    +0.233 A 
ATOM      6  C   UNL     1      -0.399  -9.450   0.267  0.00  0.00    +0.094 A 
ATOM      7  C   UNL     1      -0.755  -8.850  -0.946  0.00  0.00    +0.132 A 
ATOM      8  N   UNL     1      -1.367  -7.668  -0.910  0.00  0.00    -0.213 NA
ATOM      9  C   UNL     1      -1.621  -7.073   0.240  0.00  0.00    +0.172 A 
ATOM     10  N   UNL     1      -1.303  -7.604   1.401  0.00  0.00    -0.193 NA
ATOM     11  C   UNL     1       0.894 -11.769   2.888  0.00  0.00    +0.087 C 
BRANCH   7  12
ATOM     12  N   UNL     1      -0.483  -9.472  -2.152  0.00  0.00    -0.342 N 
ATOM     13  H   UNL     1      -0.769  -8.988  -3.097  0.00  0.00    +0.144 HD
ATOM     14  H   UNL     1       0.019 -10.451  -2.165  0.00  0.00    +0.144 HD
ENDBRANCH   7  12
BRANCH   2  15
ATOM     15  C   UNL     1       0.768 -11.761  -0.227  0.00  0.00    +0.343 C 
ATOM     16  O   UNL     1       1.913 -11.717  -0.631  0.00  0.00    -0.245 OA
BRANCH  15  17
ATOM     17  O   UNL     1      -0.038 -12.778  -0.593  0.00  0.00    -0.461 OA
BRANCH  17  19
ATOM     18  C   UNL     1      -0.526 -14.850  -1.777  0.00  0.00    +0.048 C 
ATOM     19  C   UNL     1       0.529 -13.785  -1.473  0.00  0.00    +0.229 C 
ENDBRANCH  17  19
ENDBRANCH  15  17
ENDBRANCH   2  15
ENDBRANCH   1   9
BRANCH   1  20
ATOM     20  O   UNL     1      -1.332  -4.694   0.170  0.00  0.00    -0.453 OA
BRANCH  20  21
ATOM     21  C   UNL     1      -1.787  -3.423   0.148  0.00  0.00    +0.348 C 
ATOM     22  O   UNL     1      -2.984  -3.205   0.173  0.00  0.00    -0.244 OA
BRANCH  21  23
ATOM     23  C   UNL     1      -0.872  -2.345   0.096  0.00  0.00    +0.119 A 
ATOM     24  C   UNL     1      -1.145  -0.994   0.068  0.00  0.00    +0.055 A 
ATOM     25  C   UNL     1      -0.026  -0.065   0.015  0.00  0.00    +0.030 A 
ATOM     26  C   UNL     1      -0.053   1.351  -0.020  0.00  0.00    -0.037 A 
ATOM     27  C   UNL     1       1.137   2.039  -0.068  0.00  0.00    +0.025 A 
ATOM     28  C   UNL     1       2.343   1.355  -0.081  0.00  0.00    +0.014 A 
ATOM     29  N   UNL     1       2.364   0.037  -0.047  0.00  0.00    -0.353 N 
ATOM     30  C   UNL     1       1.253  -0.666  -0.001  0.00  0.00    +0.088 A 
ATOM     31  S   UNL     1       0.908  -2.408   0.053  0.00  0.00    -0.062 S 
ATOM     32  C   UNL     1       3.639   2.123  -0.134  0.00  0.00    +0.063 C 
ATOM     33  C   UNL     1      -1.365   2.092  -0.013  0.00  0.00    +0.044 C 
ATOM     34  H   UNL     1       3.325  -0.498  -0.057  0.00  0.00    +0.166 HD
BRANCH  24  35
ATOM     35  N   UNL     1      -2.452  -0.531   0.088  0.00  0.00    -0.356 N 
ATOM     36  H   UNL     1      -2.654   0.550   0.065  0.00  0.00    +0.142 HD
ATOM     37  H   UNL     1      -3.288  -1.246   0.127  0.00  0.00    +0.142 HD
ENDBRANCH  24  35
ENDBRANCH  21  23
ENDBRANCH  20  21
ENDBRANCH   1  20
TORSDOF 9
