REMARK  Name = ZINC00888126
REMARK  10 active torsions:
REMARK  status: ('A' for Active; 'I' for Inactive)
REMARK    1  A    between atoms: C_5  and  C_7
REMARK    2  A    between atoms: C_7  and  N_8
REMARK    3  A    between atoms: N_8  and  C_9
REMARK    4  A    between atoms: C_9  and  C_11
REMARK    5  A    between atoms: C_9  and  C_17
REMARK    6  A    between atoms: N_19  and  C_20
REMARK    7  A    between atoms: C_20  and  C_21
REMARK    8  A    between atoms: C_28  and  C_30
REMARK    9  A    between atoms: C_30  and  N_31
REMARK   10  A    between atoms: C_33  and  C_36
REMARK                            x       y       z     vdW  Elec       q    Type
REMARK                         _______ _______ _______ _____ _____    ______ ____
ROOT
ATOM      1  N   UNL     1       1.606  -3.196   1.799  0.00  0.00    -0.280 N 
ATOM      2  C   UNL     1       2.330  -3.634   2.849  0.00  0.00    +0.240 C 
ATOM      3  O   UNL     1       1.859  -3.602   3.966  0.00  0.00    -0.273 OA
ENDROOT
BRANCH   1   4
ATOM      4  C   UNL     1       2.208  -3.146   0.464  0.00  0.00    +0.145 C 
BRANCH   4   9
ATOM      5  C   UNL     1       3.926  -6.340  -0.584  0.00  0.00    +0.000 A 
ATOM      6  C   UNL     1       2.850  -7.122  -0.960  0.00  0.00    +0.001 A 
ATOM      7  C   UNL     1       1.566  -6.619  -0.875  0.00  0.00    +0.020 A 
ATOM      8  C   UNL     1       1.357  -5.331  -0.414  0.00  0.00    +0.046 A 
ATOM      9  C   UNL     1       2.434  -4.549  -0.038  0.00  0.00    -0.012 A 
ATOM     10  C   UNL     1       3.718  -5.053  -0.123  0.00  0.00    +0.006 A 
ATOM     11 CL   UNL     1      -0.255  -4.698  -0.308  0.00  0.00    -0.083 Cl
ENDBRANCH   4   9
ENDBRANCH   1   4
BRANCH   1  12
ATOM     12  C   UNL     1       0.217  -2.772   1.993  0.00  0.00    +0.193 C 
BRANCH  12  13
ATOM     13  C   UNL     1      -0.224  -1.944   0.814  0.00  0.00    -0.015 A 
ATOM     14  C   UNL     1       0.572  -0.917   0.329  0.00  0.00    +0.025 A 
ATOM     15  C   UNL     1       0.134  -0.180  -0.754  0.00  0.00    +0.111 A 
ATOM     16  N   UNL     1      -1.026  -0.442  -1.325  0.00  0.00    -0.263 NA
ATOM     17  C   UNL     1      -1.809  -1.411  -0.890  0.00  0.00    +0.111 A 
ATOM     18  C   UNL     1      -1.434  -2.194   0.184  0.00  0.00    +0.025 A 
ENDBRANCH  12  13
BRANCH  12  19
ATOM     19  C   UNL     1       0.115  -1.948   3.251  0.00  0.00    +0.238 C 
ATOM     20  O   UNL     1       0.996  -1.164   3.536  0.00  0.00    -0.273 OA
ATOM     21  N   UNL     1      -0.954  -2.083   4.060  0.00  0.00    -0.309 N 
ATOM     22  H   UNL     1      -1.658  -2.710   3.833  0.00  0.00    +0.149 HD
BRANCH  21  23
ATOM     23  C   UNL     1      -1.053  -1.283   5.283  0.00  0.00    +0.139 C 
BRANCH  23  24
ATOM     24  C   UNL     1      -2.334  -1.621   6.002  0.00  0.00    -0.030 A 
ATOM     25  C   UNL     1      -3.491  -0.920   5.719  0.00  0.00    +0.008 A 
ATOM     26  C   UNL     1      -4.666  -1.229   6.377  0.00  0.00    +0.038 A 
ATOM     27  C   UNL     1      -4.684  -2.242   7.321  0.00  0.00    +0.123 A 
ATOM     28  C   UNL     1      -3.524  -2.943   7.604  0.00  0.00    +0.038 A 
ATOM     29  C   UNL     1      -2.352  -2.636   6.941  0.00  0.00    +0.008 A 
ATOM     30  F   UNL     1      -5.832  -2.545   7.966  0.00  0.00    -0.205 F 
ENDBRANCH  23  24
ENDBRANCH  21  23
ENDBRANCH  12  19
ENDBRANCH   1  12
BRANCH   2  31
ATOM     31  C   UNL     1       3.725  -4.162   2.634  0.00  0.00    +0.264 C 
BRANCH  31  32
ATOM     32  N   UNL     1       4.381  -4.351   3.930  0.00  0.00    -0.154 N 
ATOM     33  N   UNL     1       5.076  -3.460   4.550  0.00  0.00    -0.129 NA
ATOM     34  C   UNL     1       5.503  -3.995   5.679  0.00  0.00    +0.211 A 
ATOM     35  N   UNL     1       5.031  -5.251   5.710  0.00  0.00    -0.107 NA
ATOM     36  N   UNL     1       4.348  -5.430   4.630  0.00  0.00    -0.045 NA
BRANCH  34  37
ATOM     37  C   UNL     1       6.338  -3.339   6.708  0.00  0.00    +0.060 A 
ATOM     38  C   UNL     1       6.811  -3.847   7.888  0.00  0.00    +0.019 A 
ATOM     39  C   UNL     1       7.580  -3.039   8.696  0.00  0.00    +0.008 A 
ATOM     40  C   UNL     1       7.846  -1.768   8.300  0.00  0.00    +0.046 A 
ATOM     41  S   UNL     1       6.999  -1.681   6.731  0.00  0.00    -0.093 S 
ENDBRANCH  34  37
ENDBRANCH  31  32
ENDBRANCH   2  31
TORSDOF 10
