REMARK  Name = ZINC13671034
REMARK  7 active torsions:
REMARK  status: ('A' for Active; 'I' for Inactive)
REMARK    1  A    between atoms: C_1  and  C_2
REMARK    2  A    between atoms: C_5  and  C_24
REMARK    3  A    between atoms: C_6  and  N_8
REMARK    4  A    between atoms: N_8  and  S_9
REMARK    5  A    between atoms: S_9  and  C_12
REMARK    6  A    between atoms: C_19  and  C_22
REMARK    7  A    between atoms: C_19  and  C_23
REMARK                            x       y       z     vdW  Elec       q    Type
REMARK                         _______ _______ _______ _____ _____    ______ ____
ROOT
ATOM      1  S   UNL     1       2.724   4.158   0.019  0.00  0.00    +0.072 S 
ATOM      2  O   UNL     1       2.511   5.469   0.524  0.00  0.00    -0.150 OA
ATOM      3  O   UNL     1       3.705   3.283   0.560  0.00  0.00    -0.150 OA
ENDROOT
BRANCH   1   4
ATOM      4  C   UNL     1       1.181   3.317   0.134  0.00  0.00    +0.109 A 
ATOM      5  C   UNL     1       1.147   1.936   0.197  0.00  0.00    +0.029 A 
ATOM      6  C   UNL     1      -0.064   1.280   0.285  0.00  0.00    +0.008 A 
ATOM      7  C   UNL     1      -1.249   2.000   0.305  0.00  0.00    -0.019 A 
ATOM      8  C   UNL     1      -1.215   3.377   0.252  0.00  0.00    -0.037 A 
ATOM      9  C   UNL     1       0.002   4.035   0.162  0.00  0.00    +0.033 A 
ATOM     10  C   UNL     1      -2.481   4.195   0.291  0.00  0.00    +0.070 C 
ATOM     11  C   UNL     1      -3.681   3.304  -0.044  0.00  0.00    +0.068 C 
ATOM     12  O   UNL     1      -3.608   2.127   0.768  0.00  0.00    -0.369 OA
ATOM     13  C   UNL     1      -2.552   1.247   0.386  0.00  0.00    +0.196 C 
ATOM     14  C   UNL     1      -3.644   2.912  -1.523  0.00  0.00    +0.041 C 
ATOM     15  C   UNL     1      -4.980   4.056   0.255  0.00  0.00    +0.041 C 
ENDBRANCH   1   4
BRANCH   1  16
ATOM     16  N   UNL     1       3.074   4.322  -1.592  0.00  0.00    -0.216 N 
ATOM     17  H   UNL     1       3.879   3.922  -1.957  0.00  0.00    +0.174 HD
BRANCH  16  23
ATOM     18  C   UNL     1      -0.033   8.074  -2.245  0.00  0.00    +0.044 C 
ATOM     19  C   UNL     1       0.689   6.859  -2.768  0.00  0.00    -0.049 A 
ATOM     20  C   UNL     1       0.496   6.450  -4.075  0.00  0.00    +0.004 A 
ATOM     21  C   UNL     1       1.157   5.336  -4.559  0.00  0.00    +0.005 A 
ATOM     22  C   UNL     1       2.016   4.630  -3.739  0.00  0.00    -0.028 A 
ATOM     23  C   UNL     1       2.208   5.035  -2.425  0.00  0.00    +0.051 A 
ATOM     24  C   UNL     1       1.543   6.155  -1.942  0.00  0.00    +0.028 A 
ATOM     25  C   UNL     1       2.740   3.420  -4.269  0.00  0.00    +0.046 C 
ENDBRANCH  16  23
ENDBRANCH   1  16
TORSDOF 3
