REMARK  Name = ZINC32093344
REMARK  8 active torsions:
REMARK  status: ('A' for Active; 'I' for Inactive)
REMARK    1  A    between atoms: C_1  and  C_2
REMARK    2  A    between atoms: C_2  and  C_3
REMARK    3  A    between atoms: C_2  and  C_4
REMARK    4  A    between atoms: C_4  and  N_5
REMARK    5  A    between atoms: C_16  and  O_31
REMARK    6  A    between atoms: N_22  and  C_23
REMARK    7  A    between atoms: C_26  and  O_29
REMARK    8  A    between atoms: O_29  and  C_30
REMARK                            x       y       z     vdW  Elec       q    Type
REMARK                         _______ _______ _______ _____ _____    ______ ____
ROOT
ATOM      1  N   UNL     1      -1.416  -1.993  -0.116  0.00  0.00    -0.270 N 
ATOM      2  C   UNL     1      -1.448  -2.663  -1.326  0.00  0.00    +0.041 A 
ATOM      3  C   UNL     1      -1.498  -2.150  -2.622  0.00  0.00    +0.024 A 
ATOM      4  C   UNL     1      -1.520  -3.062  -3.666  0.00  0.00    +0.002 A 
ATOM      5  C   UNL     1      -1.493  -4.424  -3.446  0.00  0.00    +0.000 A 
ATOM      6  C   UNL     1      -1.443  -4.949  -2.159  0.00  0.00    +0.007 A 
ATOM      7  C   UNL     1      -1.421  -4.048  -1.116  0.00  0.00    -0.006 A 
ATOM      8  C   UNL     1      -1.369  -4.244   0.365  0.00  0.00    +0.112 C 
ATOM      9  C   UNL     1      -1.363  -2.842   0.932  0.00  0.00    +0.235 C 
ATOM     10  O   UNL     1      -1.321  -2.539   2.106  0.00  0.00    -0.274 OA
ATOM     11  C   UNL     1      -2.586  -5.019   0.867  0.00  0.00    +0.121 C 
ATOM     12  C   UNL     1      -2.406  -6.500   0.693  0.00  0.00    +0.191 C 
ATOM     13  N   UNL     1      -1.254  -7.097   0.766  0.00  0.00    -0.197 NA
ATOM     14  C   UNL     1      -0.126  -6.357   0.960  0.00  0.00    +0.164 A 
ATOM     15  C   UNL     1      -0.124  -4.978   0.779  0.00  0.00    +0.036 A 
ATOM     16  C   UNL     1       1.151  -4.517   1.046  0.00  0.00    +0.142 A 
ATOM     17  N   UNL     1       1.907  -5.544   1.363  0.00  0.00    -0.173 NA
ATOM     18  N   UNL     1       1.131  -6.714   1.307  0.00  0.00    -0.214 N 
ENDROOT
BRANCH  18  19
ATOM     19  C   UNL     1       1.580  -8.017   1.565  0.00  0.00    +0.068 A 
ATOM     20  C   UNL     1       0.734  -8.935   2.173  0.00  0.00    +0.031 A 
ATOM     21  C   UNL     1       1.176 -10.217   2.427  0.00  0.00    +0.048 A 
ATOM     22  C   UNL     1       2.466 -10.590   2.075  0.00  0.00    +0.120 A 
ATOM     23  C   UNL     1       3.312  -9.673   1.468  0.00  0.00    +0.048 A 
ATOM     24  C   UNL     1       2.868  -8.391   1.208  0.00  0.00    +0.031 A 
BRANCH  22  25
ATOM     25  O   UNL     1       2.901 -11.853   2.326  0.00  0.00    -0.495 OA
ATOM     26  C   UNL     1       4.240 -12.167   1.937  0.00  0.00    +0.277 C 
ENDBRANCH  22  25
ENDBRANCH  18  19
BRANCH  12  27
ATOM     27  O   UNL     1      -3.500  -7.250   0.450  0.00  0.00    -0.495 OA
ATOM     28  H   UNL     1      -3.314  -8.194   0.349  0.00  0.00    +0.293 HD
ENDBRANCH  12  27
BRANCH   1  29
ATOM     29  C   UNL     1      -1.433  -0.534   0.013  0.00  0.00    +0.116 C 
BRANCH  29  31
ATOM     30  C   UNL     1      -0.019   1.526   0.010  0.00  0.00    +0.009 C 
ATOM     31  C   UNL     1       0.002  -0.004   0.002  0.00  0.00    +0.001 C 
ATOM     32  C   UNL     1       0.742  -0.511   1.242  0.00  0.00    +0.009 C 
ENDBRANCH  29  31
ENDBRANCH   1  29
TORSDOF 5
