REMARK  Name = ZINC36390293
REMARK  10 active torsions:
REMARK  status: ('A' for Active; 'I' for Inactive)
REMARK    1  A    between atoms: C_1  and  C_2
REMARK    2  A    between atoms: C_9  and  N_15
REMARK    3  A    between atoms: C_10  and  C_11
REMARK    4  A    between atoms: C_11  and  O_13
REMARK    5  A    between atoms: O_13  and  C_14
REMARK    6  A    between atoms: C_16  and  C_18
REMARK    7  A    between atoms: C_18  and  N_19
REMARK    8  A    between atoms: C_23  and  C_25
REMARK    9  A    between atoms: N_27  and  C_28
REMARK   10  A    between atoms: C_28  and  C_29
REMARK                            x       y       z     vdW  Elec       q    Type
REMARK                         _______ _______ _______ _____ _____    ______ ____
ROOT
ATOM      1  N   UNL     1       0.698  -5.847   2.435  0.00  0.00    -0.281 N 
ATOM      2  C   UNL     1       1.679  -6.094   3.325  0.00  0.00    +0.201 C 
ATOM      3  O   UNL     1       2.384  -5.189   3.717  0.00  0.00    -0.278 OA
ATOM      4  H   UNL     1       0.134  -6.571   2.121  0.00  0.00    +0.155 HD
ENDROOT
BRANCH   1  12
ATOM      5  C   UNL     1      -0.019   1.526   0.010  0.00  0.00    +0.008 C 
ATOM      6  C   UNL     1       0.002  -0.004   0.002  0.00  0.00    -0.009 C 
ATOM      7  C   UNL     1      -1.434  -0.537   0.019  0.00  0.00    +0.008 C 
ATOM      8  C   UNL     1      -1.432  -2.045  -0.237  0.00  0.00    +0.037 C 
ATOM      9  C   UNL     1      -0.464  -2.704   0.735  0.00  0.00    -0.021 A 
ATOM     10  C   UNL     1       0.485  -1.986   1.374  0.00  0.00    -0.004 A 
ATOM     11  S   UNL     1       1.344  -3.167   2.373  0.00  0.00    -0.077 S 
ATOM     12  C   UNL     1       0.494  -4.558   1.968  0.00  0.00    +0.086 A 
ATOM     13  C   UNL     1      -0.459  -4.120   1.061  0.00  0.00    +0.091 A 
ATOM     14  C   UNL     1       0.739  -0.515   1.248  0.00  0.00    +0.046 C 
BRANCH  13  15
ATOM     15  C   UNL     1      -1.419  -5.045   0.456  0.00  0.00    +0.342 C 
ATOM     16  O   UNL     1      -1.147  -5.610  -0.586  0.00  0.00    -0.245 OA
BRANCH  15  17
ATOM     17  O   UNL     1      -2.607  -5.272   1.056  0.00  0.00    -0.464 OA
ATOM     18  C   UNL     1      -3.495  -6.186   0.410  0.00  0.00    +0.280 C 
ENDBRANCH  15  17
ENDBRANCH  13  15
ENDBRANCH   1  12
BRANCH   2  19
ATOM     19  C   UNL     1       1.901  -7.496   3.832  0.00  0.00    +0.020 C 
BRANCH  19  20
ATOM     20  N   UNL     1       3.020  -7.501   4.784  0.00  0.00    +0.393 N 
ATOM     21  C   UNL     1       2.640  -6.780   6.025  0.00  0.00    -0.077 C 
ATOM     22  C   UNL     1       3.629  -7.341   7.078  0.00  0.00    -0.020 C 
ATOM     23  C   UNL     1       3.749  -8.830   6.680  0.00  0.00    -0.008 C 
ATOM     24  C   UNL     1       3.328  -8.886   5.200  0.00  0.00    +0.020 C 
ATOM     25  H   UNL     1       3.833  -7.074   4.367  0.00  0.00    -0.080 HD
BRANCH  24  26
ATOM     26  C   UNL     1       4.457  -9.434   4.365  0.00  0.00    +0.200 C 
ATOM     27  O   UNL     1       4.964  -8.746   3.504  0.00  0.00    -0.278 OA
ATOM     28  N   UNL     1       4.904 -10.688   4.576  0.00  0.00    -0.310 N 
ATOM     29  H   UNL     1       4.500 -11.238   5.265  0.00  0.00    +0.149 HD
BRANCH  28  30
ATOM     30  C   UNL     1       6.002 -11.220   3.765  0.00  0.00    +0.178 C 
BRANCH  30  31
ATOM     31  C   UNL     1       6.308 -12.631   4.197  0.00  0.00    +0.122 A 
ATOM     32  C   UNL     1       5.751 -13.746   3.693  0.00  0.00    +0.046 A 
ATOM     33  C   UNL     1       6.324 -14.839   4.384  0.00  0.00    +0.041 A 
ATOM     34  C   UNL     1       7.197 -14.325   5.269  0.00  0.00    +0.195 A 
ATOM     35  O   UNL     1       7.188 -12.988   5.148  0.00  0.00    -0.466 OA
ENDBRANCH  30  31
ENDBRANCH  28  30
ENDBRANCH  24  26
ENDBRANCH  19  20
ENDBRANCH   2  19
TORSDOF 8
