REMARK  Name = ZINC09087225
REMARK  5 active torsions:
REMARK  status: ('A' for Active; 'I' for Inactive)
REMARK    1  A    between atoms: C_3  and  N_8
REMARK    2  A    between atoms: C_12  and  C_13
REMARK    3  A    between atoms: N_17  and  C_18
REMARK    4  A    between atoms: C_21  and  O_24
REMARK    5  A    between atoms: C_26  and  O_27
REMARK                            x       y       z     vdW  Elec       q    Type
REMARK                         _______ _______ _______ _____ _____    ______ ____
ROOT
ATOM      1  N   UNL     1      -0.273  -1.985   0.884  0.00  0.00    -0.189 N 
ATOM      2  C   UNL     1      -0.898  -0.790   0.800  0.00  0.00    +0.277 C 
ATOM      3  O   UNL     1      -2.052  -0.538   1.101  0.00  0.00    -0.267 OA
ATOM      4  C   UNL     1       0.105   0.141   0.266  0.00  0.00    +0.133 C 
ATOM      5  C   UNL     1      -0.065   1.487   0.000  0.00  0.00    +0.059 C 
ATOM      6  N   UNL     1       1.245  -0.596   0.091  0.00  0.00    -0.194 NA
ATOM      7  C   UNL     1       1.019  -1.828   0.451  0.00  0.00    +0.295 C 
ENDROOT
BRANCH   1  10
ATOM      8  C   UNL     1      -2.762  -4.410   2.094  0.00  0.00    +0.003 A 
ATOM      9  C   UNL     1      -2.199  -3.231   1.647  0.00  0.00    +0.024 A 
ATOM     10  C   UNL     1      -0.846  -3.180   1.343  0.00  0.00    +0.047 A 
ATOM     11  C   UNL     1      -0.059  -4.313   1.498  0.00  0.00    +0.044 A 
ATOM     12  C   UNL     1      -0.626  -5.490   1.950  0.00  0.00    +0.043 A 
ATOM     13  C   UNL     1      -1.977  -5.538   2.248  0.00  0.00    +0.020 A 
ATOM     14 CL   UNL     1       0.357  -6.907   2.145  0.00  0.00    -0.083 Cl
ENDBRANCH   1  10
BRANCH   5  15
ATOM     15  C   UNL     1      -1.346   2.068   0.098  0.00  0.00    +0.049 A 
ATOM     16  C   UNL     1      -1.686   3.185   0.847  0.00  0.00    +0.027 A 
ATOM     17  C   UNL     1      -3.050   3.411   0.651  0.00  0.00    +0.020 A 
ATOM     18  C   UNL     1      -3.518   2.451  -0.184  0.00  0.00    +0.092 A 
ATOM     19  N   UNL     1      -2.493   1.627  -0.529  0.00  0.00    -0.316 N 
BRANCH  19  20
ATOM     20  C   UNL     1      -2.586   0.516  -1.379  0.00  0.00    +0.047 A 
ATOM     21  C   UNL     1      -1.706   0.381  -2.445  0.00  0.00    +0.030 A 
ATOM     22  C   UNL     1      -1.795  -0.717  -3.277  0.00  0.00    +0.047 A 
ATOM     23  C   UNL     1      -2.769  -1.679  -3.056  0.00  0.00    +0.117 A 
ATOM     24  C   UNL     1      -3.652  -1.542  -1.995  0.00  0.00    +0.047 A 
ATOM     25  C   UNL     1      -3.561  -0.448  -1.158  0.00  0.00    +0.030 A 
BRANCH  23  26
ATOM     26  O   UNL     1      -2.860  -2.757  -3.880  0.00  0.00    -0.507 OA
ATOM     27  H   UNL     1      -3.382  -2.599  -4.679  0.00  0.00    +0.292 HD
ENDBRANCH  23  26
ENDBRANCH  19  20
ENDBRANCH   5  15
BRANCH   7  28
ATOM     28  O   UNL     1       1.936  -2.821   0.404  0.00  0.00    -0.481 OA
ATOM     29  H   UNL     1       2.801  -2.541   0.073  0.00  0.00    +0.295 HD
ENDBRANCH   7  28
TORSDOF 5
