REMARK  Name = ZINC55403397
REMARK  3 active torsions:
REMARK  status: ('A' for Active; 'I' for Inactive)
REMARK    1  A    between atoms: C_1  and  C_2
REMARK    2  A    between atoms: C_10  and  N_12
REMARK    3  A    between atoms: C_18  and  C_21
REMARK                            x       y       z     vdW  Elec       q    Type
REMARK                         _______ _______ _______ _____ _____    ______ ____
ROOT
ATOM      1  N   UNL     1      -3.032  -2.725   0.924  0.00  0.00    -0.291 N 
ATOM      2  C   UNL     1      -3.979  -1.859   0.513  0.00  0.00    +0.306 C 
ATOM      3  O   UNL     1      -3.966  -1.440  -0.628  0.00  0.00    -0.252 OA
ATOM      4  N   UNL     1      -4.941  -1.458   1.367  0.00  0.00    -0.247 N 
ATOM      5  C   UNL     1      -5.917  -0.566   0.944  0.00  0.00    +0.186 A 
ATOM      6  N   UNL     1      -6.925  -0.060   1.630  0.00  0.00    -0.204 NA
ATOM      7  C   UNL     1      -7.732   0.780   1.005  0.00  0.00    +0.170 A 
ATOM      8  N   UNL     1      -7.477   1.055  -0.258  0.00  0.00    -0.187 NA
ATOM      9  S   UNL     1      -6.104   0.144  -0.567  0.00  0.00    +0.050 S 
ATOM     10  H   UNL     1      -3.043  -3.059   1.835  0.00  0.00    +0.151 HD
ATOM     11  H   UNL     1      -4.952  -1.792   2.278  0.00  0.00    +0.158 HD
ENDROOT
BRANCH   1  21
ATOM     12  C   UNL     1      -0.018   1.503   0.010  0.00  0.00    +0.073 C 
ATOM     13  C   UNL     1       0.002  -0.004   0.002  0.00  0.00    +0.076 A 
ATOM     14  N   UNL     1      -1.012  -0.831   0.002  0.00  0.00    -0.247 NA
ATOM     15  C   UNL     1      -0.850  -2.149  -0.006  0.00  0.00    +0.072 A 
ATOM     16  C   UNL     1       0.445  -2.563  -0.015  0.00  0.00    +0.015 A 
ATOM     17  S   UNL     1       1.337  -1.033  -0.017  0.00  0.00    -0.077 S 
ATOM     18  C   UNL     1       0.954  -3.965  -0.028  0.00  0.00    +0.044 C 
ATOM     19  C   UNL     1      -0.213  -4.894  -0.399  0.00  0.00    +0.007 C 
ATOM     20  C   UNL     1      -1.434  -4.517   0.445  0.00  0.00    +0.029 C 
ATOM     21  C   UNL     1      -1.986  -3.162  -0.004  0.00  0.00    +0.124 C 
ENDBRANCH   1  21
BRANCH   7  22
ATOM     22  C   UNL     1      -8.889   1.393   1.704  0.00  0.00    +0.020 A 
ATOM     23  C   UNL     1      -9.137   1.092   3.042  0.00  0.00    +0.011 A 
ATOM     24  C   UNL     1     -10.214   1.665   3.687  0.00  0.00    +0.001 A 
ATOM     25  C   UNL     1     -11.047   2.537   3.008  0.00  0.00    +0.000 A 
ATOM     26  C   UNL     1     -10.805   2.838   1.680  0.00  0.00    +0.001 A 
ATOM     27  C   UNL     1      -9.727   2.276   1.026  0.00  0.00    +0.011 A 
ENDBRANCH   7  22
TORSDOF 2
