REMARK  Name = ZINC39661299
REMARK  5 active torsions:
REMARK  status: ('A' for Active; 'I' for Inactive)
REMARK    1  A    between atoms: C_3  and  C_15
REMARK    2  A    between atoms: C_4  and  O_7
REMARK    3  A    between atoms: O_7  and  C_8
REMARK    4  A    between atoms: C_19  and  C_28
REMARK    5  A    between atoms: N_30  and  C_31
REMARK                            x       y       z     vdW  Elec       q    Type
REMARK                         _______ _______ _______ _____ _____    ______ ____
ROOT
ATOM      1  C   UNL     1       4.041   1.927  -0.219  0.00  0.00    +0.252 C 
ATOM      2  O   UNL     1       5.119   1.364  -0.217  0.00  0.00    -0.270 OA
ATOM      3  N   UNL     1       3.983   3.273  -0.261  0.00  0.00    -0.296 N 
ATOM      4  C   UNL     1       2.778   4.128  -0.370  0.00  0.00    +0.121 C 
ATOM      5  C   UNL     1       3.062   5.324   0.566  0.00  0.00    +0.100 C 
ATOM      6  C   UNL     1       4.595   5.388   0.666  0.00  0.00    -0.004 C 
ATOM      7  C   UNL     1       5.112   4.232  -0.202  0.00  0.00    +0.115 C 
ATOM      8  C   UNL     1       5.038   5.192   2.113  0.00  0.00    -0.010 C 
ATOM      9  C   UNL     1       6.562   5.318   2.196  0.00  0.00    -0.082 C 
ATOM     10  N   UNL     1       6.973   6.641   1.712  0.00  0.00    +0.379 N 
ATOM     11  C   UNL     1       6.625   6.786   0.293  0.00  0.00    -0.082 C 
ATOM     12  C   UNL     1       5.104   6.722   0.130  0.00  0.00    -0.010 C 
ATOM     13  H   UNL     1       6.502   7.355   2.247  0.00  0.00    -0.086 HD
ATOM     14  H   UNL     1       7.971   6.744   1.824  0.00  0.00    -0.086 HD
ENDROOT
BRANCH   1  17
ATOM     15  C   UNL     1       0.511   0.791  -0.787  0.00  0.00    +0.021 A 
ATOM     16  C   UNL     1       1.653   1.568  -0.859  0.00  0.00    +0.020 A 
ATOM     17  C   UNL     1       2.796   1.137  -0.175  0.00  0.00    +0.099 A 
ATOM     18  C   UNL     1       2.736  -0.062   0.552  0.00  0.00    +0.233 A 
ATOM     19  N   UNL     1       1.618  -0.767   0.588  0.00  0.00    -0.220 NA
ATOM     20  C   UNL     1       0.530  -0.379  -0.049  0.00  0.00    +0.114 A 
BRANCH  18  21
ATOM     21  O   UNL     1       3.829  -0.499   1.221  0.00  0.00    -0.437 OA
BRANCH  21  22
ATOM     22  C   UNL     1       3.767  -1.718   1.819  0.00  0.00    +0.130 A 
ATOM     23  C   UNL     1       3.885  -2.872   1.057  0.00  0.00    +0.048 A 
ATOM     24  C   UNL     1       3.821  -4.110   1.666  0.00  0.00    +0.023 A 
ATOM     25  C   UNL     1       3.639  -4.200   3.035  0.00  0.00    +0.041 A 
ATOM     26  C   UNL     1       3.521  -3.051   3.796  0.00  0.00    +0.023 A 
ATOM     27  C   UNL     1       3.590  -1.811   3.192  0.00  0.00    +0.048 A 
ATOM     28 CL   UNL     1       3.559  -5.758   3.798  0.00  0.00    -0.084 Cl
ENDBRANCH  21  22
ENDBRANCH  18  21
ENDBRANCH   1  17
BRANCH   5  29
ATOM     29  C   UNL     1       2.454   5.083   1.924  0.00  0.00    +0.219 C 
ATOM     30  O   UNL     1       2.358   3.953   2.353  0.00  0.00    -0.275 OA
ATOM     31  N   UNL     1       2.018   6.124   2.661  0.00  0.00    -0.304 N 
ATOM     32  H   UNL     1       2.095   7.027   2.317  0.00  0.00    +0.149 HD
BRANCH  31  33
ATOM     33  C   UNL     1       1.427   5.890   3.981  0.00  0.00    +0.151 C 
ATOM     34  C   UNL     1       1.637   7.133   4.847  0.00  0.00    +0.042 C 
ATOM     35  C   UNL     1       0.560   7.120   5.958  0.00  0.00    +0.079 C 
ATOM     36  S   UNL     1      -0.820   6.242   5.128  0.00  0.00    -0.086 S 
ATOM     37  C   UNL     1      -0.037   5.559   3.813  0.00  0.00    +0.209 C 
ATOM     38  O   UNL     1      -0.544   4.927   2.910  0.00  0.00    -0.283 OA
ENDBRANCH  31  33
ENDBRANCH   5  29
TORSDOF 5
