REMARK  Name = ZINC03322320
REMARK  5 active torsions:
REMARK  status: ('A' for Active; 'I' for Inactive)
REMARK    1  A    between atoms: N_8  and  N_9
REMARK    2  A    between atoms: N_9  and  S_10
REMARK    3  A    between atoms: S_10  and  C_13
REMARK    4  A    between atoms: N_22  and  C_23
REMARK    5  A    between atoms: C_23  and  O_24
REMARK                            x       y       z     vdW  Elec       q    Type
REMARK                         _______ _______ _______ _____ _____    ______ ____
ROOT
ATOM      1  C   UNL     1      -0.017   1.376   0.010  0.00  0.00    +0.001 A 
ATOM      2  C   UNL     1       1.172   2.087   0.002  0.00  0.00    +0.002 A 
ATOM      3  C   UNL     1       2.385   1.427  -0.013  0.00  0.00    +0.024 A 
ATOM      4  C   UNL     1       2.423   0.037  -0.021  0.00  0.00    +0.048 A 
ATOM      5  C   UNL     1       1.218  -0.677  -0.014  0.00  0.00    +0.029 A 
ATOM      6  C   UNL     1       0.002  -0.004   0.002  0.00  0.00    +0.012 A 
ATOM      7  C   UNL     1       1.584  -2.113  -0.025  0.00  0.00    +0.156 C 
ATOM      8  N   UNL     1       0.772  -3.145  -0.024  0.00  0.00    -0.136 NA
ATOM      9  C   UNL     1       3.057  -2.131  -0.040  0.00  0.00    +0.273 C 
ATOM     10  O   UNL     1       3.761  -3.124  -0.052  0.00  0.00    -0.268 OA
ATOM     11  N   UNL     1       3.487  -0.858  -0.037  0.00  0.00    -0.242 N 
ENDROOT
BRANCH   8  12
ATOM     12  N   UNL     1       1.250  -4.342  -0.035  0.00  0.00    +0.007 NA
BRANCH  12  13
ATOM     13  S   UNL     1       0.226  -5.644  -0.033  0.00  0.00    +0.108 S 
ATOM     14  O   UNL     1      -0.446  -5.629   1.219  0.00  0.00    -0.147 OA
ATOM     15  O   UNL     1      -0.469  -5.615  -1.272  0.00  0.00    -0.147 OA
BRANCH  13  16
ATOM     16  C   UNL     1       1.226  -7.094  -0.051  0.00  0.00    +0.112 A 
ATOM     17  C   UNL     1       1.612  -7.653  -1.255  0.00  0.00    +0.030 A 
ATOM     18  C   UNL     1       2.397  -8.790  -1.269  0.00  0.00    +0.017 A 
ATOM     19  C   UNL     1       2.797  -9.370  -0.078  0.00  0.00    +0.018 A 
ATOM     20  C   UNL     1       2.410  -8.810   1.126  0.00  0.00    +0.017 A 
ATOM     21  C   UNL     1       1.630  -7.670   1.140  0.00  0.00    +0.030 A 
ATOM     22 BR   UNL     1       3.870 -10.926  -0.097  0.00  0.00    -0.050 Br
ENDBRANCH  13  16
ENDBRANCH  12  13
ENDBRANCH   8  12
BRANCH  11  23
ATOM     23  C   UNL     1       4.897  -0.463  -0.049  0.00  0.00    +0.272 C 
BRANCH  23  24
ATOM     24  O   UNL     1       5.463  -0.677   1.246  0.00  0.00    -0.377 OA
ATOM     25  H   UNL     1       6.397  -0.437   1.312  0.00  0.00    +0.211 HD
ENDBRANCH  23  24
ENDBRANCH  11  23
TORSDOF 5
