REMARK  Name = ZINC66760687
REMARK  4 active torsions:
REMARK  status: ('A' for Active; 'I' for Inactive)
REMARK    1  A    between atoms: C_6  and  C_7
REMARK    2  A    between atoms: C_9  and  C_12
REMARK    3  A    between atoms: N_14  and  C_15
REMARK    4  A    between atoms: C_20  and  N_22
REMARK                            x       y       z     vdW  Elec       q    Type
REMARK                         _______ _______ _______ _____ _____    ______ ____
ROOT
ATOM      1  C   UNL     1      -1.267  -0.763   0.009  0.00  0.00    +0.109 A 
ATOM      2  N   UNL     1      -2.508  -0.310   0.017  0.00  0.00    -0.234 NA
ATOM      3  C   UNL     1      -3.501  -1.190   0.021  0.00  0.00    +0.133 A 
ATOM      4  C   UNL     1      -3.206  -2.527   0.018  0.00  0.00    +0.080 A 
ATOM      5  S   UNL     1      -1.523  -2.528   0.001  0.00  0.00    -0.075 S 
ENDROOT
BRANCH   1  11
ATOM      6  C   UNL     1      -0.017   1.391   0.010  0.00  0.00    +0.014 A 
ATOM      7  C   UNL     1       1.168   2.096   0.002  0.00  0.00    +0.050 A 
ATOM      8  C   UNL     1       2.383   1.423  -0.012  0.00  0.00    +0.162 A 
ATOM      9  C   UNL     1       2.408   0.031  -0.018  0.00  0.00    +0.163 A 
ATOM     10  C   UNL     1       1.222  -0.681  -0.012  0.00  0.00    +0.060 A 
ATOM     11  C   UNL     1       0.002  -0.004   0.002  0.00  0.00    +0.011 A 
ATOM     12  O   UNL     1       3.591  -0.643  -0.024  0.00  0.00    -0.485 OA
ATOM     13  C   UNL     1       4.754   0.100  -0.405  0.00  0.00    +0.270 C 
ATOM     14  C   UNL     1       4.734   1.440   0.343  0.00  0.00    +0.270 C 
ATOM     15  O   UNL     1       3.540   2.139  -0.023  0.00  0.00    -0.485 OA
ENDBRANCH   1  11
BRANCH   3  16
ATOM     16  C   UNL     1      -4.902  -0.735   0.031  0.00  0.00    +0.263 C 
ATOM     17  O   UNL     1      -5.806  -1.548   0.035  0.00  0.00    -0.269 OA
ATOM     18  N   UNL     1      -5.182   0.584   0.034  0.00  0.00    -0.305 N 
ATOM     19  H   UNL     1      -4.461   1.233   0.030  0.00  0.00    +0.149 HD
BRANCH  18  20
ATOM     20  C   UNL     1      -6.575   1.036   0.043  0.00  0.00    +0.096 C 
ATOM     21  C   UNL     1      -7.109   1.132  -1.401  0.00  0.00    +0.024 C 
ATOM     22  C   UNL     1      -8.022   2.383  -1.386  0.00  0.00    +0.004 C 
ATOM     23  C   UNL     1      -7.251   3.358  -0.463  0.00  0.00    +0.027 C 
ATOM     24  C   UNL     1      -6.665   2.451   0.641  0.00  0.00    +0.108 C 
BRANCH  24  25
ATOM     25  N   UNL     1      -7.549   2.447   1.809  0.00  0.00    -0.334 N 
ATOM     26  C   UNL     1      -8.870   2.090   1.828  0.00  0.00    +0.105 A 
ATOM     27  C   UNL     1      -9.294   2.231   3.098  0.00  0.00    +0.101 A 
ATOM     28  N   UNL     1      -8.260   2.663   3.835  0.00  0.00    -0.352 N 
ATOM     29  C   UNL     1      -7.210   2.790   3.071  0.00  0.00    +0.174 A 
ATOM     30  H   UNL     1      -8.288   2.848   4.787  0.00  0.00    +0.166 HD
ENDBRANCH  24  25
ENDBRANCH  18  20
ENDBRANCH   3  16
TORSDOF 4
