REMARK  Name = ZINC60208930
REMARK  8 active torsions:
REMARK  status: ('A' for Active; 'I' for Inactive)
REMARK    1  A    between atoms: C_1  and  C_2
REMARK    2  A    between atoms: C_4  and  S_25
REMARK    3  A    between atoms: C_6  and  C_7
REMARK    4  A    between atoms: N_12  and  S_15
REMARK    5  A    between atoms: S_15  and  C_18
REMARK    6  A    between atoms: C_19  and  C_24
REMARK    7  A    between atoms: C_22  and  C_23
REMARK    8  A    between atoms: S_25  and  N_28
REMARK                            x       y       z     vdW  Elec       q    Type
REMARK                         _______ _______ _______ _____ _____    ______ ____
ROOT
ATOM      1  C   UNL     1       0.030  -0.283   2.562  0.00  0.00    +0.254 C 
ATOM      2  O   UNL     1       0.119   0.906   2.806  0.00  0.00    -0.269 OA
ATOM      3  N   UNL     1      -0.050  -1.173   3.571  0.00  0.00    -0.295 N 
ATOM      4  C   UNL     1      -0.028  -2.617   3.298  0.00  0.00    +0.125 C 
ATOM      5  C   UNL     1       1.105  -3.253   4.112  0.00  0.00    +0.128 C 
ATOM      6  N   UNL     1       0.995  -2.797   5.505  0.00  0.00    -0.173 NA
ATOM      7  C   UNL     1       0.973  -1.353   5.779  0.00  0.00    +0.128 C 
ATOM      8  C   UNL     1      -0.155  -0.718   4.964  0.00  0.00    +0.125 C 
ENDROOT
BRANCH   1  14
ATOM      9  C   UNL     1       1.647   0.913   0.184  0.00  0.00    +0.045 C 
ATOM     10  C   UNL     1       0.703  -0.256   0.076  0.00  0.00    -0.029 A 
ATOM     11  C   UNL     1       0.480  -0.908  -1.112  0.00  0.00    +0.040 A 
ATOM     12  C   UNL     1      -0.383  -1.954  -1.139  0.00  0.00    +0.143 A 
ATOM     13  S   UNL     1      -0.918  -2.086   0.448  0.00  0.00    -0.064 S 
ATOM     14  C   UNL     1       0.009  -0.747   1.172  0.00  0.00    +0.079 A 
BRANCH  12  15
ATOM     15  S   UNL     1      -0.838  -2.947  -2.521  0.00  0.00    +0.062 S 
ATOM     16  O   UNL     1      -2.111  -3.502  -2.221  0.00  0.00    -0.153 OA
ATOM     17  O   UNL     1      -0.604  -2.161  -3.681  0.00  0.00    -0.153 OA
BRANCH  15  18
ATOM     18  N   UNL     1       0.227  -4.214  -2.586  0.00  0.00    -0.203 NA
ATOM     19  H   UNL     1       0.933  -4.288  -1.925  0.00  0.00    +0.144 HD
ATOM     20  H   UNL     1       0.144  -4.882  -3.285  0.00  0.00    +0.144 HD
ENDBRANCH  15  18
ENDBRANCH  12  15
ENDBRANCH   1  14
BRANCH   6  21
ATOM     21  S   UNL     1       0.896  -3.891   6.745  0.00  0.00    +0.066 S 
ATOM     22  O   UNL     1       0.258  -3.224   7.825  0.00  0.00    -0.153 OA
ATOM     23  O   UNL     1       0.388  -5.094   6.185  0.00  0.00    -0.153 OA
BRANCH  21  24
ATOM     24  C   UNL     1       2.543  -4.235   7.268  0.00  0.00    +0.170 A 
ATOM     25  C   UNL     1       3.377  -5.247   6.758  0.00  0.00    +0.107 A 
ATOM     26  N   UNL     1       4.514  -5.191   7.391  0.00  0.00    -0.081 NA
ATOM     27  O   UNL     1       4.439  -4.132   8.329  0.00  0.00    -0.358 OA
ATOM     28  C   UNL     1       3.225  -3.571   8.220  0.00  0.00    +0.161 A 
ATOM     29  C   UNL     1       2.714  -2.404   9.026  0.00  0.00    +0.091 C 
ATOM     30  C   UNL     1       3.016  -6.227   5.671  0.00  0.00    +0.071 C 
ENDBRANCH  21  24
ENDBRANCH   6  21
TORSDOF 5
