REMARK  Name = ZINC12917379
REMARK  9 active torsions:
REMARK  status: ('A' for Active; 'I' for Inactive)
REMARK    1  A    between atoms: C_1  and  C_2
REMARK    2  A    between atoms: C_2  and  C_3
REMARK    3  A    between atoms: C_3  and  C_4
REMARK    4  A    between atoms: C_4  and  N_5
REMARK    5  A    between atoms: N_5  and  C_6
REMARK    6  A    between atoms: C_7  and  N_22
REMARK    7  A    between atoms: N_8  and  C_15
REMARK    8  A    between atoms: C_15  and  C_16
REMARK    9  A    between atoms: C_23  and  C_25
REMARK                            x       y       z     vdW  Elec       q    Type
REMARK                         _______ _______ _______ _____ _____    ______ ____
ROOT
ATOM      1  C   UNL     1      -7.376   3.693  -0.089  0.00  0.00    +0.140 A 
ATOM      2  C   UNL     1      -8.243   3.859  -1.150  0.00  0.00    +0.128 A 
ATOM      3  N   UNL     1      -9.456   4.472  -0.938  0.00  0.00    -0.276 N 
ATOM      4  C   UNL     1      -9.794   4.904   0.291  0.00  0.00    +0.331 A 
ATOM      5  O   UNL     1     -10.871   5.443   0.459  0.00  0.00    -0.246 OA
ATOM      6  N   UNL     1      -8.962   4.751   1.337  0.00  0.00    -0.273 N 
ATOM      7  H   UNL     1      -9.236   5.085   2.239  0.00  0.00    +0.173 HD
ATOM      8  C   UNL     1      -7.765   4.153   1.183  0.00  0.00    +0.277 A 
ATOM      9  O   UNL     1      -7.020   4.015   2.139  0.00  0.00    -0.266 OA
ENDROOT
BRANCH   1  10
ATOM     10  N   UNL     1      -6.125   3.069  -0.276  0.00  0.00    -0.264 N 
ATOM     11  C   UNL     1      -4.991   3.799  -0.220  0.00  0.00    +0.227 C 
ATOM     12  O   UNL     1      -3.922   3.278  -0.460  0.00  0.00    -0.275 OA
BRANCH  11  13
ATOM     13  C   UNL     1      -5.053   5.260   0.141  0.00  0.00    +0.117 C 
ATOM     14  C   UNL     1      -3.807   5.648   0.941  0.00  0.00    +0.055 C 
ATOM     15  C   UNL     1      -3.718   7.149   1.046  0.00  0.00    -0.005 A 
ATOM     16  C   UNL     1      -2.900   7.701   2.019  0.00  0.00    +0.007 A 
ATOM     17  C   UNL     1      -2.790   9.072   2.140  0.00  0.00    +0.000 A 
ATOM     18  C   UNL     1      -3.497   9.901   1.288  0.00  0.00    +0.004 A 
ATOM     19  C   UNL     1      -4.314   9.357   0.319  0.00  0.00    +0.046 A 
ATOM     20  C   UNL     1      -4.434   7.975   0.199  0.00  0.00    +0.124 A 
ATOM     21  O   UNL     1      -5.250   7.477  -0.766  0.00  0.00    -0.491 OA
ATOM     22  C   UNL     1      -5.088   6.107  -1.137  0.00  0.00    +0.242 C 
ENDBRANCH  11  13
BRANCH  10  23
ATOM     23  C   UNL     1      -6.056   1.627  -0.529  0.00  0.00    +0.114 C 
BRANCH  23  24
ATOM     24  C   UNL     1      -5.950   0.880   0.801  0.00  0.00    +0.019 C 
BRANCH  24  26
ATOM     25  C   UNL     1      -5.653  -1.362   1.863  0.00  0.00    +0.004 C 
ATOM     26  C   UNL     1      -5.760  -0.615   0.533  0.00  0.00    -0.002 C 
ENDBRANCH  24  26
ENDBRANCH  23  24
ENDBRANCH  10  23
ENDBRANCH   1  10
BRANCH   2  27
ATOM     27  N   UNL     1      -7.897   3.418  -2.405  0.00  0.00    -0.343 N 
ATOM     28  H   UNL     1      -7.087   2.900  -2.531  0.00  0.00    +0.144 HD
ATOM     29  H   UNL     1      -8.464   3.625  -3.165  0.00  0.00    +0.144 HD
ENDBRANCH   2  27
BRANCH   3  30
ATOM     30  C   UNL     1     -10.385   4.655  -2.055  0.00  0.00    +0.163 C 
BRANCH  30  31
ATOM     31  C   UNL     1     -11.292   3.455  -2.156  0.00  0.00    -0.028 A 
ATOM     32  C   UNL     1     -10.928   2.379  -2.944  0.00  0.00    +0.005 A 
ATOM     33  C   UNL     1     -11.757   1.277  -3.033  0.00  0.00    +0.000 A 
ATOM     34  C   UNL     1     -12.955   1.255  -2.343  0.00  0.00    +0.000 A 
ATOM     35  C   UNL     1     -13.321   2.334  -1.560  0.00  0.00    +0.000 A 
ATOM     36  C   UNL     1     -12.489   3.434  -1.466  0.00  0.00    +0.005 A 
ENDBRANCH  30  31
ENDBRANCH   3  30
TORSDOF 8
