REMARK  Name = ZINC14584764
REMARK  7 active torsions:
REMARK  status: ('A' for Active; 'I' for Inactive)
REMARK    1  A    between atoms: C_1  and  C_2
REMARK    2  A    between atoms: C_2  and  N_3
REMARK    3  A    between atoms: N_3  and  C_4
REMARK    4  A    between atoms: C_5  and  N_20
REMARK    5  A    between atoms: N_6  and  C_13
REMARK    6  A    between atoms: C_13  and  C_14
REMARK    7  A    between atoms: C_21  and  C_23
REMARK                            x       y       z     vdW  Elec       q    Type
REMARK                         _______ _______ _______ _____ _____    ______ ____
ROOT
ATOM      1  C   UNL     1      -2.556   3.931  -0.097  0.00  0.00    +0.140 A 
ATOM      2  C   UNL     1      -3.589   3.025  -0.229  0.00  0.00    +0.128 A 
ATOM      3  N   UNL     1      -4.885   3.484  -0.256  0.00  0.00    -0.276 N 
ATOM      4  C   UNL     1      -5.143   4.801  -0.164  0.00  0.00    +0.331 A 
ATOM      5  O   UNL     1      -6.295   5.187  -0.195  0.00  0.00    -0.246 OA
ATOM      6  N   UNL     1      -4.149   5.699  -0.040  0.00  0.00    -0.273 N 
ATOM      7  H   UNL     1      -4.368   6.672   0.026  0.00  0.00    +0.173 HD
ATOM      8  C   UNL     1      -2.862   5.301  -0.004  0.00  0.00    +0.277 A 
ATOM      9  O   UNL     1      -1.969   6.124   0.108  0.00  0.00    -0.266 OA
ENDROOT
BRANCH   1  10
ATOM     10  N   UNL     1      -1.216   3.491  -0.062  0.00  0.00    -0.260 N 
ATOM     11  C   UNL     1      -0.684   2.865  -1.131  0.00  0.00    +0.251 C 
ATOM     12  O   UNL     1       0.439   2.403  -1.068  0.00  0.00    -0.270 OA
BRANCH  11  13
ATOM     13  C   UNL     1      -1.466   2.740  -2.379  0.00  0.00    +0.037 A 
ATOM     14  C   UNL     1      -2.544   3.594  -2.619  0.00  0.00    +0.014 A 
ATOM     15  C   UNL     1      -3.273   3.469  -3.784  0.00  0.00    +0.015 A 
ATOM     16  C   UNL     1      -2.938   2.498  -4.712  0.00  0.00    +0.013 A 
ATOM     17  C   UNL     1      -1.871   1.648  -4.479  0.00  0.00    +0.015 A 
ATOM     18  C   UNL     1      -1.134   1.763  -3.319  0.00  0.00    +0.014 A 
ATOM     19  I   UNL     1      -4.051   2.316  -6.478  0.00  0.00    -0.044 I 
ENDBRANCH  11  13
BRANCH  10  21
ATOM     20  C   UNL     1       0.441   4.978   0.950  0.00  0.00    +0.025 C 
ATOM     21  C   UNL     1      -0.403   3.715   1.135  0.00  0.00    +0.111 C 
ENDBRANCH  10  21
ENDBRANCH   1  10
BRANCH   2  22
ATOM     22  N   UNL     1      -3.325   1.679  -0.328  0.00  0.00    -0.343 N 
ATOM     23  H   UNL     1      -2.416   1.355  -0.234  0.00  0.00    +0.144 HD
ATOM     24  H   UNL     1      -4.049   1.054  -0.491  0.00  0.00    +0.144 HD
ENDBRANCH   2  22
BRANCH   3  25
ATOM     25  C   UNL     1      -5.991   2.533  -0.390  0.00  0.00    +0.163 C 
BRANCH  25  26
ATOM     26  C   UNL     1      -6.296   2.320  -1.850  0.00  0.00    -0.028 A 
ATOM     27  C   UNL     1      -7.222   3.124  -2.488  0.00  0.00    +0.005 A 
ATOM     28  C   UNL     1      -7.498   2.931  -3.828  0.00  0.00    +0.000 A 
ATOM     29  C   UNL     1      -6.856   1.927  -4.529  0.00  0.00    +0.000 A 
ATOM     30  C   UNL     1      -5.933   1.120  -3.890  0.00  0.00    +0.000 A 
ATOM     31  C   UNL     1      -5.654   1.316  -2.551  0.00  0.00    +0.005 A 
ENDBRANCH  25  26
ENDBRANCH   3  25
TORSDOF 6
