REMARK  Name = ZINC00718396
REMARK  8 active torsions:
REMARK  status: ('A' for Active; 'I' for Inactive)
REMARK    1  A    between atoms: C_1  and  C_2
REMARK    2  A    between atoms: C_2  and  O_3
REMARK    3  A    between atoms: O_3  and  C_4
REMARK    4  A    between atoms: C_6  and  C_12
REMARK    5  A    between atoms: C_9  and  O_10
REMARK    6  A    between atoms: C_15  and  C_26
REMARK    7  A    between atoms: C_21  and  N_25
REMARK    8  A    between atoms: C_22  and  C_23
REMARK                            x       y       z     vdW  Elec       q    Type
REMARK                         _______ _______ _______ _____ _____    ______ ____
ROOT
ATOM      1  C   UNL     1      -0.219  -4.963  -0.535  0.00  0.00    +0.102 C 
ATOM      2  C   UNL     1       0.866  -5.827  -1.124  0.00  0.00    +0.055 A 
ATOM      3  C   UNL     1       1.895  -5.478  -2.006  0.00  0.00    +0.107 A 
ATOM      4  N   UNL     1       2.607  -6.564  -2.248  0.00  0.00    -0.170 NA
ATOM      5  N   UNL     1       2.047  -7.629  -1.527  0.00  0.00    -0.246 N 
ATOM      6  H   UNL     1       2.369  -8.544  -1.518  0.00  0.00    +0.192 HD
ATOM      7  C   UNL     1       0.981  -7.157  -0.846  0.00  0.00    +0.223 A 
ATOM      8  O   UNL     1       0.127  -7.809  -0.018  0.00  0.00    -0.423 OA
ATOM      9  C   UNL     1      -1.016  -7.180   0.321  0.00  0.00    +0.200 C 
ATOM     10  C   UNL     1      -1.244  -5.864   0.107  0.00  0.00    +0.098 C 
ENDROOT
BRANCH   1  13
ATOM     11  C   UNL     1       0.802  -1.825   1.306  0.00  0.00    +0.163 A 
ATOM     12  C   UNL     1       0.260  -2.673   0.352  0.00  0.00    +0.054 A 
ATOM     13  C   UNL     1       0.371  -4.043   0.502  0.00  0.00    -0.030 A 
ATOM     14  C   UNL     1       1.022  -4.571   1.602  0.00  0.00    +0.023 A 
ATOM     15  C   UNL     1       1.565  -3.730   2.557  0.00  0.00    +0.063 A 
ATOM     16  C   UNL     1       1.462  -2.356   2.409  0.00  0.00    +0.173 A 
ATOM     17 BR   UNL     1       2.453  -4.456   4.061  0.00  0.00    -0.046 Br
BRANCH  16  18
ATOM     18  O   UNL     1       2.000  -1.528   3.345  0.00  0.00    -0.503 OA
ATOM     19  H   UNL     1       1.395  -1.301   4.064  0.00  0.00    +0.292 HD
ENDBRANCH  16  18
BRANCH  11  20
ATOM     20  O   UNL     1       0.693  -0.477   1.160  0.00  0.00    -0.489 OA
BRANCH  20  22
ATOM     21  C   UNL     1      -0.019   1.526   0.010  0.00  0.00    +0.048 C 
ATOM     22  C   UNL     1       0.002  -0.004   0.002  0.00  0.00    +0.226 C 
ENDBRANCH  20  22
ENDBRANCH  11  20
ENDBRANCH   1  13
BRANCH   3  23
ATOM     23  C   UNL     1       2.142  -4.131  -2.567  0.00  0.00    +0.040 A 
ATOM     24  C   UNL     1       3.333  -3.526  -2.863  0.00  0.00    +0.018 A 
ATOM     25  C   UNL     1       3.316  -2.250  -3.385  0.00  0.00    +0.008 A 
ATOM     26  C   UNL     1       2.124  -1.635  -3.588  0.00  0.00    +0.046 A 
ATOM     27  S   UNL     1       0.964  -2.877  -3.041  0.00  0.00    -0.095 S 
ENDBRANCH   3  23
BRANCH   9  28
ATOM     28  N   UNL     1      -2.009  -7.918   0.917  0.00  0.00    -0.328 N 
ATOM     29  H   UNL     1      -1.876  -8.864   1.083  0.00  0.00    +0.145 HD
ATOM     30  H   UNL     1      -2.842  -7.493   1.173  0.00  0.00    +0.145 HD
ENDBRANCH   9  28
BRANCH  10  31
ATOM     31  C   UNL     1      -2.500  -5.305   0.506  0.00  0.00    +0.101 C 
ATOM     32  N   UNL     1      -3.498  -4.862   0.823  0.00  0.00    -0.191 NA
ENDBRANCH  10  31
TORSDOF 7
