REMARK  Name = ZINC08876226
REMARK  9 active torsions:
REMARK  status: ('A' for Active; 'I' for Inactive)
REMARK    1  A    between atoms: C_1  and  C_2
REMARK    2  A    between atoms: C_2  and  C_3
REMARK    3  A    between atoms: C_2  and  C_4
REMARK    4  A    between atoms: C_4  and  C_5
REMARK    5  A    between atoms: C_15  and  O_23
REMARK    6  A    between atoms: C_16  and  O_21
REMARK    7  A    between atoms: O_21  and  C_22
REMARK    8  A    between atoms: O_23  and  C_24
REMARK    9  A    between atoms: C_25  and  O_35
REMARK                            x       y       z     vdW  Elec       q    Type
REMARK                         _______ _______ _______ _____ _____    ______ ____
ROOT
ATOM      1  C   UNL     1       3.928  -3.279   0.014  0.00  0.00    +0.166 C 
ATOM      2  C   UNL     1       3.118  -3.981   1.077  0.00  0.00    +0.241 C 
ATOM      3  O   UNL     1       3.636  -4.879   1.707  0.00  0.00    -0.273 OA
ATOM      4  N   UNL     1       1.853  -3.651   1.351  0.00  0.00    -0.262 N 
ATOM      5  C   UNL     1       1.042  -2.658   0.655  0.00  0.00    +0.141 C 
ATOM      6  C   UNL     1      -0.237  -3.313   0.129  0.00  0.00    +0.063 C 
ATOM      7  C   UNL     1      -0.922  -4.117   1.199  0.00  0.00    -0.033 A 
ATOM      8  C   UNL     1      -2.275  -4.385   1.081  0.00  0.00    +0.053 A 
ATOM      9  C   UNL     1      -2.924  -5.145   2.039  0.00  0.00    +0.162 A 
ATOM     10  C   UNL     1      -2.221  -5.646   3.133  0.00  0.00    +0.162 A 
ATOM     11  C   UNL     1      -0.871  -5.378   3.262  0.00  0.00    +0.059 A 
ATOM     12  C   UNL     1      -0.221  -4.609   2.297  0.00  0.00    +0.003 A 
ATOM     13  C   UNL     1       1.226  -4.311   2.439  0.00  0.00    +0.037 C 
ATOM     14  C   UNL     1       1.904  -4.647   3.537  0.00  0.00    +0.034 C 
ATOM     15  C   UNL     1       1.766  -1.983  -0.500  0.00  0.00    +0.183 C 
ATOM     16  N   UNL     1       3.221  -2.023  -0.272  0.00  0.00    -0.252 N 
ATOM     17  C   UNL     1       3.717  -0.780  -0.341  0.00  0.00    +0.250 C 
ATOM     18  O   UNL     1       4.896  -0.492  -0.267  0.00  0.00    -0.270 OA
ATOM     19  C   UNL     1       2.624   0.180  -0.520  0.00  0.00    +0.045 A 
ATOM     20  C   UNL     1       1.413  -0.535  -0.608  0.00  0.00    +0.016 A 
ATOM     21  C   UNL     1       0.206   0.107  -0.769  0.00  0.00    +0.009 A 
ATOM     22  C   UNL     1       0.234   1.497  -0.844  0.00  0.00    +0.000 A 
ATOM     23  C   UNL     1       1.415   2.206  -0.764  0.00  0.00    +0.001 A 
ATOM     24  C   UNL     1       2.639   1.574  -0.600  0.00  0.00    +0.013 A 
ENDROOT
BRANCH  10  25
ATOM     25  O   UNL     1      -2.860  -6.396   4.070  0.00  0.00    -0.491 OA
ATOM     26  C   UNL     1      -2.075  -6.876   5.163  0.00  0.00    +0.277 C 
ENDBRANCH  10  25
BRANCH   9  27
ATOM     27  O   UNL     1      -4.253  -5.404   1.913  0.00  0.00    -0.491 OA
ATOM     28  C   UNL     1      -4.913  -4.860   0.768  0.00  0.00    +0.277 C 
ENDBRANCH   9  27
BRANCH  15  29
ATOM     29  O   UNL     1       1.450  -2.650  -1.723  0.00  0.00    -0.366 OA
ATOM     30  H   UNL     1       1.911  -2.294  -2.495  0.00  0.00    +0.212 HD
ENDBRANCH  15  29
BRANCH   1  31
ATOM     31  C   UNL     1       5.337  -2.985   0.531  0.00  0.00    +0.035 C 
BRANCH  31  33
ATOM     32  C   UNL     1       6.298  -4.920  -0.724  0.00  0.00    +0.007 C 
ATOM     33  C   UNL     1       6.117  -4.295   0.661  0.00  0.00    -0.015 C 
ATOM     34  C   UNL     1       7.489  -4.012   1.277  0.00  0.00    +0.007 C 
ENDBRANCH  31  33
ENDBRANCH   1  31
TORSDOF 5
