REMARK  Name = ZINC63686364
REMARK  8 active torsions:
REMARK  status: ('A' for Active; 'I' for Inactive)
REMARK    1  A    between atoms: C_1  and  C_2
REMARK    2  A    between atoms: C_5  and  C_8
REMARK    3  A    between atoms: C_12  and  S_16
REMARK    4  A    between atoms: N_14  and  C_15
REMARK    5  A    between atoms: S_16  and  C_17
REMARK    6  A    between atoms: C_17  and  C_18
REMARK    7  A    between atoms: C_21  and  C_30
REMARK    8  A    between atoms: C_23  and  C_29
REMARK                            x       y       z     vdW  Elec       q    Type
REMARK                         _______ _______ _______ _____ _____    ______ ____
ROOT
ATOM      1  S   UNL     1      -2.609  -6.563   1.584  0.00  0.00    -0.119 S 
ENDROOT
BRANCH   1   5
ATOM      2  C   UNL     1       0.056  -4.264  -0.018  0.00  0.00    +0.171 C 
ATOM      3  N   UNL     1      -0.812  -4.795  -1.101  0.00  0.00    -0.233 NA
ATOM      4  N   UNL     1      -1.161  -6.149  -0.661  0.00  0.00    -0.229 NA
ATOM      5  C   UNL     1      -1.016  -6.172   0.808  0.00  0.00    +0.200 C 
ATOM      6  N   UNL     1      -0.569  -4.817   1.213  0.00  0.00    -0.260 NA
ATOM      7  C   UNL     1       0.403  -4.885   2.312  0.00  0.00    +0.109 C 
ATOM      8  H   UNL     1      -1.638  -4.227  -1.214  0.00  0.00    +0.143 HD
ATOM      9  H   UNL     1      -2.102  -6.387  -0.936  0.00  0.00    +0.143 HD
BRANCH   2  14
ATOM     10  C   UNL     1      -0.057   1.513   0.044  0.00  0.00    +0.044 C 
ATOM     11  C   UNL     1      -0.027   0.007   0.028  0.00  0.00    -0.050 A 
ATOM     12  C   UNL     1       1.171  -0.659  -0.152  0.00  0.00    +0.004 A 
ATOM     13  C   UNL     1       1.198  -2.041  -0.167  0.00  0.00    +0.007 A 
ATOM     14  C   UNL     1       0.027  -2.757  -0.001  0.00  0.00    -0.015 A 
ATOM     15  C   UNL     1      -1.171  -2.091   0.180  0.00  0.00    +0.007 A 
ATOM     16  C   UNL     1      -1.197  -0.710   0.199  0.00  0.00    +0.004 A 
ENDBRANCH   2  14
ENDBRANCH   1   5
BRANCH   1  17
ATOM     17  C   UNL     1      -3.716  -5.250   0.997  0.00  0.00    +0.125 C 
BRANCH  17  18
ATOM     18  C   UNL     1      -5.092  -5.459   1.575  0.00  0.00    +0.030 A 
ATOM     19  N   UNL     1      -5.868  -6.447   1.069  0.00  0.00    -0.357 N 
ATOM     20  C   UNL     1      -7.135  -6.689   1.553  0.00  0.00    +0.053 A 
ATOM     21  C   UNL     1      -7.924  -7.707   1.026  0.00  0.00    -0.026 A 
ATOM     22  C   UNL     1      -9.187  -7.923   1.532  0.00  0.00    +0.008 A 
ATOM     23  C   UNL     1      -9.681  -7.136   2.563  0.00  0.00    -0.049 A 
ATOM     24  C   UNL     1      -8.923  -6.131   3.095  0.00  0.00    +0.017 A 
ATOM     25  C   UNL     1      -7.641  -5.896   2.597  0.00  0.00    +0.045 A 
ATOM     26  C   UNL     1      -6.790  -4.823   3.140  0.00  0.00    +0.190 A 
ATOM     27  O   UNL     1      -7.181  -4.106   4.047  0.00  0.00    -0.287 OA
ATOM     28  C   UNL     1      -5.501  -4.657   2.580  0.00  0.00    +0.073 A 
ATOM     29  C   UNL     1     -11.066  -7.391   3.099  0.00  0.00    +0.044 C 
ATOM     30  C   UNL     1      -7.400  -8.569  -0.094  0.00  0.00    +0.046 C 
ATOM     31  H   UNL     1      -5.523  -6.997   0.349  0.00  0.00    +0.166 HD
ENDBRANCH  17  18
ENDBRANCH   1  17
TORSDOF 4
