REMARK  Name = ZINC22758927
REMARK  4 active torsions:
REMARK  status: ('A' for Active; 'I' for Inactive)
REMARK    1  A    between atoms: C_4  and  C_21
REMARK    2  A    between atoms: C_6  and  N_7
REMARK    3  A    between atoms: N_7  and  S_8
REMARK    4  A    between atoms: S_8  and  C_11
REMARK                            x       y       z     vdW  Elec       q    Type
REMARK                         _______ _______ _______ _____ _____    ______ ____
ROOT
ATOM      1  C   UNL     1       4.030   1.155  -2.073  0.00  0.00    +0.027 A 
ATOM      2  C   UNL     1       4.317   2.280  -2.824  0.00  0.00    +0.041 A 
ATOM      3  C   UNL     1       5.337   2.251  -3.757  0.00  0.00    +0.134 A 
ATOM      4  C   UNL     1       6.083   1.084  -3.938  0.00  0.00    +0.056 A 
ATOM      5  C   UNL     1       5.796  -0.048  -3.177  0.00  0.00    +0.039 A 
ATOM      6  C   UNL     1       4.771  -0.008  -2.244  0.00  0.00    +0.049 A 
ATOM      7  F   UNL     1       5.611   3.351  -4.492  0.00  0.00    -0.205 F 
ENDROOT
BRANCH   4   8
ATOM      8  C   UNL     1       7.176   1.050  -4.935  0.00  0.00    +0.167 A 
ATOM      9  N   UNL     1       7.119   1.483  -6.177  0.00  0.00    -0.129 NA
ATOM     10  N   UNL     1       8.255   1.300  -6.754  0.00  0.00    -0.134 NA
ATOM     11  C   UNL     1       9.093   0.750  -5.921  0.00  0.00    +0.134 A 
ATOM     12  N   UNL     1       8.438   0.569  -4.743  0.00  0.00    -0.311 N 
ATOM     13  C   UNL     1       8.982  -0.036  -3.527  0.00  0.00    +0.125 C 
ATOM     14  C   UNL     1      10.496   0.193  -3.481  0.00  0.00    +0.022 C 
ATOM     15  C   UNL     1      11.213  -0.954  -4.190  0.00  0.00    +0.002 C 
ATOM     16  C   UNL     1      10.801  -1.019  -5.657  0.00  0.00    +0.008 C 
ATOM     17  C   UNL     1      10.533   0.388  -6.182  0.00  0.00    +0.076 C 
ENDBRANCH   4   8
BRANCH   6  18
ATOM     18  N   UNL     1       4.479  -1.141  -1.478  0.00  0.00    -0.216 N 
ATOM     19  H   UNL     1       5.148  -1.437  -0.657  0.00  0.00    +0.174 HD
BRANCH  18  20
ATOM     20  S   UNL     1       3.126  -2.037  -1.808  0.00  0.00    +0.072 S 
ATOM     21  O   UNL     1       2.038  -1.125  -1.862  0.00  0.00    -0.150 OA
ATOM     22  O   UNL     1       3.147  -3.146  -0.919  0.00  0.00    -0.150 OA
BRANCH  20  23
ATOM     23  C   UNL     1       3.317  -2.690  -3.433  0.00  0.00    +0.112 A 
ATOM     24  C   UNL     1       4.021  -3.865  -3.627  0.00  0.00    +0.032 A 
ATOM     25  C   UNL     1       4.174  -4.380  -4.900  0.00  0.00    +0.051 A 
ATOM     26  C   UNL     1       3.622  -3.718  -5.988  0.00  0.00    +0.162 A 
ATOM     27  C   UNL     1       2.913  -2.539  -5.793  0.00  0.00    +0.164 A 
ATOM     28  C   UNL     1       2.764  -2.028  -4.512  0.00  0.00    +0.078 A 
ATOM     29  O   UNL     1       2.357  -1.879  -6.845  0.00  0.00    -0.485 OA
ATOM     30  C   UNL     1       2.844  -2.219  -8.148  0.00  0.00    +0.270 C 
ATOM     31  C   UNL     1       2.904  -3.749  -8.254  0.00  0.00    +0.270 C 
ATOM     32  O   UNL     1       3.789  -4.233  -7.237  0.00  0.00    -0.485 OA
ENDBRANCH  20  23
ENDBRANCH  18  20
ENDBRANCH   6  18
TORSDOF 4
