REMARK  Name = ZINC01033597
REMARK  10 active torsions:
REMARK  status: ('A' for Active; 'I' for Inactive)
REMARK    1  A    between atoms: C_1  and  N_2
REMARK    2  A    between atoms: N_2  and  C_3
REMARK    3  A    between atoms: N_2  and  C_4
REMARK    4  A    between atoms: C_7  and  C_10
REMARK    5  A    between atoms: C_18  and  C_20
REMARK    6  A    between atoms: C_20  and  C_21
REMARK    7  A    between atoms: N_23  and  C_24
REMARK    8  A    between atoms: C_28  and  C_29
REMARK    9  A    between atoms: C_29  and  O_31
REMARK   10  A    between atoms: O_31  and  C_32
REMARK                            x       y       z     vdW  Elec       q    Type
REMARK                         _______ _______ _______ _____ _____    ______ ____
ROOT
ATOM      1  C   UNL     1      -0.077  -2.623  -4.848  0.00  0.00    +0.247 C 
ATOM      2  O   UNL     1       0.066  -3.830  -4.818  0.00  0.00    -0.270 OA
ATOM      3  N   UNL     1      -0.188  -1.987  -6.032  0.00  0.00    -0.284 N 
ATOM      4  C   UNL     1      -0.239  -0.517  -6.109  0.00  0.00    +0.127 C 
ATOM      5  C   UNL     1       0.965  -0.040  -6.923  0.00  0.00    +0.123 C 
ATOM      6  N   UNL     1       1.110  -0.827  -8.141  0.00  0.00    -0.312 N 
ATOM      7  C   UNL     1       0.606  -2.049  -8.317  0.00  0.00    +0.234 C 
ATOM      8  O   UNL     1       0.862  -2.637  -9.347  0.00  0.00    -0.274 OA
ATOM      9  C   UNL     1      -0.257  -2.732  -7.297  0.00  0.00    +0.171 C 
ATOM     10  H   UNL     1       1.608  -0.434  -8.875  0.00  0.00    +0.149 HD
ENDROOT
BRANCH   1  14
ATOM     11  C   UNL     1      -0.228  -0.411  -1.227  0.00  0.00    +0.029 A 
ATOM     12  C   UNL     1       0.573   0.029  -2.277  0.00  0.00    +0.024 A 
ATOM     13  C   UNL     1       0.624  -0.685  -3.452  0.00  0.00    +0.015 A 
ATOM     14  C   UNL     1      -0.130  -1.855  -3.590  0.00  0.00    +0.037 A 
ATOM     15  C   UNL     1      -0.933  -2.294  -2.534  0.00  0.00    +0.015 A 
ATOM     16  C   UNL     1      -0.975  -1.578  -1.359  0.00  0.00    +0.024 A 
BRANCH  11  18
ATOM     17  C   UNL     1      -1.115  -0.152   1.067  0.00  0.00    +0.129 C 
ATOM     18  N   UNL     1      -0.278   0.313  -0.041  0.00  0.00    -0.336 N 
ATOM     19  C   UNL     1       0.508   1.542   0.100  0.00  0.00    +0.129 C 
ENDBRANCH  11  18
ENDBRANCH   1  14
BRANCH   9  20
ATOM     20  C   UNL     1      -1.703  -2.763  -7.796  0.00  0.00    +0.128 C 
BRANCH  20  21
ATOM     21  C   UNL     1      -2.551  -3.546  -6.827  0.00  0.00    +0.219 C 
ATOM     22  O   UNL     1      -2.049  -4.032  -5.836  0.00  0.00    -0.275 OA
ATOM     23  N   UNL     1      -3.869  -3.707  -7.063  0.00  0.00    -0.284 N 
ATOM     24  H   UNL     1      -4.258  -3.377  -7.888  0.00  0.00    +0.155 HD
BRANCH  23  25
ATOM     25  C   UNL     1      -4.673  -4.348  -6.120  0.00  0.00    +0.055 A 
ATOM     26  C   UNL     1      -4.149  -4.967  -5.002  0.00  0.00    +0.032 A 
ATOM     27  C   UNL     1      -4.989  -5.570  -4.129  0.00  0.00    +0.048 A 
ATOM     28  S   UNL     1      -6.517  -5.324  -4.782  0.00  0.00    -0.088 S 
ATOM     29  C   UNL     1      -6.062  -4.403  -6.238  0.00  0.00    +0.117 A 
BRANCH  29  30
ATOM     30  C   UNL     1      -6.892  -3.868  -7.251  0.00  0.00    +0.347 C 
ATOM     31  O   UNL     1      -6.400  -3.261  -8.184  0.00  0.00    -0.244 OA
BRANCH  30  32
ATOM     32  O   UNL     1      -8.230  -4.030  -7.182  0.00  0.00    -0.464 OA
ATOM     33  C   UNL     1      -9.008  -3.464  -8.239  0.00  0.00    +0.280 C 
ENDBRANCH  30  32
ENDBRANCH  29  30
ENDBRANCH  23  25
ENDBRANCH  20  21
ENDBRANCH   9  20
TORSDOF 7
