REMARK  Name = ZINC02765850
REMARK  5 active torsions:
REMARK  status: ('A' for Active; 'I' for Inactive)
REMARK    1  A    between atoms: C_1  and  C_2
REMARK    2  A    between atoms: C_4  and  C_8
REMARK    3  A    between atoms: N_5  and  C_7
REMARK    4  A    between atoms: N_10  and  C_11
REMARK    5  A    between atoms: C_12  and  C_21
REMARK                            x       y       z     vdW  Elec       q    Type
REMARK                         _______ _______ _______ _____ _____    ______ ____
ROOT
ATOM      1  C   UNL     1       4.353  -1.688   1.455  0.00  0.00    +0.085 A 
ATOM      2  C   UNL     1       2.998  -1.644   1.748  0.00  0.00    +0.068 A 
ATOM      3  C   UNL     1       2.178  -0.684   1.019  0.00  0.00    -0.023 A 
ATOM      4  C   UNL     1       2.846   0.064   0.116  0.00  0.00    -0.004 A 
ATOM      5  S   UNL     1       4.530  -0.476   0.230  0.00  0.00    -0.077 S 
ATOM      6  C   UNL     1       2.287   1.110  -0.798  0.00  0.00    +0.043 C 
ATOM      7  C   UNL     1       1.405   2.070   0.011  0.00  0.00    +0.005 C 
ATOM      8  C   UNL     1      -0.020   1.525   0.019  0.00  0.00    +0.001 C 
ATOM      9  C   UNL     1       0.001  -0.002   0.007  0.00  0.00    +0.005 C 
ATOM     10  C   UNL     1       0.682  -0.536   1.262  0.00  0.00    +0.037 C 
ENDROOT
BRANCH   2  11
ATOM     11  C   UNL     1       2.411  -2.531   2.756  0.00  0.00    +0.244 C 
ATOM     12  O   UNL     1       1.982  -3.623   2.430  0.00  0.00    -0.270 OA
ATOM     13  N   UNL     1       2.346  -2.139   4.043  0.00  0.00    -0.325 N 
ATOM     14  H   UNL     1       2.688  -1.269   4.303  0.00  0.00    +0.145 HD
ATOM     15  H   UNL     1       1.958  -2.726   4.710  0.00  0.00    +0.145 HD
ENDBRANCH   2  11
BRANCH   1  18
ATOM     16  C   UNL     1       6.605  -2.401   1.593  0.00  0.00    +0.268 C 
ATOM     17  O   UNL     1       6.888  -1.662   0.668  0.00  0.00    -0.268 OA
ATOM     18  N   UNL     1       5.327  -2.502   2.008  0.00  0.00    -0.274 N 
ATOM     19  H   UNL     1       5.090  -3.145   2.694  0.00  0.00    +0.156 HD
BRANCH  16  23
ATOM     20  C   UNL     1      10.051  -5.936   2.757  0.00  0.00    +0.069 C 
ATOM     21  C   UNL     1       9.165  -4.717   2.779  0.00  0.00    +0.079 A 
ATOM     22  C   UNL     1       8.215  -4.372   1.813  0.00  0.00    +0.094 A 
ATOM     23  C   UNL     1       7.658  -3.183   2.256  0.00  0.00    +0.142 A 
ATOM     24  N   UNL     1       8.279  -2.888   3.438  0.00  0.00    -0.261 N 
ATOM     25  N   UNL     1       9.145  -3.796   3.709  0.00  0.00    -0.175 NA
ATOM     26  C   UNL     1       8.000  -1.714   4.268  0.00  0.00    +0.173 C 
ATOM     27 CL   UNL     1       7.820  -5.246   0.366  0.00  0.00    -0.079 Cl
ENDBRANCH  16  23
ENDBRANCH   1  18
TORSDOF 3
