REMARK  Name = ZINC59293441
REMARK  9 active torsions:
REMARK  status: ('A' for Active; 'I' for Inactive)
REMARK    1  A    between atoms: C_1  and  C_2
REMARK    2  A    between atoms: C_2  and  C_3
REMARK    3  A    between atoms: C_2  and  C_4
REMARK    4  A    between atoms: C_2  and  O_5
REMARK    5  A    between atoms: O_5  and  C_6
REMARK    6  A    between atoms: C_6  and  C_8
REMARK    7  A    between atoms: C_8  and  N_9
REMARK    8  A    between atoms: C_19  and  C_30
REMARK    9  A    between atoms: C_20  and  N_29
REMARK                            x       y       z     vdW  Elec       q    Type
REMARK                         _______ _______ _______ _____ _____    ______ ____
ROOT
ATOM      1  N   UNL     1       4.078   0.009  -2.496  0.00  0.00    -0.259 N 
ATOM      2  C   UNL     1       4.446   1.233  -3.027  0.00  0.00    +0.042 A 
ATOM      3  C   UNL     1       3.667   2.177  -3.697  0.00  0.00    +0.025 A 
ATOM      4  C   UNL     1       4.302   3.332  -4.128  0.00  0.00    +0.017 A 
ATOM      5  C   UNL     1       5.648   3.551  -3.909  0.00  0.00    +0.018 A 
ATOM      6  C   UNL     1       6.434   2.617  -3.242  0.00  0.00    +0.022 A 
ATOM      7  C   UNL     1       5.809   1.467  -2.811  0.00  0.00    -0.000 A 
ATOM      8  C   UNL     1       6.330   0.271  -2.078  0.00  0.00    +0.144 C 
ATOM      9  C   UNL     1       5.119  -0.624  -1.915  0.00  0.00    +0.241 C 
ATOM     10  O   UNL     1       5.090  -1.706  -1.368  0.00  0.00    -0.274 OA
ATOM     11  C   UNL     1       7.391  -0.431  -2.874  0.00  0.00    +0.110 C 
ATOM     12  C   UNL     1       8.695  -0.325  -2.516  0.00  0.00    +0.199 C 
ATOM     13  O   UNL     1       9.065   0.407  -1.453  0.00  0.00    -0.445 OA
ATOM     14  C   UNL     1       8.178   0.713  -0.487  0.00  0.00    +0.115 C 
ATOM     15  C   UNL     1       6.852   0.664  -0.720  0.00  0.00    +0.058 C 
ATOM     16  C   UNL     1       5.921   0.973   0.290  0.00  0.00    +0.164 C 
ATOM     17  O   UNL     1       4.733   0.934   0.039  0.00  0.00    -0.292 OA
ATOM     18  C   UNL     1       6.371   1.351   1.675  0.00  0.00    +0.080 C 
ATOM     19  C   UNL     1       7.724   0.688   1.956  0.00  0.00    +0.016 C 
ATOM     20  C   UNL     1       8.709   1.118   0.867  0.00  0.00    +0.075 C 
ATOM     21 BR   UNL     1       6.438   5.153  -4.530  0.00  0.00    -0.050 Br
ENDROOT
BRANCH  12  22
ATOM     22  N   UNL     1       9.653  -0.977  -3.253  0.00  0.00    -0.328 N 
ATOM     23  H   UNL     1       9.394  -1.508  -4.023  0.00  0.00    +0.145 HD
ATOM     24  H   UNL     1      10.588  -0.907  -3.005  0.00  0.00    +0.145 HD
ENDBRANCH  12  22
BRANCH  11  25
ATOM     25  C   UNL     1       7.025  -1.214  -4.015  0.00  0.00    +0.102 C 
ATOM     26  N   UNL     1       6.735  -1.836  -4.920  0.00  0.00    -0.191 NA
ENDBRANCH  11  25
BRANCH   1  27
ATOM     27  C   UNL     1       2.718  -0.533  -2.552  0.00  0.00    +0.234 C 
BRANCH  27  28
ATOM     28  C   UNL     1       1.948  -0.086  -1.336  0.00  0.00    +0.326 C 
ATOM     29  O   UNL     1       2.481   0.614  -0.508  0.00  0.00    -0.249 OA
BRANCH  28  30
ATOM     30  O   UNL     1       0.671  -0.465  -1.174  0.00  0.00    -0.458 OA
BRANCH  30  32
ATOM     31  C   UNL     1      -0.019   1.526   0.010  0.00  0.00    +0.055 C 
ATOM     32  C   UNL     1       0.002  -0.004   0.002  0.00  0.00    +0.105 C 
ATOM     33  C   UNL     1       0.742  -0.511   1.242  0.00  0.00    +0.055 C 
ATOM     34  C   UNL     1      -1.433  -0.534   0.013  0.00  0.00    +0.055 C 
ENDBRANCH  30  32
ENDBRANCH  28  30
ENDBRANCH  27  28
ENDBRANCH   1  27
TORSDOF 6
