REMARK  Name = ZINC39843395
REMARK  6 active torsions:
REMARK  status: ('A' for Active; 'I' for Inactive)
REMARK    1  A    between atoms: C_3  and  N_28
REMARK    2  A    between atoms: C_6  and  C_7
REMARK    3  A    between atoms: N_8  and  N_9
REMARK    4  A    between atoms: C_14  and  C_17
REMARK    5  A    between atoms: C_17  and  C_18
REMARK    6  A    between atoms: N_20  and  C_21
REMARK                            x       y       z     vdW  Elec       q    Type
REMARK                         _______ _______ _______ _____ _____    ______ ____
ROOT
ATOM      1  N   UNL     1      -2.256  -2.749   0.022  0.00  0.00    -0.127 NA
ATOM      2  C   UNL     1      -2.237  -4.118   0.009  0.00  0.00    +0.183 C 
ATOM      3  N   UNL     1      -1.146  -4.917  -0.007  0.00  0.00    -0.263 N 
ATOM      4  C   UNL     1      -1.226  -6.241  -0.019  0.00  0.00    +0.233 C 
ATOM      5  O   UNL     1      -0.257  -6.969  -0.034  0.00  0.00    -0.274 OA
ATOM      6  C   UNL     1      -2.660  -6.751  -0.010  0.00  0.00    +0.149 C 
ATOM      7  S   UNL     1      -3.564  -5.150   0.019  0.00  0.00    -0.075 S 
ATOM      8  H   UNL     1      -0.268  -4.505  -0.012  0.00  0.00    +0.157 HD
ENDROOT
BRANCH   1  10
ATOM      9  C   UNL     1      -1.167  -0.737   0.025  0.00  0.00    +0.143 C 
ATOM     10  N   UNL     1      -1.148  -2.089   0.013  0.00  0.00    -0.155 NA
BRANCH   9  16
ATOM     11  C   UNL     1       0.024   1.397   0.028  0.00  0.00    +0.012 A 
ATOM     12  C   UNL     1       1.203   2.082   0.018  0.00  0.00    +0.033 A 
ATOM     13  C   UNL     1       2.412   1.398  -0.005  0.00  0.00    +0.126 A 
ATOM     14  C   UNL     1       2.439   0.008  -0.018  0.00  0.00    +0.033 A 
ATOM     15  C   UNL     1       1.276  -0.703  -0.009  0.00  0.00    +0.012 A 
ATOM     16  C   UNL     1       0.036  -0.019   0.015  0.00  0.00    -0.005 A 
BRANCH  13  17
ATOM     17  N   UNL     1       3.684   2.156  -0.017  0.00  0.00    +0.056 N 
ATOM     18  O   UNL     1       3.665   3.473  -0.005  0.00  0.00    -0.126 OA
ATOM     19  O   UNL     1       4.833   1.514  -0.039  0.00  0.00    -0.126 OA
ENDBRANCH  13  17
ENDBRANCH   9  16
ENDBRANCH   1  10
BRANCH   6  20
ATOM     20  C   UNL     1      -2.951  -7.573   1.247  0.00  0.00    +0.120 C 
BRANCH  20  21
ATOM     21  C   UNL     1      -4.337  -8.158   1.155  0.00  0.00    +0.219 C 
ATOM     22  O   UNL     1      -5.024  -7.938   0.181  0.00  0.00    -0.275 OA
ATOM     23  N   UNL     1      -4.812  -8.925   2.157  0.00  0.00    -0.285 N 
ATOM     24  H   UNL     1      -4.239  -9.155   2.905  0.00  0.00    +0.155 HD
BRANCH  23  25
ATOM     25  C   UNL     1      -6.133  -9.388   2.117  0.00  0.00    +0.033 A 
ATOM     26  C   UNL     1      -6.864  -9.504   3.292  0.00  0.00    +0.025 A 
ATOM     27  C   UNL     1      -8.167  -9.961   3.250  0.00  0.00    +0.022 A 
ATOM     28  C   UNL     1      -8.743 -10.303   2.039  0.00  0.00    +0.041 A 
ATOM     29  C   UNL     1      -8.016 -10.189   0.867  0.00  0.00    +0.022 A 
ATOM     30  C   UNL     1      -6.715  -9.726   0.903  0.00  0.00    +0.025 A 
ATOM     31 CL   UNL     1     -10.380 -10.878   1.990  0.00  0.00    -0.084 Cl
ENDBRANCH  23  25
ENDBRANCH  20  21
ENDBRANCH   6  20
TORSDOF 6
