REMARK  Name = ZINC44731557
REMARK  10 active torsions:
REMARK  status: ('A' for Active; 'I' for Inactive)
REMARK    1  A    between atoms: C_1  and  C_2
REMARK    2  A    between atoms: C_4  and  C_8
REMARK    3  A    between atoms: C_5  and  C_7
REMARK    4  A    between atoms: C_8  and  C_10
REMARK    5  A    between atoms: C_8  and  N_11
REMARK    6  A    between atoms: N_11  and  S_12
REMARK    7  A    between atoms: S_12  and  C_15
REMARK    8  A    between atoms: C_18  and  C_20
REMARK    9  A    between atoms: C_20  and  C_21
REMARK   10  A    between atoms: C_21  and  N_22
REMARK                            x       y       z     vdW  Elec       q    Type
REMARK                         _______ _______ _______ _____ _____    ______ ____
ROOT
ATOM      1  S   UNL     1      -3.619  -4.188   1.375  0.00  0.00    +0.065 S 
ATOM      2  O   UNL     1      -4.865  -3.589   1.706  0.00  0.00    -0.153 OA
ATOM      3  O   UNL     1      -3.529  -5.426   0.684  0.00  0.00    -0.153 OA
ENDROOT
BRANCH   1   4
ATOM      4  C   UNL     1      -2.741  -4.391   2.889  0.00  0.00    +0.143 A 
ATOM      5  C   UNL     1      -2.884  -3.717   4.056  0.00  0.00    +0.036 A 
ATOM      6  C   UNL     1      -2.076  -4.051   5.127  0.00  0.00    +0.013 A 
ATOM      7  C   UNL     1      -1.165  -5.044   4.978  0.00  0.00    -0.010 A 
ATOM      8  S   UNL     1      -1.437  -5.545   3.286  0.00  0.00    -0.074 S 
BRANCH   7   9
ATOM      9  C   UNL     1      -0.181  -5.587   5.982  0.00  0.00    +0.023 C 
BRANCH   9  10
ATOM     10  C   UNL     1      -0.827  -6.736   6.759  0.00  0.00    -0.081 C 
BRANCH  10  11
ATOM     11  N   UNL     1       0.132  -7.266   7.737  0.00  0.00    +0.378 N 
ATOM     12  H   UNL     1       0.952  -7.604   7.256  0.00  0.00    -0.090 HD
ATOM     13  H   UNL     1       0.398  -6.533   8.379  0.00  0.00    -0.090 HD
ATOM     14  H   UNL     1      -0.294  -8.023   8.250  0.00  0.00    -0.090 HD
ENDBRANCH  10  11
ENDBRANCH   9  10
ENDBRANCH   7   9
ENDBRANCH   1   4
BRANCH   1  15
ATOM     15  N   UNL     1      -2.786  -3.079   0.471  0.00  0.00    -0.182 NA
ATOM     16  H   UNL     1      -3.190  -2.223   0.259  0.00  0.00    +0.149 HD
BRANCH  15  17
ATOM     17  C   UNL     1      -1.437  -3.390  -0.009  0.00  0.00    +0.107 C 
ATOM     18  C   UNL     1      -1.518  -3.946  -1.432  0.00  0.00    +0.031 C 
BRANCH  17  22
ATOM     19  C   UNL     1      -0.018   1.503   0.010  0.00  0.00    +0.086 C 
ATOM     20  C   UNL     1       0.002  -0.004   0.002  0.00  0.00    +0.103 A 
ATOM     21  C   UNL     1      -1.078  -0.805   0.003  0.00  0.00    +0.050 A 
ATOM     22  C   UNL     1      -0.601  -2.136  -0.007  0.00  0.00    +0.012 A 
ATOM     23  C   UNL     1       0.742  -2.069  -0.013  0.00  0.00    +0.107 A 
ATOM     24  O   UNL     1       1.102  -0.775  -0.013  0.00  0.00    -0.465 OA
ATOM     25  C   UNL     1       1.684  -3.245  -0.023  0.00  0.00    +0.086 C 
ENDBRANCH  17  22
ENDBRANCH  15  17
ENDBRANCH   1  15
TORSDOF 7
