REMARK  Name = ZINC02246880
REMARK  7 active torsions:
REMARK  status: ('A' for Active; 'I' for Inactive)
REMARK    1  A    between atoms: C_1  and  C_2
REMARK    2  A    between atoms: C_2  and  C_3
REMARK    3  A    between atoms: C_2  and  C_4
REMARK    4  A    between atoms: C_2  and  C_5
REMARK    5  A    between atoms: C_5  and  C_7
REMARK    6  A    between atoms: C_9  and  C_31
REMARK    7  A    between atoms: C_31  and  C_33
REMARK                            x       y       z     vdW  Elec       q    Type
REMARK                         _______ _______ _______ _____ _____    ______ ____
ROOT
ATOM      1  C   UNL     1      -3.285  -0.129  -1.414  0.00  0.00    +0.136 C 
ATOM      2  C   UNL     1      -2.522  -0.414  -0.091  0.00  0.00    +0.109 C 
ATOM      3  C   UNL     1      -3.458  -1.449   0.577  0.00  0.00    +0.107 C 
ATOM      4  C   UNL     1      -3.271  -1.435   2.050  0.00  0.00    -0.008 A 
ATOM      5  C   UNL     1      -3.378  -0.433   2.993  0.00  0.00    +0.006 A 
ATOM      6  C   UNL     1      -3.105  -0.768   4.313  0.00  0.00    +0.000 A 
ATOM      7  C   UNL     1      -2.742  -2.050   4.672  0.00  0.00    +0.002 A 
ATOM      8  C   UNL     1      -2.627  -3.064   3.736  0.00  0.00    +0.023 A 
ATOM      9  C   UNL     1      -2.887  -2.737   2.404  0.00  0.00    +0.038 A 
ATOM     10  N   UNL     1      -2.810  -3.539   1.279  0.00  0.00    -0.284 N 
ATOM     11  C   UNL     1      -3.089  -2.852   0.151  0.00  0.00    +0.231 C 
ATOM     12  O   UNL     1      -3.064  -3.281  -0.984  0.00  0.00    -0.274 OA
ATOM     13  C   UNL     1      -4.855  -1.103   0.069  0.00  0.00    +0.107 C 
ATOM     14  C   UNL     1      -5.672   0.809  -1.382  0.00  0.00    +0.054 C 
ATOM     15  C   UNL     1      -6.676   1.068  -0.523  0.00  0.00    +0.022 C 
ATOM     16  C   UNL     1      -6.666   0.454   0.820  0.00  0.00    -0.019 A 
ATOM     17  C   UNL     1      -5.818  -0.624   1.112  0.00  0.00    -0.020 A 
ATOM     18  C   UNL     1      -5.901  -1.219   2.351  0.00  0.00    +0.006 A 
ATOM     19  C   UNL     1      -6.747  -0.717   3.324  0.00  0.00    +0.000 A 
ATOM     20  C   UNL     1      -7.548   0.380   3.053  0.00  0.00    +0.001 A 
ATOM     21  C   UNL     1      -7.513   0.962   1.804  0.00  0.00    +0.008 A 
ATOM     22  H   UNL     1      -2.587  -4.484   1.299  0.00  0.00    +0.155 HD
ATOM     23  N   UNL     1      -4.539   0.103  -0.646  0.00  0.00    -0.384 NA
ATOM     24  H   UNL     1      -4.279   0.772   0.088  0.00  0.00    +0.127 HD
ENDROOT
BRANCH   1  25
ATOM     25  C   UNL     1      -2.840   1.176  -2.015  0.00  0.00    +0.158 C 
ATOM     26  O   UNL     1      -2.806   2.174  -1.335  0.00  0.00    -0.295 OA
BRANCH  25  28
ATOM     27  C   UNL     1      -1.849   2.618  -3.772  0.00  0.00    +0.018 C 
ATOM     28  C   UNL     1      -2.436   1.239  -3.465  0.00  0.00    +0.022 C 
ATOM     29  C   UNL     1      -1.385   0.163  -3.749  0.00  0.00    +0.018 C 
ATOM     30  C   UNL     1      -3.662   0.999  -4.348  0.00  0.00    +0.018 C 
ENDBRANCH  25  28
ENDBRANCH   1  25
BRANCH   2  31
ATOM     31  C   UNL     1      -1.153  -0.982  -0.349  0.00  0.00    +0.188 C 
ATOM     32  O   UNL     1      -1.036  -2.061  -0.888  0.00  0.00    -0.290 OA
BRANCH  31  33
ATOM     33  C   UNL     1       0.048  -0.224   0.054  0.00  0.00    +0.106 A 
ATOM     34  C   UNL     1       1.314  -0.703  -0.285  0.00  0.00    +0.031 A 
ATOM     35  C   UNL     1       2.432   0.020   0.101  0.00  0.00    +0.004 A 
ATOM     36  C   UNL     1       2.246   1.195   0.812  0.00  0.00    +0.020 A 
ATOM     37  C   UNL     1       0.959   1.612   1.115  0.00  0.00    +0.111 A 
ATOM     38  N   UNL     1      -0.085   0.908   0.737  0.00  0.00    -0.252 NA
ENDBRANCH  31  33
ENDBRANCH   2  31
TORSDOF 4
