REMARK  Name = ZINC02769104
REMARK  11 active torsions:
REMARK  status: ('A' for Active; 'I' for Inactive)
REMARK    1  A    between atoms: C_1  and  C_2
REMARK    2  A    between atoms: C_2  and  N_3
REMARK    3  A    between atoms: C_6  and  C_8
REMARK    4  A    between atoms: N_10  and  C_11
REMARK    5  A    between atoms: C_12  and  C_20
REMARK    6  A    between atoms: C_13  and  C_19
REMARK    7  A    between atoms: C_14  and  C_16
REMARK    8  A    between atoms: C_20  and  O_22
REMARK    9  A    between atoms: O_22  and  C_23
REMARK   10  A    between atoms: C_23  and  C_24
REMARK   11  A    between atoms: C_23  and  C_25
REMARK                            x       y       z     vdW  Elec       q    Type
REMARK                         _______ _______ _______ _____ _____    ______ ____
ROOT
ATOM      1  C   UNL     1       1.213   2.050   0.002  0.00  0.00    +0.087 A 
ATOM      2  C   UNL     1      -0.017   1.383   0.010  0.00  0.00    +0.091 A 
ATOM      3  C   UNL     1       0.002  -0.004   0.002  0.00  0.00    -0.015 A 
ATOM      4  C   UNL     1       1.222  -0.623  -0.013  0.00  0.00    +0.079 A 
ATOM      5  S   UNL     1       2.359   0.750  -0.016  0.00  0.00    -0.068 S 
ATOM      6  C   UNL     1      -1.277  -0.801   0.010  0.00  0.00    +0.046 C 
ENDROOT
BRANCH   4   7
ATOM      7  C   UNL     1       1.520  -2.057  -0.024  0.00  0.00    +0.248 C 
ATOM      8  O   UNL     1       0.612  -2.867  -0.021  0.00  0.00    -0.270 OA
ATOM      9  N   UNL     1       2.800  -2.479  -0.039  0.00  0.00    -0.325 N 
ATOM     10  H   UNL     1       3.023  -3.556  -0.047  0.00  0.00    +0.145 HD
ATOM     11  H   UNL     1       3.620  -1.747  -0.042  0.00  0.00    +0.145 HD
ENDBRANCH   4   7
BRANCH   1  14
ATOM     12  C   UNL     1       2.721   3.869  -0.003  0.00  0.00    +0.270 C 
ATOM     13  O   UNL     1       3.651   3.086  -0.016  0.00  0.00    -0.268 OA
ATOM     14  N   UNL     1       1.454   3.409   0.006  0.00  0.00    -0.274 N 
ATOM     15  H   UNL     1       0.612   4.117   0.018  0.00  0.00    +0.156 HD
BRANCH  12  19
ATOM     16  N   UNL     1       2.643   7.429   0.015  0.00  0.00    -0.270 N 
ATOM     17  C   UNL     1       3.991   7.282   0.002  0.00  0.00    +0.124 A 
ATOM     18  C   UNL     1       4.247   5.952  -0.006  0.00  0.00    +0.068 A 
ATOM     19  C   UNL     1       2.979   5.322   0.002  0.00  0.00    +0.161 A 
ATOM     20  N   UNL     1       2.072   6.279   0.010  0.00  0.00    -0.165 NA
ATOM     21 BR   UNL     1       5.941   5.112  -0.027  0.00  0.00    -0.046 Br
BRANCH  16  23
ATOM     22  C   UNL     1       0.959   8.771  -1.144  0.00  0.00    +0.029 C 
ATOM     23  C   UNL     1       1.940   8.715   0.028  0.00  0.00    +0.140 C 
ENDBRANCH  16  23
ENDBRANCH  12  19
ENDBRANCH   1  14
BRANCH   2  24
ATOM     24  C   UNL     1      -1.282   2.124   0.020  0.00  0.00    +0.342 C 
ATOM     25  O   UNL     1      -1.802   2.426   1.077  0.00  0.00    -0.245 OA
BRANCH  24  26
ATOM     26  O   UNL     1      -1.870   2.471  -1.143  0.00  0.00    -0.458 OA
BRANCH  26  27
ATOM     27  C   UNL     1      -3.120   3.204  -1.057  0.00  0.00    +0.171 C 
ATOM     28  C   UNL     1      -2.830   4.706  -1.024  0.00  0.00    +0.052 C 
ATOM     29  C   UNL     1      -3.987   2.879  -2.276  0.00  0.00    +0.052 C 
ENDBRANCH  26  27
ENDBRANCH  24  26
ENDBRANCH   2  24
TORSDOF 7
