REMARK  Name = ZINC19631452
REMARK  6 active torsions:
REMARK  status: ('A' for Active; 'I' for Inactive)
REMARK    1  A    between atoms: C_1  and  C_2
REMARK    2  A    between atoms: C_2  and  O_3
REMARK    3  A    between atoms: O_3  and  C_4
REMARK    4  A    between atoms: C_6  and  C_14
REMARK    5  A    between atoms: C_8  and  N_11
REMARK    6  A    between atoms: C_25  and  C_28
REMARK                            x       y       z     vdW  Elec       q    Type
REMARK                         _______ _______ _______ _____ _____    ______ ____
ROOT
ATOM      1  C   UNL     1      -0.058   3.639  -0.826  0.00  0.00    +0.063 C 
ATOM      2  C   UNL     1      -1.232   3.116   0.003  0.00  0.00    +0.109 C 
ATOM      3  C   UNL     1      -1.191   1.610   0.017  0.00  0.00    +0.218 C 
ATOM      4  O   UNL     1      -2.225   0.977   0.040  0.00  0.00    -0.275 OA
ATOM      5  N   UNL     1      -0.011   0.966   0.007  0.00  0.00    -0.289 N 
ATOM      6  C   UNL     1       1.175   1.655  -0.000  0.00  0.00    +0.018 C 
ATOM      7  C   UNL     1       1.212   2.947  -0.388  0.00  0.00    +0.020 C 
ATOM      8  C   UNL     1       2.414   3.674  -0.396  0.00  0.00    +0.162 C 
ATOM      9  O   UNL     1       2.410   4.832  -0.763  0.00  0.00    -0.292 OA
ATOM     10  C   UNL     1       3.707   3.041   0.044  0.00  0.00    +0.088 C 
ATOM     11  C   UNL     1       3.400   1.941   1.065  0.00  0.00    +0.032 C 
ATOM     12  C   UNL     1       2.432   0.941   0.429  0.00  0.00    +0.059 C 
ATOM     13  H   UNL     1       0.015  -0.134   0.006  0.00  0.00    +0.155 HD
ENDROOT
BRANCH   1  16
ATOM     14  C   UNL     1      -0.602   4.144  -4.530  0.00  0.00    +0.169 A 
ATOM     15  C   UNL     1      -0.373   4.402  -3.188  0.00  0.00    +0.054 A 
ATOM     16  C   UNL     1      -0.307   3.357  -2.285  0.00  0.00    -0.034 A 
ATOM     17  C   UNL     1      -0.464   2.054  -2.718  0.00  0.00    +0.041 A 
ATOM     18  C   UNL     1      -0.699   1.790  -4.055  0.00  0.00    +0.177 A 
ATOM     19  C   UNL     1      -0.765   2.833  -4.965  0.00  0.00    +0.250 A 
ATOM     20  O   UNL     1      -0.991   2.575  -6.281  0.00  0.00    -0.282 OA
BRANCH  18  21
ATOM     21  N   UNL     1      -0.872   0.394  -4.515  0.00  0.00    +0.060 N 
ATOM     22  O   UNL     1      -0.813  -0.523  -3.714  0.00  0.00    -0.126 OA
ATOM     23  O   UNL     1      -1.073   0.161  -5.693  0.00  0.00    -0.126 OA
ENDBRANCH  18  21
BRANCH  14  24
ATOM     24  O   UNL     1      -0.666   5.170  -5.420  0.00  0.00    -0.488 OA
BRANCH  24  26
ATOM     25  C   UNL     1      -0.593   7.505  -6.042  0.00  0.00    +0.048 C 
ATOM     26  C   UNL     1      -0.489   6.490  -4.901  0.00  0.00    +0.226 C 
ENDBRANCH  24  26
ENDBRANCH  14  24
ENDBRANCH   1  16
BRANCH  11  27
ATOM     27  C   UNL     1       4.675   1.236   1.449  0.00  0.00    -0.043 A 
ATOM     28  C   UNL     1       5.423   0.588   0.484  0.00  0.00    +0.007 A 
ATOM     29  C   UNL     1       6.596  -0.054   0.834  0.00  0.00    +0.038 A 
ATOM     30  C   UNL     1       7.016  -0.057   2.153  0.00  0.00    +0.123 A 
ATOM     31  C   UNL     1       6.263   0.588   3.120  0.00  0.00    +0.038 A 
ATOM     32  C   UNL     1       5.093   1.234   2.767  0.00  0.00    +0.007 A 
ATOM     33  F   UNL     1       8.159  -0.689   2.498  0.00  0.00    -0.205 F 
ENDBRANCH  11  27
TORSDOF 5
