REMARK  Name = ZINC39795910
REMARK  10 active torsions:
REMARK  status: ('A' for Active; 'I' for Inactive)
REMARK    1  A    between atoms: C_1  and  C_2
REMARK    2  A    between atoms: C_2  and  C_4
REMARK    3  A    between atoms: C_2  and  S_14
REMARK    4  A    between atoms: N_9  and  C_10
REMARK    5  A    between atoms: C_10  and  C_11
REMARK    6  A    between atoms: C_11  and  C_12
REMARK    7  A    between atoms: C_11  and  C_13
REMARK    8  A    between atoms: S_14  and  C_15
REMARK    9  A    between atoms: C_19  and  C_24
REMARK   10  A    between atoms: N_20  and  C_21
REMARK                            x       y       z     vdW  Elec       q    Type
REMARK                         _______ _______ _______ _____ _____    ______ ____
ROOT
ATOM      1  C   UNL     1       2.289  -0.046  -1.358  0.00  0.00    +0.238 C 
ATOM      2  N   UNL     1       2.919  -0.840  -0.290  0.00  0.00    -0.237 N 
ATOM      3  N   UNL     1       3.625   0.063   0.514  0.00  0.00    -0.169 NA
ATOM      4  C   UNL     1       3.502   1.287   0.072  0.00  0.00    +0.147 C 
ATOM      5  N   UNL     1       2.703   1.338  -1.076  0.00  0.00    -0.282 N 
ATOM      6  H   UNL     1       2.857  -1.800  -0.167  0.00  0.00    +0.171 HD
ENDROOT
BRANCH   4   7
ATOM      7  C   UNL     1       4.097   2.407   0.672  0.00  0.00    +0.022 C 
ATOM      8  C   UNL     1       4.865   2.433   1.836  0.00  0.00    +0.006 A 
ATOM      9  C   UNL     1       5.273   1.421   2.732  0.00  0.00    +0.010 A 
ATOM     10  C   UNL     1       6.037   1.741   3.808  0.00  0.00    +0.001 A 
ATOM     11  C   UNL     1       6.436   3.056   4.056  0.00  0.00    +0.002 A 
ATOM     12  C   UNL     1       6.081   4.078   3.238  0.00  0.00    +0.026 A 
ATOM     13  C   UNL     1       5.283   3.821   2.093  0.00  0.00    +0.043 A 
ATOM     14  N   UNL     1       4.814   4.624   1.159  0.00  0.00    -0.380 N 
ATOM     15  C   UNL     1       4.044   3.840   0.188  0.00  0.00    +0.152 C 
ATOM     16  H   UNL     1       4.958   5.582   1.118  0.00  0.00    +0.160 HD
ENDBRANCH   4   7
BRANCH   5  17
ATOM     17  C   UNL     1       2.347   2.532  -1.847  0.00  0.00    +0.078 C 
ATOM     18  C   UNL     1       1.405   2.349  -3.039  0.00  0.00    +0.024 C 
ATOM     19  C   UNL     1       2.889   2.640  -3.273  0.00  0.00    +0.024 C 
ENDBRANCH   5  17
BRANCH   1  20
ATOM     20  S   UNL     1       0.483  -0.197  -1.279  0.00  0.00    -0.106 S 
BRANCH  20  22
ATOM     21  C   UNL     1       0.292   1.562   0.806  0.00  0.00    +0.029 C 
ATOM     22  C   UNL     1       0.095   0.083   0.471  0.00  0.00    +0.133 C 
BRANCH  22  23
ATOM     23  C   UNL     1      -1.337  -0.306   0.736  0.00  0.00    +0.233 C 
ATOM     24  O   UNL     1      -2.125  -0.379  -0.182  0.00  0.00    -0.274 OA
ATOM     25  N   UNL     1      -1.740  -0.572   1.994  0.00  0.00    -0.239 N 
ATOM     26  C   UNL     1      -3.021  -0.920   2.231  0.00  0.00    +0.306 C 
ATOM     27  O   UNL     1      -3.811  -0.993   1.311  0.00  0.00    -0.252 OA
ATOM     28  N   UNL     1      -3.425  -1.186   3.489  0.00  0.00    -0.299 N 
ATOM     29  H   UNL     1      -1.110  -0.514   2.728  0.00  0.00    +0.159 HD
ATOM     30  H   UNL     1      -2.794  -1.127   4.224  0.00  0.00    +0.150 HD
BRANCH  28  31
ATOM     31  C   UNL     1      -4.816  -1.564   3.747  0.00  0.00    +0.108 C 
BRANCH  31  32
ATOM     32  C   UNL     1      -5.009  -1.809   5.245  0.00  0.00    -0.000 C 
ATOM     33  C   UNL     1      -6.487  -2.082   5.532  0.00  0.00    +0.009 C 
ATOM     34  C   UNL     1      -4.175  -3.018   5.675  0.00  0.00    +0.009 C 
ENDBRANCH  31  32
ENDBRANCH  28  31
ENDBRANCH  22  23
ENDBRANCH  20  22
ENDBRANCH   1  20
TORSDOF 7
