REMARK  Name = ZINC37228465
REMARK  3 active torsions:
REMARK  status: ('A' for Active; 'I' for Inactive)
REMARK    1  A    between atoms: N_14  and  C_18
REMARK    2  A    between atoms: C_18  and  C_19
REMARK    3  A    between atoms: C_19  and  N_20
REMARK                            x       y       z     vdW  Elec       q    Type
REMARK                         _______ _______ _______ _____ _____    ______ ____
ROOT
ATOM      1  C   UNL     1      -0.017   1.377   0.010  0.00  0.00    +0.000 A 
ATOM      2  C   UNL     1       1.173   2.081   0.002  0.00  0.00    +0.000 A 
ATOM      3  C   UNL     1       2.378   1.404  -0.012  0.00  0.00    +0.006 A 
ATOM      4  C   UNL     1       2.394   0.018  -0.017  0.00  0.00    -0.012 A 
ATOM      5  C   UNL     1       1.213  -0.678  -0.011  0.00  0.00    -0.042 A 
ATOM      6  C   UNL     1       0.002  -0.004   0.002  0.00  0.00    +0.004 A 
ATOM      7  C   UNL     1       1.186  -2.200  -0.021  0.00  0.00    +0.035 C 
ATOM      8  C   UNL     1       1.690  -2.679   1.345  0.00  0.00    +0.005 C 
ATOM      9  C   UNL     1       3.197  -2.689   1.420  0.00  0.00    +0.003 C 
ATOM     10  C   UNL     1       3.919  -1.365   1.346  0.00  0.00    +0.040 C 
ATOM     11  C   UNL     1       3.740  -0.689  -0.020  0.00  0.00    +0.138 C 
ATOM     12  C   UNL     1       3.960  -1.602  -1.177  0.00  0.00    +0.251 C 
ATOM     13  O   UNL     1       3.531  -2.713  -1.404  0.00  0.00    -0.272 OA
ATOM     14  N   UNL     1       4.837  -0.954  -1.988  0.00  0.00    -0.222 N 
ATOM     15  C   UNL     1       5.319   0.145  -1.400  0.00  0.00    +0.310 C 
ATOM     16  O   UNL     1       6.140   0.884  -1.910  0.00  0.00    -0.252 OA
ATOM     17  N   UNL     1       4.789   0.340  -0.179  0.00  0.00    -0.281 N 
ATOM     18  H   UNL     1       5.036   1.010   0.473  0.00  0.00    +0.152 HD
ENDROOT
BRANCH  14  19
ATOM     19  C   UNL     1       5.200  -1.411  -3.330  0.00  0.00    +0.137 C 
BRANCH  19  20
ATOM     20  C   UNL     1       4.242  -0.800  -4.354  0.00  0.00    +0.136 C 
BRANCH  20  21
ATOM     21  N   UNL     1       4.605  -1.258  -5.697  0.00  0.00    -0.233 N 
ATOM     22  C   UNL     1       5.476  -0.628  -6.506  0.00  0.00    +0.254 C 
ATOM     23  O   UNL     1       6.075   0.395  -6.244  0.00  0.00    -0.270 OA
ATOM     24  C   UNL     1       5.581  -1.390  -7.769  0.00  0.00    +0.049 A 
ATOM     25  C   UNL     1       6.303  -1.227  -8.940  0.00  0.00    +0.014 A 
ATOM     26  C   UNL     1       6.168  -2.151  -9.965  0.00  0.00    +0.001 A 
ATOM     27  C   UNL     1       5.319  -3.233  -9.826  0.00  0.00    +0.001 A 
ATOM     28  C   UNL     1       4.591  -3.409  -8.660  0.00  0.00    +0.014 A 
ATOM     29  C   UNL     1       4.715  -2.493  -7.627  0.00  0.00    +0.049 A 
ATOM     30  C   UNL     1       4.117  -2.368  -6.281  0.00  0.00    +0.254 C 
ATOM     31  O   UNL     1       3.317  -3.136  -5.786  0.00  0.00    -0.270 OA
ENDBRANCH  20  21
ENDBRANCH  19  20
ENDBRANCH  14  19
TORSDOF 3
