REMARK  Name = ZINC24134233
REMARK  6 active torsions:
REMARK  status: ('A' for Active; 'I' for Inactive)
REMARK    1  A    between atoms: C_1  and  C_2
REMARK    2  A    between atoms: N_12  and  C_13
REMARK    3  A    between atoms: C_13  and  C_15
REMARK    4  A    between atoms: C_13  and  C_25
REMARK    5  A    between atoms: C_25  and  C_26
REMARK    6  A    between atoms: C_25  and  C_27
REMARK                            x       y       z     vdW  Elec       q    Type
REMARK                         _______ _______ _______ _____ _____    ______ ____
ROOT
ATOM      1  C   UNL     1      -8.701  -3.358   3.115  0.00  0.00    +0.068 C 
ATOM      2  C   UNL     1      -7.642  -2.440   2.562  0.00  0.00    +0.066 A 
ATOM      3  C   UNL     1      -7.623  -1.078   2.914  0.00  0.00    +0.008 A 
ATOM      4  C   UNL     1      -8.565  -0.506   3.779  0.00  0.00    +0.010 A 
ATOM      5  C   UNL     1      -8.472   0.818   4.088  0.00  0.00    +0.001 A 
ATOM      6  C   UNL     1      -7.467   1.614   3.543  0.00  0.00    +0.001 A 
ATOM      7  C   UNL     1      -6.538   1.091   2.693  0.00  0.00    +0.012 A 
ATOM      8  C   UNL     1      -6.596  -0.267   2.364  0.00  0.00    +0.023 A 
ATOM      9  C   UNL     1      -5.671  -0.884   1.491  0.00  0.00    +0.121 A 
ATOM     10  N   UNL     1      -5.797  -2.175   1.239  0.00  0.00    -0.264 N 
ATOM     11  N   UNL     1      -6.724  -2.901   1.744  0.00  0.00    -0.177 NA
ATOM     12  N   UNL     1      -4.647  -0.149   0.915  0.00  0.00    -0.322 N 
ATOM     13  H   UNL     1      -4.552   0.925   1.132  0.00  0.00    +0.148 HD
ATOM     14  H   UNL     1      -5.086  -2.676   0.567  0.00  0.00    +0.190 HD
ENDROOT
BRANCH  12  15
ATOM     15  C   UNL     1      -3.692  -0.803   0.018  0.00  0.00    +0.105 C 
BRANCH  15  16
ATOM     16  C   UNL     1      -2.397  -0.033   0.016  0.00  0.00    -0.023 A 
ATOM     17  C   UNL     1      -2.415   1.349   0.026  0.00  0.00    +0.009 A 
ATOM     18  C   UNL     1      -1.229   2.059   0.019  0.00  0.00    +0.050 A 
ATOM     19  C   UNL     1      -0.017   1.385   0.010  0.00  0.00    +0.162 A 
ATOM     20  C   UNL     1       0.002  -0.004   0.002  0.00  0.00    +0.162 A 
ATOM     21  C   UNL     1      -1.192  -0.710   0.004  0.00  0.00    +0.055 A 
ATOM     22  O   UNL     1       1.181  -0.685  -0.007  0.00  0.00    -0.485 OA
ATOM     23  C   UNL     1       2.347   0.053  -0.387  0.00  0.00    +0.270 C 
ATOM     24  C   UNL     1       2.334   1.392   0.364  0.00  0.00    +0.270 C 
ATOM     25  O   UNL     1       1.143   2.098   0.002  0.00  0.00    -0.485 OA
ENDBRANCH  15  16
BRANCH  15  26
ATOM     26  C   UNL     1      -4.266  -0.838  -1.400  0.00  0.00    +0.008 C 
ATOM     27  C   UNL     1      -4.407   0.590  -1.929  0.00  0.00    +0.009 C 
ATOM     28  C   UNL     1      -3.326  -1.630  -2.312  0.00  0.00    +0.009 C 
ENDBRANCH  15  26
ENDBRANCH  12  15
TORSDOF 3
