REMARK  Name = ZINC35926854
REMARK  6 active torsions:
REMARK  status: ('A' for Active; 'I' for Inactive)
REMARK    1  A    between atoms: C_4  and  O_35
REMARK    2  A    between atoms: C_5  and  C_7
REMARK    3  A    between atoms: C_7  and  N_8
REMARK    4  A    between atoms: C_20  and  C_22
REMARK    5  A    between atoms: C_22  and  N_23
REMARK    6  A    between atoms: N_26  and  C_29
REMARK                            x       y       z     vdW  Elec       q    Type
REMARK                         _______ _______ _______ _____ _____    ______ ____
ROOT
ATOM      1  N   UNL     1       0.659  -2.308   2.943  0.00  0.00    +0.384 N 
ATOM      2  C   UNL     1       0.437  -3.757   3.038  0.00  0.00    -0.059 C 
ATOM      3  C   UNL     1       1.626  -4.496   2.415  0.00  0.00    +0.089 C 
ATOM      4  N   UNL     1       2.860  -4.027   3.063  0.00  0.00    -0.305 N 
ATOM      5  C   UNL     1       3.084  -2.576   3.158  0.00  0.00    +0.089 C 
ATOM      6  C   UNL     1       1.827  -1.927   3.747  0.00  0.00    -0.059 C 
ATOM      7  C   UNL     1       3.773  -4.915   3.565  0.00  0.00    +0.198 A 
ATOM      8  N   UNL     1       3.488  -6.245   3.553  0.00  0.00    -0.295 N 
ATOM      9  H   UNL     1       2.644  -6.559   3.192  0.00  0.00    +0.172 HD
ATOM     10  C   UNL     1       4.383  -7.127   4.046  0.00  0.00    +0.253 A 
ATOM     11  O   UNL     1       4.144  -8.323   4.043  0.00  0.00    -0.268 OA
ATOM     12  C   UNL     1       5.597  -6.640   4.563  0.00  0.00    +0.094 A 
ATOM     13  C   UNL     1       5.828  -5.295   4.548  0.00  0.00    +0.064 A 
ATOM     14  N   UNL     1       4.915  -4.467   4.047  0.00  0.00    -0.219 NA
ATOM     15  H   UNL     1       0.819  -2.058   1.979  0.00  0.00    -0.081 HD
ENDROOT
BRANCH   1  16
ATOM     16  C   UNL     1      -0.528  -1.599   3.441  0.00  0.00    -0.039 C 
BRANCH  16  21
ATOM     17  C   UNL     1      -3.773  -2.996   2.108  0.00  0.00    +0.000 A 
ATOM     18  C   UNL     1      -3.846  -2.394   0.865  0.00  0.00    +0.004 A 
ATOM     19  C   UNL     1      -2.847  -1.535   0.452  0.00  0.00    +0.045 A 
ATOM     20  C   UNL     1      -1.768  -1.275   1.286  0.00  0.00    +0.118 A 
ATOM     21  C   UNL     1      -1.697  -1.879   2.533  0.00  0.00    -0.022 A 
ATOM     22  C   UNL     1      -2.700  -2.738   2.941  0.00  0.00    +0.005 A 
BRANCH  20  23
ATOM     23  O   UNL     1      -0.784  -0.431   0.882  0.00  0.00    -0.507 OA
ATOM     24  H   UNL     1      -0.972   0.503   1.051  0.00  0.00    +0.292 HD
ENDBRANCH  20  23
ENDBRANCH  16  21
ENDBRANCH   1  16
BRANCH  13  25
ATOM     25  C   UNL     1       7.121  -4.748   5.096  0.00  0.00    +0.140 C 
BRANCH  25  26
ATOM     26  N   UNL     1       7.890  -4.129   4.008  0.00  0.00    -0.300 NA
ATOM     27  C   UNL     1       8.329  -5.138   3.033  0.00  0.00    +0.066 C 
ATOM     28  C   UNL     1       9.073  -4.446   1.889  0.00  0.00    -0.063 C 
ATOM     29  N   UNL     1      10.233  -3.722   2.425  0.00  0.00    +0.383 N 
ATOM     30  C   UNL     1       9.777  -2.702   3.379  0.00  0.00    -0.063 C 
ATOM     31  C   UNL     1       9.039  -3.379   4.536  0.00  0.00    +0.066 C 
ATOM     32  H   UNL     1      10.847  -4.372   2.895  0.00  0.00    -0.081 HD
BRANCH  29  33
ATOM     33  C   UNL     1      10.958  -3.074   1.324  0.00  0.00    -0.068 C 
ATOM     34  C   UNL     1      11.434  -4.136   0.332  0.00  0.00    -0.015 C 
ATOM     35  C   UNL     1      12.189  -3.461  -0.815  0.00  0.00    -0.002 C 
ATOM     36  C   UNL     1      13.397  -2.707  -0.256  0.00  0.00    -0.000 C 
ATOM     37  C   UNL     1      12.921  -1.645   0.736  0.00  0.00    -0.002 C 
ATOM     38  C   UNL     1      12.166  -2.320   1.883  0.00  0.00    -0.015 C 
ENDBRANCH  29  33
ENDBRANCH  25  26
ENDBRANCH  13  25
TORSDOF 6
