REMARK  Name = ZINC39452802
REMARK  5 active torsions:
REMARK  status: ('A' for Active; 'I' for Inactive)
REMARK    1  A    between atoms: C_1  and  O_2
REMARK    2  A    between atoms: O_2  and  C_3
REMARK    3  A    between atoms: N_15  and  C_18
REMARK    4  A    between atoms: C_28  and  O_31
REMARK    5  A    between atoms: O_31  and  C_32
REMARK                            x       y       z     vdW  Elec       q    Type
REMARK                         _______ _______ _______ _____ _____    ______ ____
ROOT
ATOM      1  C   UNL     1      -1.199  -0.637   0.010  0.00  0.00    +0.129 A 
ATOM      2  C   UNL     1      -2.369   0.090   0.019  0.00  0.00    +0.046 A 
ATOM      3  C   UNL     1      -3.609  -0.539   0.027  0.00  0.00    +0.006 A 
ATOM      4  C   UNL     1      -3.728  -1.895   0.026  0.00  0.00    +0.028 A 
ATOM      5  C   UNL     1      -2.575  -2.699   0.018  0.00  0.00    +0.075 A 
ATOM      6  C   UNL     1      -1.263  -2.045   0.003  0.00  0.00    +0.043 A 
ATOM      7  C   UNL     1      -0.109  -2.838  -0.013  0.00  0.00    +0.029 A 
ATOM      8  C   UNL     1      -0.271  -4.217  -0.018  0.00  0.00    +0.068 A 
ATOM      9  C   UNL     1      -1.573  -4.785  -0.005  0.00  0.00    +0.100 A 
ATOM     10  N   UNL     1      -2.655  -4.030   0.019  0.00  0.00    -0.244 NA
ATOM     11  C   UNL     1      -1.685  -6.254  -0.006  0.00  0.00    +0.083 A 
ATOM     12  C   UNL     1      -0.543  -7.031  -0.024  0.00  0.00    +0.116 A 
ATOM     13  N   UNL     1       0.720  -6.448  -0.036  0.00  0.00    -0.268 N 
ATOM     14  C   UNL     1       0.894  -5.115  -0.034  0.00  0.00    +0.266 A 
ATOM     15  O   UNL     1       2.019  -4.649  -0.046  0.00  0.00    -0.267 OA
ATOM     16  C   UNL     1      -0.653  -8.441  -0.034  0.00  0.00    +0.186 C 
ATOM     17  O   UNL     1       0.352  -9.122   0.001  0.00  0.00    -0.290 OA
ATOM     18  C   UNL     1      -2.003  -9.105  -0.087  0.00  0.00    +0.132 C 
ATOM     19  C   UNL     1      -3.040  -8.204   0.592  0.00  0.00    +0.210 C 
ATOM     20  N   UNL     1      -2.928  -6.856   0.014  0.00  0.00    -0.315 N 
ATOM     21  H   UNL     1      -3.707  -6.402  -0.344  0.00  0.00    +0.149 HD
ENDROOT
BRANCH  13  22
ATOM     22  C   UNL     1       1.848  -7.277  -0.049  0.00  0.00    +0.097 A 
ATOM     23  C   UNL     1       2.400  -7.681  -1.257  0.00  0.00    +0.030 A 
ATOM     24  C   UNL     1       3.513  -8.500  -1.268  0.00  0.00    +0.002 A 
ATOM     25  C   UNL     1       4.080  -8.918  -0.078  0.00  0.00    +0.004 A 
ATOM     26  C   UNL     1       3.536  -8.520   1.129  0.00  0.00    +0.053 A 
ATOM     27  C   UNL     1       2.423  -7.694   1.149  0.00  0.00    +0.203 A 
ATOM     28  O   UNL     1       1.891  -7.296   2.335  0.00  0.00    -0.286 OA
ENDBRANCH  13  22
BRANCH   1  30
ATOM     29  C   UNL     1      -0.017   1.425   0.010  0.00  0.00    +0.277 C 
ATOM     30  O   UNL     1       0.002  -0.004   0.002  0.00  0.00    -0.494 OA
ENDBRANCH   1  30
BRANCH  19  31
ATOM     31  O   UNL     1      -4.353  -8.720   0.362  0.00  0.00    -0.362 OA
ATOM     32  C   UNL     1      -5.371  -8.085   1.137  0.00  0.00    +0.196 C 
ENDBRANCH  19  31
TORSDOF 3
