REMARK  Name = ZINC63384219
REMARK  8 active torsions:
REMARK  status: ('A' for Active; 'I' for Inactive)
REMARK    1  A    between atoms: C_1  and  S_2
REMARK    2  A    between atoms: S_2  and  C_3
REMARK    3  A    between atoms: C_3  and  C_4
REMARK    4  A    between atoms: C_4  and  C_5
REMARK    5  A    between atoms: C_5  and  C_7
REMARK    6  A    between atoms: C_5  and  N_15
REMARK    7  A    between atoms: N_9  and  C_10
REMARK    8  A    between atoms: C_16  and  C_18
REMARK                            x       y       z     vdW  Elec       q    Type
REMARK                         _______ _______ _______ _____ _____    ______ ____
ROOT
ATOM      1  C   UNL     1       0.194  -0.127  -5.733  0.00  0.00    +0.167 C 
ATOM      2  C   UNL     1       0.648  -0.876  -7.001  0.00  0.00    +0.065 C 
ATOM      3  C   UNL     1       1.073   0.169  -8.002  0.00  0.00    -0.034 C 
ATOM      4  C   UNL     1       2.194   0.283  -8.708  0.00  0.00    -0.001 A 
ATOM      5  C   UNL     1       3.361  -0.604  -8.839  0.00  0.00    +0.010 A 
ATOM      6  C   UNL     1       4.360  -0.164  -9.649  0.00  0.00    +0.001 A 
ATOM      7  C   UNL     1       4.316   1.055 -10.333  0.00  0.00    +0.002 A 
ATOM      8  C   UNL     1       3.280   1.929 -10.275  0.00  0.00    +0.026 A 
ATOM      9  C   UNL     1       2.165   1.573  -9.462  0.00  0.00    +0.043 A 
ATOM     10  N   UNL     1       1.048   2.201  -9.244  0.00  0.00    -0.375 N 
ATOM     11  C   UNL     1       0.212   1.368  -8.377  0.00  0.00    +0.131 C 
ATOM     12  C   UNL     1      -0.160   2.084  -7.080  0.00  0.00    +0.134 C 
ATOM     13  N   UNL     1       0.401   1.310  -5.954  0.00  0.00    -0.276 N 
ATOM     14  C   UNL     1       1.137   2.139  -5.189  0.00  0.00    +0.248 C 
ATOM     15  O   UNL     1       1.637   1.842  -4.122  0.00  0.00    -0.270 OA
ATOM     16  C   UNL     1       1.247   3.450  -5.831  0.00  0.00    +0.042 A 
ATOM     17  C   UNL     1       0.453   3.444  -7.008  0.00  0.00    -0.013 A 
ATOM     18  C   UNL     1       0.354   4.542  -7.833  0.00  0.00    +0.006 A 
ATOM     19  C   UNL     1       1.066   5.678  -7.461  0.00  0.00    +0.000 A 
ATOM     20  C   UNL     1       1.838   5.711  -6.317  0.00  0.00    +0.001 A 
ATOM     21  C   UNL     1       1.959   4.593  -5.458  0.00  0.00    +0.013 A 
ATOM     22  H   UNL     1       0.808   3.072  -9.596  0.00  0.00    +0.160 HD
ENDROOT
BRANCH   1  24
ATOM     23  N   UNL     1       2.330  -0.317  -4.501  0.00  0.00    -0.302 N 
ATOM     24  C   UNL     1       1.010  -0.583  -4.552  0.00  0.00    +0.235 C 
ATOM     25  O   UNL     1       0.479  -1.190  -3.646  0.00  0.00    -0.274 OA
ATOM     26  H   UNL     1       2.755   0.169  -5.226  0.00  0.00    +0.150 HD
BRANCH  23  27
ATOM     27  C   UNL     1       3.124  -0.761  -3.353  0.00  0.00    +0.160 C 
BRANCH  27  28
ATOM     28  C   UNL     1       4.335   0.124  -3.206  0.00  0.00    +0.234 C 
ATOM     29  O   UNL     1       4.517   1.036  -3.985  0.00  0.00    -0.274 OA
ATOM     30  N   UNL     1       5.215  -0.097  -2.210  0.00  0.00    -0.311 N 
ATOM     31  H   UNL     1       5.069  -0.827  -1.588  0.00  0.00    +0.149 HD
BRANCH  30  32
ATOM     32  C   UNL     1       6.392   0.764  -2.068  0.00  0.00    +0.073 C 
ATOM     33  C   UNL     1       7.553   0.216  -2.923  0.00  0.00    +0.022 C 
ATOM     34  C   UNL     1       8.816   0.485  -2.067  0.00  0.00    +0.002 C 
ATOM     35  C   UNL     1       8.319   0.202  -0.627  0.00  0.00    +0.002 C 
ATOM     36  C   UNL     1       6.878   0.754  -0.608  0.00  0.00    +0.022 C 
ENDBRANCH  30  32
ENDBRANCH  27  28
BRANCH  27  37
ATOM     37  C   UNL     1       3.573  -2.207  -3.571  0.00  0.00    +0.042 C 
BRANCH  37  38
ATOM     38  C   UNL     1       2.348  -3.123  -3.595  0.00  0.00    +0.071 C 
BRANCH  38  40
ATOM     39  C   UNL     1       1.332  -5.783  -3.858  0.00  0.00    +0.084 C 
ATOM     40  S   UNL     1       2.881  -4.838  -3.855  0.00  0.00    -0.164 S 
ENDBRANCH  38  40
ENDBRANCH  37  38
ENDBRANCH  27  37
ENDBRANCH  23  27
ENDBRANCH   1  24
TORSDOF 7
