REMARK  Name = ZINC13131001
REMARK  5 active torsions:
REMARK  status: ('A' for Active; 'I' for Inactive)
REMARK    1  A    between atoms: C_3  and  C_6
REMARK    2  A    between atoms: C_6  and  N_7
REMARK    3  A    between atoms: C_8  and  C_10
REMARK    4  A    between atoms: C_16  and  C_25
REMARK    5  A    between atoms: C_19  and  C_21
REMARK                            x       y       z     vdW  Elec       q    Type
REMARK                         _______ _______ _______ _____ _____    ______ ____
ROOT
ATOM      1  C   UNL     1       5.930   0.556   2.959  0.00  0.00    +0.096 A 
ATOM      2  C   UNL     1       5.151   0.562   4.143  0.00  0.00    +0.149 A 
ATOM      3  N   UNL     1       5.962   0.540   5.166  0.00  0.00    -0.177 NA
ATOM      4  N   UNL     1       7.278   0.518   4.707  0.00  0.00    -0.238 N 
ATOM      5  C   UNL     1       7.255   0.523   3.353  0.00  0.00    +0.130 A 
ATOM      6  N   UNL     1       8.403   0.504   2.581  0.00  0.00    -0.322 N 
ATOM      7  C   UNL     1       9.671   0.761   3.292  0.00  0.00    +0.104 C 
ATOM      8  C   UNL     1       9.656  -0.022   4.609  0.00  0.00    +0.063 C 
ATOM      9  C   UNL     1       8.513   0.487   5.499  0.00  0.00    +0.215 C 
ATOM     10  H   UNL     1       8.376   0.331   1.627  0.00  0.00    +0.148 HD
ENDROOT
BRANCH   7  11
ATOM     11  C   UNL     1       9.803   2.235   3.575  0.00  0.00    -0.027 A 
ATOM     12  C   UNL     1       8.698   2.963   3.977  0.00  0.00    +0.006 A 
ATOM     13  C   UNL     1       8.819   4.315   4.238  0.00  0.00    +0.015 A 
ATOM     14  C   UNL     1      10.045   4.940   4.096  0.00  0.00    +0.018 A 
ATOM     15  C   UNL     1      11.150   4.211   3.693  0.00  0.00    +0.015 A 
ATOM     16  C   UNL     1      11.029   2.858   3.438  0.00  0.00    +0.006 A 
ATOM     17 BR   UNL     1      10.210   6.790   4.451  0.00  0.00    -0.050 Br
ENDBRANCH   7  11
BRANCH   1  19
ATOM     18  N   UNL     1       4.101   0.607   1.347  0.00  0.00    -0.304 N 
ATOM     19  C   UNL     1       5.428   0.575   1.580  0.00  0.00    +0.249 C 
ATOM     20  O   UNL     1       6.209   0.561   0.647  0.00  0.00    -0.270 OA
ATOM     21  H   UNL     1       3.478   0.617   2.090  0.00  0.00    +0.149 HD
BRANCH  18  22
ATOM     22  C   UNL     1       3.599   0.625  -0.029  0.00  0.00    +0.179 C 
BRANCH  22  25
ATOM     23  C   UNL     1      -0.016   1.341   0.009  0.00  0.00    +0.041 A 
ATOM     24  C   UNL     1       1.331   1.769  -0.001  0.00  0.00    +0.046 A 
ATOM     25  C   UNL     1       2.092   0.660  -0.014  0.00  0.00    +0.122 A 
ATOM     26  O   UNL     1       1.282  -0.411  -0.012  0.00  0.00    -0.466 OA
ATOM     27  C   UNL     1       0.002  -0.004   0.002  0.00  0.00    +0.195 A 
ENDBRANCH  22  25
ENDBRANCH  18  22
ENDBRANCH   1  19
BRANCH   9  28
ATOM     28  C   UNL     1       8.338  -0.465   6.684  0.00  0.00    +0.412 C 
ATOM     29  F   UNL     1       8.056  -1.751   6.212  0.00  0.00    -0.168 F 
ATOM     30  F   UNL     1       9.517  -0.492   7.437  0.00  0.00    -0.168 F 
ATOM     31  F   UNL     1       7.282  -0.020   7.487  0.00  0.00    -0.168 F 
ENDBRANCH   9  28
TORSDOF 5
