REMARK  Name = ZINC15958405
REMARK  9 active torsions:
REMARK  status: ('A' for Active; 'I' for Inactive)
REMARK    1  A    between atoms: C_1  and  C_2
REMARK    2  A    between atoms: C_2  and  C_3
REMARK    3  A    between atoms: C_17  and  C_20
REMARK    4  A    between atoms: C_20  and  C_22
REMARK    5  A    between atoms: C_20  and  O_23
REMARK    6  A    between atoms: N_26  and  C_29
REMARK    7  A    between atoms: C_29  and  C_30
REMARK    8  A    between atoms: C_35  and  O_36
REMARK    9  A    between atoms: O_36  and  C_37
REMARK                            x       y       z     vdW  Elec       q    Type
REMARK                         _______ _______ _______ _____ _____    ______ ____
ROOT
ATOM      1  C   UNL     1      -1.412  -0.526   0.013  0.00  0.00    -0.026 A 
ATOM      2  C   UNL     1      -2.011  -0.863   1.209  0.00  0.00    +0.005 A 
ATOM      3  C   UNL     1      -3.309  -1.340   1.229  0.00  0.00    +0.001 A 
ATOM      4  C   UNL     1      -4.009  -1.482   0.044  0.00  0.00    +0.008 A 
ATOM      5  C   UNL     1      -3.415  -1.147  -1.152  0.00  0.00    +0.004 A 
ATOM      6  C   UNL     1      -2.111  -0.661  -1.184  0.00  0.00    +0.042 A 
ATOM      7  N   UNL     1      -1.729  -0.389  -2.500  0.00  0.00    -0.283 N 
ATOM      8  C   UNL     1      -2.713  -0.657  -3.380  0.00  0.00    +0.243 C 
ATOM      9  O   UNL     1      -2.666  -0.519  -4.584  0.00  0.00    -0.273 OA
ATOM     10  C   UNL     1      -3.878  -1.174  -2.581  0.00  0.00    +0.136 C 
ATOM     11  C   UNL     1      -4.292  -2.585  -3.013  0.00  0.00    +0.123 C 
ATOM     12  C   UNL     1      -5.841  -2.597  -2.886  0.00  0.00    +0.109 C 
ATOM     13  C   UNL     1      -6.206  -1.184  -2.382  0.00  0.00    +0.096 C 
ATOM     14  N   UNL     1      -5.068  -0.325  -2.779  0.00  0.00    -0.293 NA
ATOM     15  C   UNL     1      -6.093  -3.610  -1.793  0.00  0.00    +0.228 C 
ATOM     16  O   UNL     1      -7.184  -3.932  -1.374  0.00  0.00    -0.275 OA
ATOM     17  N   UNL     1      -4.925  -4.097  -1.360  0.00  0.00    -0.237 N 
ATOM     18  C   UNL     1      -3.835  -3.592  -1.982  0.00  0.00    +0.229 C 
ATOM     19  O   UNL     1      -2.682  -3.889  -1.756  0.00  0.00    -0.275 OA
ATOM     20  H   UNL     1      -0.857  -0.046  -2.751  0.00  0.00    +0.155 HD
ATOM     21  H   UNL     1      -5.019   0.505  -2.208  0.00  0.00    +0.124 HD
ENDROOT
BRANCH   1  23
ATOM     22  C   UNL     1      -0.019   1.526   0.010  0.00  0.00    +0.009 C 
ATOM     23  C   UNL     1       0.002  -0.004   0.002  0.00  0.00    +0.033 C 
ENDBRANCH   1  23
BRANCH  13  24
ATOM     24  C   UNL     1      -7.508  -0.708  -3.029  0.00  0.00    +0.129 C 
ATOM     25  C   UNL     1      -7.785   0.738  -2.613  0.00  0.00    +0.039 C 
BRANCH  24  26
ATOM     26  O   UNL     1      -7.387  -0.780  -4.451  0.00  0.00    -0.390 OA
ATOM     27  H   UNL     1      -6.673  -0.237  -4.813  0.00  0.00    +0.210 HD
ENDBRANCH  24  26
ENDBRANCH  13  24
BRANCH  17  28
ATOM     28  C   UNL     1      -4.830  -5.103  -0.299  0.00  0.00    +0.155 C 
BRANCH  28  29
ATOM     29  C   UNL     1      -4.867  -6.481  -0.908  0.00  0.00    +0.012 A 
ATOM     30  C   UNL     1      -6.043  -7.205  -0.909  0.00  0.00    +0.009 A 
ATOM     31  C   UNL     1      -6.077  -8.470  -1.467  0.00  0.00    +0.001 A 
ATOM     32  C   UNL     1      -4.935  -9.012  -2.026  0.00  0.00    +0.004 A 
ATOM     33  C   UNL     1      -3.756  -8.292  -2.029  0.00  0.00    +0.046 A 
ATOM     34  C   UNL     1      -3.721  -7.021  -1.474  0.00  0.00    +0.125 A 
BRANCH  34  35
ATOM     35  O   UNL     1      -2.564  -6.307  -1.480  0.00  0.00    -0.495 OA
ATOM     36  C   UNL     1      -1.424  -6.926  -2.079  0.00  0.00    +0.277 C 
ENDBRANCH  34  35
ENDBRANCH  28  29
ENDBRANCH  17  28
TORSDOF 6
