REMARK  Name = ZINC09431323
REMARK  8 active torsions:
REMARK  status: ('A' for Active; 'I' for Inactive)
REMARK    1  A    between atoms: C_1  and  N_2
REMARK    2  A    between atoms: C_14  and  C_15
REMARK    3  A    between atoms: C_15  and  C_16
REMARK    4  A    between atoms: C_16  and  C_17
REMARK    5  A    between atoms: C_17  and  C_18
REMARK    6  A    between atoms: N_20  and  C_21
REMARK    7  A    between atoms: C_21  and  C_22
REMARK    8  A    between atoms: C_22  and  C_23
REMARK                            x       y       z     vdW  Elec       q    Type
REMARK                         _______ _______ _______ _____ _____    ______ ____
ROOT
ATOM      1  C   UNL     1      -1.072  -3.027   1.439  0.00  0.00    +0.096 C 
ENDROOT
BRANCH   1   2
ATOM      2  C   UNL     1      -0.786  -3.456   2.855  0.00  0.00    +0.213 C 
ATOM      3  O   UNL     1      -1.206  -2.799   3.784  0.00  0.00    -0.276 OA
ATOM      4  N   UNL     1      -0.064  -4.570   3.089  0.00  0.00    -0.315 N 
ATOM      5  H   UNL     1       0.271  -5.095   2.346  0.00  0.00    +0.149 HD
BRANCH   4   6
ATOM      6  C   UNL     1       0.214  -4.987   4.465  0.00  0.00    +0.109 C 
BRANCH   6   7
ATOM      7  C   UNL     1       1.045  -6.272   4.451  0.00  0.00    +0.056 C 
BRANCH   7   8
ATOM      8  C   UNL     1       1.331  -6.701   5.867  0.00  0.00    -0.021 A 
ATOM      9  C   UNL     1       2.435  -6.424   6.578  0.00  0.00    +0.087 A 
ATOM     10  N   UNL     1       2.339  -6.978   7.825  0.00  0.00    -0.360 N 
ATOM     11  H   UNL     1       3.014  -6.911   8.519  0.00  0.00    +0.165 HD
ATOM     12  C   UNL     1       1.143  -7.649   7.948  0.00  0.00    +0.047 A 
ATOM     13  C   UNL     1       0.459  -7.505   6.727  0.00  0.00    +0.003 A 
ATOM     14  C   UNL     1      -0.798  -8.089   6.559  0.00  0.00    +0.010 A 
ATOM     15  C   UNL     1      -1.359  -8.799   7.584  0.00  0.00    +0.001 A 
ATOM     16  C   UNL     1      -0.688  -8.944   8.790  0.00  0.00    +0.002 A 
ATOM     17  C   UNL     1       0.553  -8.376   8.977  0.00  0.00    +0.026 A 
ENDBRANCH   7   8
ENDBRANCH   6   7
ENDBRANCH   4   6
ENDBRANCH   1   2
BRANCH   1  18
ATOM     18  C   UNL     1      -1.903  -1.742   1.454  0.00  0.00    +0.017 C 
BRANCH  18  19
ATOM     19  C   UNL     1      -2.193  -1.307   0.016  0.00  0.00    +0.077 C 
BRANCH  19  33
ATOM     20  C   UNL     1      -4.671   4.285   0.069  0.00  0.00    +0.155 C 
ATOM     21  N   UNL     1      -3.483   3.428   0.053  0.00  0.00    -0.279 N 
ATOM     22  C   UNL     1      -2.249   3.978   0.044  0.00  0.00    +0.269 A 
ATOM     23  O   UNL     1      -2.118   5.189   0.050  0.00  0.00    -0.266 OA
ATOM     24  C   UNL     1      -1.121   3.148   0.030  0.00  0.00    +0.101 A 
ATOM     25  C   UNL     1      -1.228   1.756   0.017  0.00  0.00    +0.071 A 
ATOM     26  C   UNL     1      -0.013   1.076   0.008  0.00  0.00    +0.034 A 
ATOM     27  C   UNL     1       1.149   1.768   0.001  0.00  0.00    +0.048 A 
ATOM     28  S   UNL     1       0.631   3.422   0.014  0.00  0.00    -0.090 S 
ATOM     29  N   UNL     1      -2.532   1.235   0.033  0.00  0.00    -0.264 N 
ATOM     30  C   UNL     1      -3.620   2.052   0.047  0.00  0.00    +0.239 A 
ATOM     31  N   UNL     1      -4.680   1.274   0.053  0.00  0.00    -0.110 NA
ATOM     32  N   UNL     1      -4.315   0.040   0.043  0.00  0.00    -0.132 NA
ATOM     33  C   UNL     1      -3.012  -0.041   0.030  0.00  0.00    +0.139 A 
ENDBRANCH  19  33
ENDBRANCH  18  19
ENDBRANCH   1  18
TORSDOF 7
