REMARK  Name = ZINC32971965
REMARK  17 active torsions:
REMARK  status: ('A' for Active; 'I' for Inactive)
REMARK    1  A    between atoms: C_1  and  C_2
REMARK    2  A    between atoms: C_7  and  C_8
REMARK    3  A    between atoms: C_11  and  C_12
REMARK    4  A    between atoms: C_12  and  C_13
REMARK    5  A    between atoms: N_15  and  C_16
REMARK    6  A    between atoms: N_15  and  C_17
REMARK    7  A    between atoms: C_17  and  C_18
REMARK    8  A    between atoms: N_20  and  C_21
REMARK    9  A    between atoms: N_20  and  C_25
REMARK   10  A    between atoms: C_21  and  C_22
REMARK   11  A    between atoms: C_22  and  C_23
REMARK   12  A    between atoms: C_22  and  C_24
REMARK   13  A    between atoms: C_26  and  N_38
REMARK   14  A    between atoms: N_27  and  C_34
REMARK   15  A    between atoms: C_34  and  C_35
REMARK   16  A    between atoms: C_35  and  C_36
REMARK   17  A    between atoms: C_35  and  C_37
REMARK                            x       y       z     vdW  Elec       q    Type
REMARK                         _______ _______ _______ _____ _____    ______ ____
ROOT
ATOM      1  C   UNL     1       0.356   0.257   0.789  0.00  0.00    +0.237 C 
ATOM      2  O   UNL     1      -0.586  -0.370   1.225  0.00  0.00    -0.274 OA
ATOM      3  N   UNL     1       0.236   1.580   0.554  0.00  0.00    -0.263 N 
ENDROOT
BRANCH   3   4
ATOM      4  C   UNL     1      -1.013   2.216   0.719  0.00  0.00    +0.140 A 
ATOM      5  C   UNL     1      -2.105   1.820  -0.025  0.00  0.00    +0.127 A 
ATOM      6  N   UNL     1      -3.310   2.459   0.159  0.00  0.00    -0.280 N 
ATOM      7  C   UNL     1      -3.421   3.457   1.054  0.00  0.00    +0.331 A 
ATOM      8  O   UNL     1      -4.495   4.009   1.202  0.00  0.00    -0.246 OA
ATOM      9  N   UNL     1      -2.367   3.856   1.788  0.00  0.00    -0.273 N 
ATOM     10  H   UNL     1      -2.480   4.677   2.511  0.00  0.00    +0.173 HD
ATOM     11  C   UNL     1      -1.167   3.260   1.650  0.00  0.00    +0.277 A 
ATOM     12  O   UNL     1      -0.219   3.626   2.325  0.00  0.00    -0.266 OA
BRANCH   5  13
ATOM     13  N   UNL     1      -1.992   0.800  -0.939  0.00  0.00    -0.343 N 
ATOM     14  H   UNL     1      -2.867   0.490  -1.529  0.00  0.00    +0.144 HD
ATOM     15  H   UNL     1      -1.025   0.294  -1.081  0.00  0.00    +0.144 HD
ENDBRANCH   5  13
BRANCH   6  16
ATOM     16  C   UNL     1      -4.478   2.049  -0.624  0.00  0.00    +0.131 C 
BRANCH  16  17
ATOM     17  C   UNL     1      -5.235   0.951   0.126  0.00  0.00    +0.003 C 
ATOM     18  C   UNL     1      -5.801   1.520   1.429  0.00  0.00    +0.009 C 
ATOM     19  C   UNL     1      -6.382   0.436  -0.746  0.00  0.00    +0.009 C 
ENDBRANCH  16  17
ENDBRANCH   6  16
ENDBRANCH   3   4
BRANCH   1  20
ATOM     20  C   UNL     1       1.662  -0.443   0.510  0.00  0.00    +0.203 C 
BRANCH  20  23
ATOM     21  C   UNL     1       1.125  -2.742  -0.090  0.00  0.00    +0.220 C 
ATOM     22  O   UNL     1       0.858  -2.358  -1.208  0.00  0.00    -0.275 OA
ATOM     23  N   UNL     1       1.536  -1.863   0.845  0.00  0.00    -0.295 N 
ATOM     24  C   UNL     1       1.858  -2.328   2.197  0.00  0.00    +0.132 C 
BRANCH  21  25
ATOM     25  C   UNL     1       0.995  -4.204   0.255  0.00  0.00    +0.134 C 
BRANCH  25  36
ATOM     26  C   UNL     1       4.662  -6.105  -3.760  0.00  0.00    +0.044 C 
ATOM     27  C   UNL     1       3.186  -6.106  -3.458  0.00  0.00    -0.047 A 
ATOM     28  C   UNL     1       2.719  -5.495  -2.315  0.00  0.00    +0.015 A 
ATOM     29  C   UNL     1       1.351  -5.494  -2.045  0.00  0.00    +0.024 A 
ATOM     30  C   UNL     1       0.457  -6.122  -2.927  0.00  0.00    +0.135 A 
ATOM     31  C   UNL     1       0.948  -6.732  -4.074  0.00  0.00    +0.050 A 
ATOM     32  C   UNL     1       2.302  -6.722  -4.333  0.00  0.00    -0.044 A 
ATOM     33  C   UNL     1       2.828  -7.385  -5.580  0.00  0.00    +0.044 C 
ATOM     34  O   UNL     1      -0.782  -5.972  -2.416  0.00  0.00    -0.463 OA
ATOM     35  C   UNL     1      -0.743  -5.292  -1.257  0.00  0.00    +0.200 A 
ATOM     36  C   UNL     1       0.521  -4.966  -0.955  0.00  0.00    +0.007 A 
ENDBRANCH  25  36
ENDBRANCH  21  25
ENDBRANCH  20  23
ENDBRANCH   1  20
BRANCH   3  37
ATOM     37  C   UNL     1       1.401   2.356   0.120  0.00  0.00    +0.117 C 
BRANCH  37  38
ATOM     38  C   UNL     1       1.532   2.272  -1.402  0.00  0.00    +0.001 C 
ATOM     39  C   UNL     1       0.333   2.960  -2.056  0.00  0.00    +0.009 C 
ATOM     40  C   UNL     1       2.822   2.968  -1.841  0.00  0.00    +0.009 C 
ENDBRANCH  37  38
ENDBRANCH   3  37
TORSDOF 10
