REMARK  Name = ZINC55043450
REMARK  6 active torsions:
REMARK  status: ('A' for Active; 'I' for Inactive)
REMARK    1  A    between atoms: C_1  and  O_2
REMARK    2  A    between atoms: O_2  and  C_3
REMARK    3  A    between atoms: C_3  and  C_5
REMARK    4  A    between atoms: C_8  and  C_23
REMARK    5  A    between atoms: C_13  and  C_15
REMARK    6  A    between atoms: C_19  and  C_21
REMARK                            x       y       z     vdW  Elec       q    Type
REMARK                         _______ _______ _______ _____ _____    ______ ____
ROOT
ATOM      1  C   UNL     1      -1.359  -2.035   0.321  0.00  0.00    +0.269 C 
ATOM      2  O   UNL     1      -0.174  -2.678   0.182  0.00  0.00    -0.280 OA
ATOM      3  C   UNL     1      -2.517  -2.734   0.272  0.00  0.00    +0.055 C 
ATOM      4  C   UNL     1      -2.531  -4.209   0.225  0.00  0.00    +0.078 C 
ATOM      5  N   UNL     1      -3.577  -4.802  -0.348  0.00  0.00    -0.192 NA
ATOM      6  C   UNL     1      -4.588  -4.096  -0.848  0.00  0.00    +0.155 C 
ATOM      7  S   UNL     1      -5.755  -4.915  -1.796  0.00  0.00    -0.017 S 
ATOM      8  N   UNL     1      -4.745  -2.780  -0.650  0.00  0.00    -0.314 N 
ATOM      9  C   UNL     1      -3.865  -2.040   0.270  0.00  0.00    +0.139 C 
ATOM     10  H   UNL     1      -5.451  -2.307  -1.118  0.00  0.00    +0.149 HD
ENDROOT
BRANCH   9  11
ATOM     11  C   UNL     1      -4.447  -2.052   1.660  0.00  0.00    -0.021 A 
ATOM     12  C   UNL     1      -5.071  -3.191   2.138  0.00  0.00    +0.006 A 
ATOM     13  C   UNL     1      -5.608  -3.211   3.412  0.00  0.00    +0.002 A 
ATOM     14  C   UNL     1      -5.525  -2.093   4.216  0.00  0.00    +0.019 A 
ATOM     15  C   UNL     1      -4.897  -0.940   3.741  0.00  0.00    +0.052 A 
ATOM     16  C   UNL     1      -4.353  -0.929   2.455  0.00  0.00    +0.024 A 
BRANCH  15  17
ATOM     17  C   UNL     1      -4.808   0.224   4.570  0.00  0.00    +0.099 C 
ATOM     18  N   UNL     1      -4.736   1.148   5.227  0.00  0.00    -0.191 NA
ENDBRANCH  15  17
ENDBRANCH   9  11
BRANCH   4  19
ATOM     19  C   UNL     1      -1.431  -4.995   0.789  0.00  0.00    +0.036 A 
ATOM     20  C   UNL     1      -0.990  -6.265   0.435  0.00  0.00    +0.017 A 
ATOM     21  C   UNL     1       0.077  -6.746   1.154  0.00  0.00    +0.008 A 
ATOM     22  C   UNL     1       0.615  -5.975   2.133  0.00  0.00    +0.046 A 
ATOM     23  S   UNL     1      -0.305  -4.570   2.104  0.00  0.00    -0.095 S 
ENDBRANCH   4  19
BRANCH   1  24
ATOM     24  C   UNL     1      -1.386  -0.572   0.525  0.00  0.00    +0.379 C 
ATOM     25  O   UNL     1      -2.438  -0.011   0.757  0.00  0.00    -0.241 OA
BRANCH  24  27
ATOM     26  C   UNL     1      -0.345   1.550   0.661  0.00  0.00    +0.280 C 
ATOM     27  O   UNL     1      -0.244   0.140   0.454  0.00  0.00    -0.462 OA
ENDBRANCH  24  27
ENDBRANCH   1  24
TORSDOF 5
