REMARK  Name = ZINC06285118
REMARK  14 active torsions:
REMARK  status: ('A' for Active; 'I' for Inactive)
REMARK    1  A    between atoms: C_1  and  C_2
REMARK    2  A    between atoms: C_2  and  C_3
REMARK    3  A    between atoms: C_7  and  C_30
REMARK    4  A    between atoms: C_8  and  N_9
REMARK    5  A    between atoms: N_9  and  C_10
REMARK    6  A    between atoms: C_10  and  N_12
REMARK    7  A    between atoms: N_12  and  C_13
REMARK    8  A    between atoms: N_12  and  C_21
REMARK    9  A    between atoms: C_13  and  C_14
REMARK   10  A    between atoms: C_23  and  C_28
REMARK   11  A    between atoms: C_23  and  C_29
REMARK   12  A    between atoms: C_24  and  C_26
REMARK   13  A    between atoms: C_24  and  C_27
REMARK   14  A    between atoms: C_30  and  C_31
REMARK                            x       y       z     vdW  Elec       q    Type
REMARK                         _______ _______ _______ _____ _____    ______ ____
ROOT
ATOM      1  N   UNL     1      -0.664   0.803  -1.101  0.00  0.00    -0.305 N 
ENDROOT
BRANCH   1   2
ATOM      2  C   UNL     1      -0.817   2.260  -1.000  0.00  0.00    +0.073 C 
ATOM      3  C   UNL     1      -2.272   2.591  -0.672  0.00  0.00    +0.009 C 
ATOM      4  C   UNL     1      -2.466   4.103  -0.583  0.00  0.00    -0.072 C 
ATOM      5  C   UNL     1      -0.634   4.413  -2.272  0.00  0.00    -0.072 C 
ATOM      6  C   UNL     1      -0.464   2.898  -2.343  0.00  0.00    +0.009 C 
ATOM      7  C   UNL     1       0.530   5.024  -1.483  0.00  0.00    -0.010 C 
ATOM      8  C   UNL     1      -0.545   4.960  -3.715  0.00  0.00    -0.010 C 
ATOM      9  C   UNL     1      -1.879   4.618   0.737  0.00  0.00    -0.010 C 
ATOM     10  C   UNL     1      -3.987   4.375  -0.542  0.00  0.00    -0.010 C 
ATOM     11  N   UNL     1      -1.948   4.872  -1.746  0.00  0.00    +0.386 N 
ATOM     12  H   UNL     1      -1.852   5.853  -1.461  0.00  0.00    -0.084 HD
ATOM     13  H   UNL     1      -2.636   4.802  -2.505  0.00  0.00    -0.084 HD
ENDBRANCH   1   2
BRANCH   1  14
ATOM     14  C   UNL     1      -1.340   0.119  -2.045  0.00  0.00    +0.138 C 
ATOM     15  S   UNL     1      -1.413  -1.591  -1.976  0.00  0.00    -0.018 S 
BRANCH  14  16
ATOM     16  N   UNL     1      -1.960   0.780  -3.043  0.00  0.00    -0.296 N 
ATOM     17  H   UNL     1      -2.902   0.997  -2.968  0.00  0.00    +0.154 HD
BRANCH  16  23
ATOM     18  C   UNL     1      -1.854   1.919  -5.170  0.00  0.00    -0.026 A 
ATOM     19  C   UNL     1      -1.143   2.288  -6.295  0.00  0.00    +0.005 A 
ATOM     20  C   UNL     1       0.171   1.886  -6.447  0.00  0.00    +0.001 A 
ATOM     21  C   UNL     1       0.780   1.118  -5.471  0.00  0.00    +0.005 A 
ATOM     22  C   UNL     1       0.076   0.750  -4.341  0.00  0.00    -0.026 A 
ATOM     23  C   UNL     1      -1.244   1.151  -4.186  0.00  0.00    +0.039 A 
BRANCH  18  25
ATOM     24  C   UNL     1      -3.332   3.781  -4.463  0.00  0.00    +0.009 C 
ATOM     25  C   UNL     1      -3.289   2.352  -5.008  0.00  0.00    +0.033 C 
ENDBRANCH  18  25
BRANCH  22  26
ATOM     26  C   UNL     1       0.740  -0.088  -3.279  0.00  0.00    +0.033 C 
ATOM     27  C   UNL     1       0.473  -1.569  -3.556  0.00  0.00    +0.009 C 
ENDBRANCH  22  26
ENDBRANCH  16  23
ENDBRANCH  14  16
ENDBRANCH   1  14
BRANCH   1  28
ATOM     28  C   UNL     1       0.225   0.094  -0.177  0.00  0.00    +0.145 C 
BRANCH  28  29
ATOM     29  C   UNL     1      -0.552  -0.327   1.044  0.00  0.00    +0.005 A 
ATOM     30  C   UNL     1      -0.918  -1.649   1.209  0.00  0.00    +0.008 A 
ATOM     31  C   UNL     1      -1.631  -2.035   2.329  0.00  0.00    +0.000 A 
ATOM     32  C   UNL     1      -1.977  -1.098   3.285  0.00  0.00    +0.003 A 
ATOM     33  C   UNL     1      -1.612   0.224   3.123  0.00  0.00    +0.038 A 
ATOM     34  C   UNL     1      -0.894   0.611   2.003  0.00  0.00    +0.128 A 
ATOM     35  F   UNL     1      -0.532   1.903   1.845  0.00  0.00    -0.205 F 
ENDBRANCH  28  29
ENDBRANCH   1  28
TORSDOF 8
