REMARK  Name = ZINC05648556
REMARK  6 active torsions:
REMARK  status: ('A' for Active; 'I' for Inactive)
REMARK    1  A    between atoms: C_1  and  C_2
REMARK    2  A    between atoms: C_7  and  O_8
REMARK    3  A    between atoms: O_8  and  C_9
REMARK    4  A    between atoms: C_15  and  O_25
REMARK    5  A    between atoms: C_16  and  C_24
REMARK    6  A    between atoms: C_19  and  C_20
REMARK                            x       y       z     vdW  Elec       q    Type
REMARK                         _______ _______ _______ _____ _____    ______ ____
ROOT
ATOM      1  C   UNL     1      -0.016   1.344   0.009  0.00  0.00    +0.222 A 
ATOM      2  C   UNL     1       1.213   2.063   0.002  0.00  0.00    +0.235 A 
ATOM      3  O   UNL     1       1.236   3.282   0.008  0.00  0.00    -0.283 OA
ATOM      4  C   UNL     1       2.456   1.272  -0.015  0.00  0.00    +0.068 A 
ATOM      5  C   UNL     1       3.709   1.887  -0.023  0.00  0.00    +0.019 A 
ATOM      6  C   UNL     1       4.839   1.121  -0.039  0.00  0.00    +0.046 A 
ATOM      7  C   UNL     1       4.748  -0.269  -0.046  0.00  0.00    +0.123 A 
ATOM      8  C   UNL     1       3.513  -0.894  -0.037  0.00  0.00    +0.034 A 
ATOM      9  C   UNL     1       2.354  -0.130  -0.021  0.00  0.00    +0.146 A 
ATOM     10  O   UNL     1       1.138  -0.713  -0.013  0.00  0.00    -0.447 OA
ATOM     11  C   UNL     1       0.002  -0.004   0.002  0.00  0.00    +0.254 A 
ATOM     12  C   UNL     1       3.426  -2.399  -0.044  0.00  0.00    +0.051 C 
ENDROOT
BRANCH  11  13
ATOM     13  C   UNL     1      -1.311  -0.744   0.011  0.00  0.00    +0.454 C 
ATOM     14  F   UNL     1      -1.730  -0.966  -1.305  0.00  0.00    -0.163 F 
ATOM     15  F   UNL     1      -1.150  -1.972   0.662  0.00  0.00    -0.163 F 
ATOM     16  F   UNL     1      -2.271   0.019   0.684  0.00  0.00    -0.163 F 
ENDBRANCH  11  13
BRANCH   7  17
ATOM     17  O   UNL     1       5.880  -1.018  -0.061  0.00  0.00    -0.506 OA
ATOM     18  H   UNL     1       5.814  -2.116  -0.067  0.00  0.00    +0.292 HD
ENDBRANCH   7  17
BRANCH   1  19
ATOM     19  O   UNL     1      -1.202   2.013   0.019  0.00  0.00    -0.448 OA
BRANCH  19  26
ATOM     20  C   UNL     1      -3.662   3.401   0.011  0.00  0.00    +0.047 C 
ATOM     21  C   UNL     1      -2.958   3.001   1.282  0.00  0.00    -0.008 A 
ATOM     22  C   UNL     1      -3.515   3.312   2.507  0.00  0.00    +0.007 A 
ATOM     23  C   UNL     1      -2.871   2.945   3.674  0.00  0.00    +0.000 A 
ATOM     24  C   UNL     1      -1.667   2.266   3.618  0.00  0.00    +0.004 A 
ATOM     25  C   UNL     1      -1.109   1.948   2.395  0.00  0.00    +0.046 A 
ATOM     26  C   UNL     1      -1.751   2.320   1.223  0.00  0.00    +0.132 A 
ENDBRANCH  19  26
ENDBRANCH   1  19
TORSDOF 4
