REMARK  Name = ZINC40285734
REMARK  3 active torsions:
REMARK  status: ('A' for Active; 'I' for Inactive)
REMARK    1  A    between atoms: C_1  and  C_2
REMARK    2  A    between atoms: C_13  and  C_16
REMARK    3  A    between atoms: C_21  and  C_23
REMARK                            x       y       z     vdW  Elec       q    Type
REMARK                         _______ _______ _______ _____ _____    ______ ____
ROOT
ATOM      1  C   UNL     1      -0.018   1.503   0.010  0.00  0.00    +0.068 C 
ATOM      2  C   UNL     1       0.002  -0.004   0.002  0.00  0.00    +0.066 A 
ATOM      3  C   UNL     1       0.008  -0.810  -1.127  0.00  0.00    +0.023 A 
ATOM      4  C   UNL     1       0.032  -2.116  -0.714  0.00  0.00    +0.134 A 
ATOM      5  N   UNL     1       0.032  -2.117   0.636  0.00  0.00    -0.198 N 
ATOM      6  N   UNL     1       0.023  -0.778   1.062  0.00  0.00    -0.168 NA
ATOM      7  C   UNL     1       0.044  -3.246   1.460  0.00  0.00    +0.176 A 
ATOM      8  C   UNL     1       0.037  -3.084   2.859  0.00  0.00    +0.054 A 
ATOM      9  C   UNL     1       0.049  -4.175   3.671  0.00  0.00    +0.054 A 
ATOM     10  C   UNL     1       0.069  -5.458   3.095  0.00  0.00    +0.178 A 
ATOM     11  N   UNL     1       0.084  -6.685   3.590  0.00  0.00    -0.128 NA
ATOM     12  N   UNL     1       0.099  -7.534   2.622  0.00  0.00    -0.132 NA
ATOM     13  C   UNL     1       0.095  -6.908   1.472  0.00  0.00    +0.152 A 
ATOM     14  N   UNL     1       0.076  -5.582   1.726  0.00  0.00    -0.195 N 
ATOM     15  N   UNL     1       0.058  -4.441   0.921  0.00  0.00    -0.144 NA
ATOM     16  C   UNL     1       0.110  -7.551   0.109  0.00  0.00    +0.090 C 
ATOM     17  N   UNL     1       0.064  -3.175  -1.620  0.00  0.00    -0.270 N 
ATOM     18  C   UNL     1       0.274  -2.891  -2.923  0.00  0.00    +0.219 C 
ATOM     19  O   UNL     1       0.118  -3.767  -3.747  0.00  0.00    -0.275 OA
ATOM     20  C   UNL     1       0.694  -1.524  -3.384  0.00  0.00    +0.109 C 
ATOM     21  C   UNL     1      -0.013  -0.426  -2.585  0.00  0.00    +0.064 C 
ATOM     22  H   UNL     1      -0.062  -4.090  -1.322  0.00  0.00    +0.156 HD
ENDROOT
BRANCH  21  23
ATOM     23  C   UNL     1       0.707   0.884  -2.775  0.00  0.00    -0.025 A 
ATOM     24  C   UNL     1       2.040   0.997  -2.427  0.00  0.00    +0.005 A 
ATOM     25  C   UNL     1       2.700   2.199  -2.602  0.00  0.00    +0.000 A 
ATOM     26  C   UNL     1       2.028   3.288  -3.124  0.00  0.00    +0.001 A 
ATOM     27  C   UNL     1       0.695   3.176  -3.472  0.00  0.00    +0.015 A 
ATOM     28  C   UNL     1       0.035   1.972  -3.302  0.00  0.00    +0.022 A 
ATOM     29 BR   UNL     1      -1.787   1.817  -3.784  0.00  0.00    -0.050 Br
ENDBRANCH  21  23
TORSDOF 1
