REMARK  Name = ZINC20432539
REMARK  4 active torsions:
REMARK  status: ('A' for Active; 'I' for Inactive)
REMARK    1  A    between atoms: C_2  and  S_9
REMARK    2  A    between atoms: S_9  and  N_12
REMARK    3  A    between atoms: C_15  and  C_18
REMARK    4  A    between atoms: C_18  and  C_19
REMARK                            x       y       z     vdW  Elec       q    Type
REMARK                         _______ _______ _______ _____ _____    ______ ____
ROOT
ATOM      1  S   UNL     1       4.868   0.820  -0.040  0.00  0.00    +0.101 S 
ATOM      2  O   UNL     1       6.033   1.633  -0.073  0.00  0.00    -0.146 OA
ATOM      3  O   UNL     1       4.637  -0.139   0.983  0.00  0.00    -0.146 OA
ENDROOT
BRANCH   1   5
ATOM      4  C   UNL     1       5.470   0.458  -2.677  0.00  0.00    +0.049 A 
ATOM      5  C   UNL     1       4.818  -0.052  -1.570  0.00  0.00    +0.115 A 
ATOM      6  C   UNL     1       4.132  -1.249  -1.661  0.00  0.00    +0.049 A 
ATOM      7  C   UNL     1       4.088  -1.931  -2.863  0.00  0.00    +0.044 A 
ATOM      8  C   UNL     1       4.740  -1.421  -3.972  0.00  0.00    +0.040 A 
ATOM      9  C   UNL     1       5.431  -0.227  -3.879  0.00  0.00    +0.044 A 
ATOM     10 CL   UNL     1       6.248   0.414  -5.270  0.00  0.00    -0.083 Cl
ATOM     11 CL   UNL     1       3.221  -3.431  -2.979  0.00  0.00    -0.083 Cl
ENDBRANCH   1   5
BRANCH   1  12
ATOM     12  N   UNL     1       3.572   1.851  -0.022  0.00  0.00    -0.103 NA
ATOM     13  C   UNL     1       2.282   1.344  -0.013  0.00  0.00    +0.192 A 
ATOM     14  N   UNL     1       1.135   1.995   0.002  0.00  0.00    -0.336 N 
ATOM     15  C   UNL     1      -0.016   1.350   0.009  0.00  0.00    +0.035 A 
ATOM     16  C   UNL     1       0.002  -0.004   0.002  0.00  0.00    +0.070 A 
ATOM     17  S   UNL     1       1.762  -0.313  -0.016  0.00  0.00    -0.057 S 
ATOM     18  H   UNL     1       1.127   3.095   0.008  0.00  0.00    +0.168 HD
BRANCH  15  19
ATOM     19  C   UNL     1      -1.322   2.103   0.020  0.00  0.00    +0.178 C 
BRANCH  19  20
ATOM     20  C   UNL     1      -1.344   3.054   1.189  0.00  0.00    +0.362 C 
ATOM     21  O   UNL     1      -0.397   3.114   1.937  0.00  0.00    -0.246 OA
ATOM     22  O   UNL     1      -2.416   3.834   1.399  0.00  0.00    -0.246 OA
ENDBRANCH  19  20
ENDBRANCH  15  19
ENDBRANCH   1  12
TORSDOF 4
