REMARK  Name = ZINC02399865
REMARK  9 active torsions:
REMARK  status: ('A' for Active; 'I' for Inactive)
REMARK    1  A    between atoms: C_1  and  N_2
REMARK    2  A    between atoms: N_2  and  C_3
REMARK    3  A    between atoms: N_2  and  S_4
REMARK    4  A    between atoms: S_4  and  N_7
REMARK    5  A    between atoms: N_7  and  C_8
REMARK    6  A    between atoms: C_13  and  C_27
REMARK    7  A    between atoms: C_16  and  C_19
REMARK    8  A    between atoms: C_22  and  O_25
REMARK    9  A    between atoms: O_25  and  C_26
REMARK                            x       y       z     vdW  Elec       q    Type
REMARK                         _______ _______ _______ _____ _____    ______ ____
ROOT
ATOM      1  C   UNL     1       1.888  -1.715  -3.062  0.00  0.00    +0.278 A 
ATOM      2  N   UNL     1       0.994  -2.218  -3.926  0.00  0.00    -0.177 NA
ATOM      3  C   UNL     1       1.622  -2.779  -4.925  0.00  0.00    +0.216 A 
ATOM      4  N   UNL     1       2.954  -2.641  -4.717  0.00  0.00    -0.224 N 
ATOM      5  N   UNL     1       3.100  -1.950  -3.514  0.00  0.00    -0.128 NA
ATOM      6  C   UNL     1       3.985  -3.140  -5.626  0.00  0.00    +0.143 C 
ATOM      7  C   UNL     1       3.355  -3.387  -7.002  0.00  0.00    +0.058 C 
ATOM      8  C   UNL     1       2.070  -4.207  -6.843  0.00  0.00    +0.106 C 
ATOM      9  N   UNL     1       1.109  -3.424  -6.042  0.00  0.00    -0.307 N 
ATOM     10  H   UNL     1       0.171  -3.364  -6.283  0.00  0.00    +0.149 HD
ENDROOT
BRANCH   8  11
ATOM     11  C   UNL     1       2.380  -5.504  -6.142  0.00  0.00    -0.027 A 
ATOM     12  C   UNL     1       2.517  -5.529  -4.766  0.00  0.00    +0.009 A 
ATOM     13  C   UNL     1       2.803  -6.717  -4.121  0.00  0.00    +0.046 A 
ATOM     14  C   UNL     1       2.950  -7.885  -4.854  0.00  0.00    +0.120 A 
ATOM     15  C   UNL     1       2.812  -7.857  -6.234  0.00  0.00    +0.046 A 
ATOM     16  C   UNL     1       2.522  -6.668  -6.874  0.00  0.00    +0.009 A 
BRANCH  14  17
ATOM     17  O   UNL     1       3.231  -9.055  -4.221  0.00  0.00    -0.495 OA
ATOM     18  C   UNL     1       3.370 -10.218  -5.040  0.00  0.00    +0.277 C 
ENDBRANCH  14  17
ENDBRANCH   8  11
BRANCH   6  19
ATOM     19  C   UNL     1       5.087  -2.119  -5.748  0.00  0.00    -0.023 A 
ATOM     20  C   UNL     1       4.806  -0.852  -6.222  0.00  0.00    +0.006 A 
ATOM     21  C   UNL     1       5.816   0.085  -6.334  0.00  0.00    +0.000 A 
ATOM     22  C   UNL     1       7.109  -0.246  -5.972  0.00  0.00    +0.000 A 
ATOM     23  C   UNL     1       7.390  -1.514  -5.497  0.00  0.00    +0.000 A 
ATOM     24  C   UNL     1       6.379  -2.449  -5.381  0.00  0.00    +0.006 A 
ENDBRANCH   6  19
BRANCH   1  25
ATOM     25  N   UNL     1       1.581  -1.045  -1.877  0.00  0.00    -0.045 NA
BRANCH  25  26
ATOM     26  S   UNL     1      -0.000  -0.824  -1.437  0.00  0.00    +0.134 S 
ATOM     27  O   UNL     1      -0.531  -2.115  -1.167  0.00  0.00    -0.136 OA
ATOM     28  O   UNL     1      -0.572   0.049  -2.401  0.00  0.00    -0.136 OA
BRANCH  26  30
ATOM     29  C   UNL     1      -0.018   1.461   0.010  0.00  0.00    +0.132 C 
ATOM     30  N   UNL     1       0.002  -0.004   0.002  0.00  0.00    -0.168 NA
ATOM     31  C   UNL     1       0.024  -0.743   1.267  0.00  0.00    +0.132 C 
ENDBRANCH  26  30
ENDBRANCH  25  26
ENDBRANCH   1  25
TORSDOF 6
