REMARK  Name = ZINC39327611
REMARK  3 active torsions:
REMARK  status: ('A' for Active; 'I' for Inactive)
REMARK    1  A    between atoms: C_4  and  C_8
REMARK    2  A    between atoms: N_9  and  N_10
REMARK    3  A    between atoms: N_10  and  C_11
REMARK                            x       y       z     vdW  Elec       q    Type
REMARK                         _______ _______ _______ _____ _____    ______ ____
ROOT
ATOM      1  C   UNL     1       3.695  -0.682  -0.038  0.00  0.00    +0.140 C 
ATOM      2  N   UNL     1       3.716  -1.980  -0.046  0.00  0.00    -0.191 NA
ENDROOT
BRANCH   1   6
ATOM      3  C   UNL     1      -0.017   1.379   0.010  0.00  0.00    +0.003 A 
ATOM      4  C   UNL     1       1.168   2.094   0.002  0.00  0.00    +0.021 A 
ATOM      5  C   UNL     1       2.378   1.431  -0.013  0.00  0.00    +0.051 A 
ATOM      6  C   UNL     1       2.406   0.034  -0.021  0.00  0.00    +0.031 A 
ATOM      7  C   UNL     1       1.205  -0.682  -0.013  0.00  0.00    +0.051 A 
ATOM      8  C   UNL     1       0.002  -0.004   0.002  0.00  0.00    +0.021 A 
ATOM      9 CL   UNL     1       1.226  -2.417  -0.023  0.00  0.00    -0.083 Cl
ATOM     10 CL   UNL     1       3.863   2.331  -0.024  0.00  0.00    -0.083 Cl
ENDBRANCH   1   6
BRANCH   2  11
ATOM     11  N   UNL     1       4.941  -2.660  -0.062  0.00  0.00    -0.225 N 
ATOM     12  H   UNL     1       5.773  -2.161  -0.068  0.00  0.00    +0.172 HD
BRANCH  11  13
ATOM     13  C   UNL     1       4.965  -4.125  -0.070  0.00  0.00    +0.349 C 
ATOM     14  N   UNL     1       6.187  -4.620  -0.730  0.00  0.00    -0.223 NA
ATOM     15  C   UNL     1       6.815  -5.291   0.180  0.00  0.00    +0.243 C 
ATOM     16  N   UNL     1       6.135  -5.287   1.357  0.00  0.00    -0.139 NA
ATOM     17  N   UNL     1       5.074  -4.649   1.302  0.00  0.00    -0.137 NA
ENDBRANCH  11  13
ENDBRANCH   2  11
TORSDOF 3
