REMARK  Name = ZINC39881873
REMARK  4 active torsions:
REMARK  status: ('A' for Active; 'I' for Inactive)
REMARK    1  A    between atoms: N_11  and  C_15
REMARK    2  A    between atoms: C_15  and  C_16
REMARK    3  A    between atoms: N_18  and  C_19
REMARK    4  A    between atoms: C_22  and  C_25
REMARK                            x       y       z     vdW  Elec       q    Type
REMARK                         _______ _______ _______ _____ _____    ______ ____
ROOT
ATOM      1  C   UNL     1       0.022   1.368   0.013  0.00  0.00    +0.001 A 
ATOM      2  C   UNL     1       1.216   2.066   0.005  0.00  0.00    +0.004 A 
ATOM      3  C   UNL     1       2.414   1.381  -0.008  0.00  0.00    +0.046 A 
ATOM      4  C   UNL     1       2.425  -0.009  -0.015  0.00  0.00    +0.135 A 
ATOM      5  C   UNL     1       1.229  -0.707  -0.013  0.00  0.00    +0.004 A 
ATOM      6  C   UNL     1       0.030  -0.013   0.004  0.00  0.00    +0.008 A 
ATOM      7  C   UNL     1       1.196  -2.210  -0.040  0.00  0.00    +0.076 C 
ATOM      8  C   UNL     1       0.038  -2.748   0.719  0.00  0.00    +0.033 A 
ATOM      9  C   UNL     1       0.020  -3.412   1.894  0.00  0.00    +0.090 A 
ATOM     10  N   UNL     1      -1.225  -3.783   2.338  0.00  0.00    -0.288 N 
ATOM     11  C   UNL     1      -2.316  -3.478   1.610  0.00  0.00    +0.292 A 
ATOM     12  O   UNL     1      -3.483  -3.730   1.856  0.00  0.00    -0.259 OA
ATOM     13  S   UNL     1      -1.681  -2.668   0.281  0.00  0.00    -0.030 S 
ATOM     14  S   UNL     1       1.535  -3.752   2.762  0.00  0.00    -0.106 S 
ATOM     15  C   UNL     1       2.702  -2.634   1.927  0.00  0.00    +0.091 C 
ATOM     16  C   UNL     1       2.528  -2.786   0.424  0.00  0.00    +0.121 C 
ATOM     17  C   UNL     1       3.629  -1.979  -0.242  0.00  0.00    +0.317 C 
ATOM     18  O   UNL     1       4.465  -2.502  -0.940  0.00  0.00    -0.250 OA
ATOM     19  O   UNL     1       3.626  -0.649  -0.017  0.00  0.00    -0.425 OA
ENDROOT
BRANCH  10  20
ATOM     20  C   UNL     1      -1.366  -4.509   3.603  0.00  0.00    +0.222 C 
BRANCH  20  21
ATOM     21  C   UNL     1      -1.534  -3.524   4.731  0.00  0.00    +0.237 C 
ATOM     22  O   UNL     1      -1.536  -2.333   4.502  0.00  0.00    -0.274 OA
ATOM     23  N   UNL     1      -1.683  -3.967   5.996  0.00  0.00    -0.284 N 
ATOM     24  H   UNL     1      -1.748  -4.919   6.172  0.00  0.00    +0.155 HD
BRANCH  23  25
ATOM     25  C   UNL     1      -1.742  -3.058   7.050  0.00  0.00    +0.033 A 
ATOM     26  C   UNL     1      -2.364  -1.826   6.870  0.00  0.00    +0.024 A 
ATOM     27  C   UNL     1      -2.425  -0.929   7.905  0.00  0.00    +0.017 A 
ATOM     28  C   UNL     1      -1.859  -1.253   9.143  0.00  0.00    +0.063 A 
ATOM     29  C   UNL     1      -1.234  -2.492   9.320  0.00  0.00    +0.017 A 
ATOM     30  C   UNL     1      -1.182  -3.386   8.281  0.00  0.00    +0.024 A 
BRANCH  28  31
ATOM     31  C   UNL     1      -1.921  -0.292  10.257  0.00  0.00    +0.387 C 
ATOM     32  O   UNL     1      -2.467   0.791  10.101  0.00  0.00    -0.241 OA
ATOM     33  O   UNL     1      -1.426  -0.577  11.339  0.00  0.00    -0.241 OA
ENDBRANCH  28  31
ENDBRANCH  23  25
ENDBRANCH  20  21
ENDBRANCH  10  20
TORSDOF 4
