REMARK  Name = ZINC11859151
REMARK  7 active torsions:
REMARK  status: ('A' for Active; 'I' for Inactive)
REMARK    1  A    between atoms: C_1  and  O_2
REMARK    2  A    between atoms: O_2  and  C_3
REMARK    3  A    between atoms: C_6  and  C_9
REMARK    4  A    between atoms: C_11  and  C_23
REMARK    5  A    between atoms: C_13  and  C_18
REMARK    6  A    between atoms: C_13  and  O_22
REMARK    7  A    between atoms: C_23  and  C_25
REMARK                            x       y       z     vdW  Elec       q    Type
REMARK                         _______ _______ _______ _____ _____    ______ ____
ROOT
ATOM      1  C   UNL     1      -1.365   3.891   2.604  0.00  0.00    +0.120 C 
ATOM      2  C   UNL     1      -0.634   3.083   1.525  0.00  0.00    +0.145 C 
ATOM      3  C   UNL     1      -0.618   1.610   1.946  0.00  0.00    +0.243 C 
ATOM      4  N   UNL     1      -0.017   1.497   3.276  0.00  0.00    -0.264 N 
ATOM      5  C   UNL     1      -0.100   2.497   4.166  0.00  0.00    +0.302 C 
ATOM      6  O   UNL     1       0.408   2.348   5.261  0.00  0.00    -0.253 OA
ATOM      7  N   UNL     1      -0.723   3.654   3.898  0.00  0.00    -0.292 N 
ATOM      8  H   UNL     1       0.452   0.683   3.518  0.00  0.00    +0.153 HD
ATOM      9  H   UNL     1      -0.748   4.348   4.575  0.00  0.00    +0.151 HD
ENDROOT
BRANCH   1  13
ATOM     10  C   UNL     1      -5.452   2.655   2.791  0.00  0.00    +0.120 A 
ATOM     11  C   UNL     1      -4.527   2.136   3.686  0.00  0.00    +0.046 A 
ATOM     12  C   UNL     1      -3.207   2.537   3.623  0.00  0.00    +0.009 A 
ATOM     13  C   UNL     1      -2.806   3.455   2.670  0.00  0.00    -0.026 A 
ATOM     14  C   UNL     1      -3.727   3.978   1.780  0.00  0.00    +0.009 A 
ATOM     15  C   UNL     1      -5.047   3.576   1.835  0.00  0.00    +0.046 A 
BRANCH  10  17
ATOM     16  C   UNL     1      -7.647   2.838   1.898  0.00  0.00    +0.277 C 
ATOM     17  O   UNL     1      -6.751   2.262   2.850  0.00  0.00    -0.495 OA
ENDBRANCH  10  17
ENDBRANCH   1  13
BRANCH   3  18
ATOM     18  C   UNL     1       0.205   0.801   0.942  0.00  0.00    +0.436 C 
ATOM     19  F   UNL     1       0.226  -0.543   1.331  0.00  0.00    -0.166 F 
ATOM     20  F   UNL     1       1.514   1.295   0.905  0.00  0.00    -0.166 F 
ATOM     21  F   UNL     1      -0.370   0.909  -0.328  0.00  0.00    -0.166 F 
ENDBRANCH   3  18
BRANCH   3  22
ATOM     22  O   UNL     1      -1.955   1.107   1.982  0.00  0.00    -0.364 OA
ATOM     23  H   UNL     1      -2.019   0.179   2.244  0.00  0.00    +0.212 HD
ENDBRANCH   3  22
BRANCH   2  24
ATOM     24  C   UNL     1       0.780   3.586   1.387  0.00  0.00    +0.179 C 
ATOM     25  O   UNL     1       1.345   4.077   2.343  0.00  0.00    -0.291 OA
BRANCH  24  26
ATOM     26  C   UNL     1       1.447   3.486   0.146  0.00  0.00    +0.055 A 
ATOM     27  C   UNL     1       2.737   3.884  -0.191  0.00  0.00    +0.019 A 
ATOM     28  C   UNL     1       3.137   3.666  -1.483  0.00  0.00    +0.008 A 
ATOM     29  C   UNL     1       2.274   3.083  -2.358  0.00  0.00    +0.046 A 
ATOM     30  S   UNL     1       0.858   2.808  -1.396  0.00  0.00    -0.094 S 
ENDBRANCH  24  26
ENDBRANCH   2  24
TORSDOF 6
