REMARK  Name = ZINC39709876
REMARK  12 active torsions:
REMARK  status: ('A' for Active; 'I' for Inactive)
REMARK    1  A    between atoms: C_1  and  C_2
REMARK    2  A    between atoms: C_6  and  C_8
REMARK    3  A    between atoms: C_11  and  S_18
REMARK    4  A    between atoms: N_12  and  C_13
REMARK    5  A    between atoms: C_13  and  C_14
REMARK    6  A    between atoms: C_14  and  C_15
REMARK    7  A    between atoms: S_18  and  C_19
REMARK    8  A    between atoms: C_19  and  C_21
REMARK    9  A    between atoms: C_19  and  C_22
REMARK   10  A    between atoms: N_24  and  C_25
REMARK   11  A    between atoms: C_30  and  C_35
REMARK   12  A    between atoms: C_32  and  C_34
REMARK                            x       y       z     vdW  Elec       q    Type
REMARK                         _______ _______ _______ _____ _____    ______ ____
ROOT
ATOM      1  C   UNL     1       0.076  -2.842   2.460  0.00  0.00    +0.165 A 
ATOM      2  N   UNL     1      -0.124  -2.347   3.659  0.00  0.00    -0.128 NA
ATOM      3  N   UNL     1      -0.072  -3.286   4.535  0.00  0.00    -0.122 NA
ATOM      4  C   UNL     1       0.165  -4.438   3.948  0.00  0.00    +0.193 A 
ATOM      5  N   UNL     1       0.263  -4.197   2.607  0.00  0.00    -0.302 N 
ENDROOT
BRANCH   1  11
ATOM      6  C   UNL     1      -1.096   1.250  -0.144  0.00  0.00    +0.044 C 
ATOM      7  C   UNL     1      -0.470  -0.118  -0.068  0.00  0.00    -0.050 A 
ATOM      8  C   UNL     1       0.122  -0.670  -1.190  0.00  0.00    +0.003 A 
ATOM      9  C   UNL     1       0.699  -1.926  -1.129  0.00  0.00    +0.001 A 
ATOM     10  C   UNL     1       0.688  -2.636   0.054  0.00  0.00    +0.011 A 
ATOM     11  C   UNL     1       0.092  -2.086   1.189  0.00  0.00    +0.020 A 
ATOM     12  C   UNL     1      -0.483  -0.816   1.122  0.00  0.00    +0.015 A 
ENDBRANCH   1  11
BRANCH   5  13
ATOM     13  C   UNL     1       0.515  -5.176   1.548  0.00  0.00    +0.137 C 
BRANCH  13  14
ATOM     14  C   UNL     1       2.023  -5.375   1.385  0.00  0.00    +0.147 C 
BRANCH  14  15
ATOM     15  C   UNL     1       2.283  -6.382   0.295  0.00  0.00    +0.358 C 
ATOM     16  O   UNL     1       1.349  -6.894  -0.297  0.00  0.00    -0.246 OA
ATOM     17  O   UNL     1       3.428  -6.685   0.006  0.00  0.00    -0.246 OA
ENDBRANCH  14  15
ENDBRANCH  13  14
ENDBRANCH   5  13
BRANCH   4  18
ATOM     18  S   UNL     1       0.321  -6.003   4.742  0.00  0.00    -0.074 S 
BRANCH  18  19
ATOM     19  C   UNL     1       0.080  -5.629   6.500  0.00  0.00    +0.137 C 
ATOM     20  C   UNL     1       1.222  -4.738   6.994  0.00  0.00    +0.029 C 
BRANCH  19  21
ATOM     21  C   UNL     1       0.068  -6.913   7.290  0.00  0.00    +0.226 C 
ATOM     22  O   UNL     1       0.634  -7.895   6.859  0.00  0.00    -0.275 OA
ATOM     23  N   UNL     1      -0.572  -6.969   8.475  0.00  0.00    -0.311 N 
ATOM     24  H   UNL     1      -1.025  -6.184   8.819  0.00  0.00    +0.149 HD
BRANCH  23  25
ATOM     25  C   UNL     1      -0.584  -8.217   9.242  0.00  0.00    +0.076 C 
ATOM     26  C   UNL     1      -1.726  -9.108   8.749  0.00  0.00    +0.022 C 
ATOM     27  C   UNL     1      -1.739 -10.411   9.551  0.00  0.00    +0.002 C 
ATOM     28  C   UNL     1      -1.942 -10.096  11.034  0.00  0.00    +0.003 C 
ATOM     29  C   UNL     1      -0.800  -9.205  11.527  0.00  0.00    -0.009 C 
ATOM     30  C   UNL     1      -0.787  -7.902  10.726  0.00  0.00    +0.009 C 
ATOM     31  C   UNL     1      -2.120  -7.174  10.914  0.00  0.00    +0.009 C 
ATOM     32  C   UNL     1      -1.003  -8.889  13.010  0.00  0.00    +0.008 C 
ENDBRANCH  23  25
ENDBRANCH  19  21
ENDBRANCH  18  19
ENDBRANCH   4  18
TORSDOF 8
