REMARK  Name = ZINC37129857
REMARK  5 active torsions:
REMARK  status: ('A' for Active; 'I' for Inactive)
REMARK    1  A    between atoms: C_1  and  C_2
REMARK    2  A    between atoms: C_5  and  N_13
REMARK    3  A    between atoms: C_7  and  C_12
REMARK    4  A    between atoms: N_10  and  C_11
REMARK    5  A    between atoms: N_13  and  C_14
REMARK                            x       y       z     vdW  Elec       q    Type
REMARK                         _______ _______ _______ _____ _____    ______ ____
ROOT
ATOM      1  C   UNL     1       0.839  -2.645  -3.663  0.00  0.00    +0.044 A 
ATOM      2  C   UNL     1      -0.505  -2.324  -3.783  0.00  0.00    +0.051 A 
ATOM      3  C   UNL     1      -1.139  -2.462  -5.008  0.00  0.00    +0.069 A 
ATOM      4  C   UNL     1      -0.424  -2.923  -6.115  0.00  0.00    +0.068 A 
ATOM      5  C   UNL     1       0.919  -3.242  -5.989  0.00  0.00    +0.045 A 
ATOM      6  C   UNL     1       1.550  -3.099  -4.769  0.00  0.00    +0.041 A 
ATOM      7 BR   UNL     1       3.384  -3.528  -4.599  0.00  0.00    -0.048 Br
ATOM      8  N   UNL     1      -1.318  -2.955  -7.186  0.00  0.00    -0.306 N 
ATOM      9  H   UNL     1      -1.109  -3.234  -8.092  0.00  0.00    +0.170 HD
ATOM     10  C   UNL     1      -2.519  -2.533  -6.748  0.00  0.00    +0.325 A 
ATOM     11  O   UNL     1      -3.521  -2.441  -7.432  0.00  0.00    -0.247 OA
ATOM     12  N   UNL     1      -2.443  -2.229  -5.439  0.00  0.00    -0.306 N 
ATOM     13  H   UNL     1      -3.172  -1.902  -4.889  0.00  0.00    +0.170 HD
ENDROOT
BRANCH   1  14
ATOM     14  N   UNL     1       1.483  -2.506  -2.428  0.00  0.00    -0.340 N 
ATOM     15  H   UNL     1       2.424  -2.727  -2.343  0.00  0.00    +0.146 HD
BRANCH  14  19
ATOM     16  C   UNL     1      -0.019   1.526   0.010  0.00  0.00    -0.013 C 
ATOM     17  C   UNL     1       0.002  -0.004   0.002  0.00  0.00    -0.070 C 
ATOM     18  C   UNL     1       0.717  -0.497  -1.258  0.00  0.00    +0.007 C 
ATOM     19  C   UNL     1       0.735  -2.028  -1.262  0.00  0.00    +0.070 C 
ATOM     20  C   UNL     1       1.410  -2.524   0.020  0.00  0.00    -0.011 C 
ATOM     21  C   UNL     1       0.669  -1.956   1.232  0.00  0.00    -0.074 C 
ATOM     22  N   UNL     1       0.711  -0.490   1.192  0.00  0.00    +0.380 N 
ATOM     23  C   UNL     1       0.067   0.050   2.397  0.00  0.00    -0.096 C 
ATOM     24  C   UNL     1       1.365  -4.053   0.062  0.00  0.00    +0.007 C 
ATOM     25  H   UNL     1       1.671  -0.182   1.159  0.00  0.00    -0.082 HD
ENDBRANCH  14  19
ENDBRANCH   1  14
TORSDOF 2
