REMARK  Name = ZINC64078851
REMARK  8 active torsions:
REMARK  status: ('A' for Active; 'I' for Inactive)
REMARK    1  A    between atoms: C_1  and  C_2
REMARK    2  A    between atoms: C_2  and  C_3
REMARK    3  A    between atoms: C_3  and  C_4
REMARK    4  A    between atoms: C_4  and  C_5
REMARK    5  A    between atoms: C_7  and  N_11
REMARK    6  A    between atoms: C_12  and  C_14
REMARK    7  A    between atoms: N_22  and  C_25
REMARK    8  A    between atoms: C_25  and  C_26
REMARK                            x       y       z     vdW  Elec       q    Type
REMARK                         _______ _______ _______ _____ _____    ______ ____
ROOT
ATOM      1  N   UNL     1       1.846  -4.466   5.457  0.00  0.00    -0.267 N 
ATOM      2  C   UNL     1       0.716  -5.166   5.677  0.00  0.00    +0.249 C 
ATOM      3  O   UNL     1      -0.216  -5.076   4.902  0.00  0.00    -0.270 OA
ATOM      4  H   UNL     1       2.589  -4.538   6.076  0.00  0.00    +0.157 HD
ENDROOT
BRANCH   2   5
ATOM      5  C   UNL     1       0.609  -6.046   6.863  0.00  0.00    +0.039 A 
ATOM      6  C   UNL     1       1.686  -6.141   7.758  0.00  0.00    +0.014 A 
ATOM      7  C   UNL     1       1.612  -6.943   8.856  0.00  0.00    +0.016 A 
ATOM      8  C   UNL     1       0.448  -7.685   9.102  0.00  0.00    +0.065 A 
ATOM      9  C   UNL     1      -0.650  -7.599   8.206  0.00  0.00    +0.080 A 
ATOM     10  C   UNL     1      -0.556  -6.763   7.083  0.00  0.00    +0.041 A 
ATOM     11  N   UNL     1      -1.756  -8.314   8.455  0.00  0.00    -0.222 NA
ATOM     12  C   UNL     1      -1.830  -9.094   9.523  0.00  0.00    +0.183 A 
ATOM     13  N   UNL     1      -0.820  -9.211  10.401  0.00  0.00    -0.287 N 
ATOM     14  C   UNL     1       0.331  -8.527  10.228  0.00  0.00    +0.262 A 
ATOM     15  O   UNL     1       1.342  -8.645  11.108  0.00  0.00    -0.267 OA
ATOM     16  S   UNL     1      -3.267  -9.986   9.794  0.00  0.00    -0.011 S 
BRANCH  13  17
ATOM     17  C   UNL     1      -0.970 -10.092  11.561  0.00  0.00    +0.124 C 
ATOM     18  C   UNL     1      -0.484 -11.498  11.200  0.00  0.00    +0.027 C 
ENDBRANCH  13  17
ENDBRANCH   2   5
BRANCH   1  21
ATOM     19  C   UNL     1       1.492  -2.540   2.454  0.00  0.00    +0.065 A 
ATOM     20  C   UNL     1       0.987  -3.442   3.395  0.00  0.00    +0.068 A 
ATOM     21  C   UNL     1       1.946  -3.638   4.341  0.00  0.00    +0.121 A 
ATOM     22  N   UNL     1       3.019  -2.879   3.998  0.00  0.00    -0.264 N 
ATOM     23  H   UNL     1       3.854  -2.816   4.487  0.00  0.00    +0.190 HD
ATOM     24  N   UNL     1       2.706  -2.207   2.810  0.00  0.00    -0.177 NA
BRANCH  19  25
ATOM     25  C   UNL     1       0.763  -2.041   1.233  0.00  0.00    +0.057 C 
BRANCH  25  26
ATOM     26  C   UNL     1       0.742  -0.511   1.242  0.00  0.00    +0.006 C 
BRANCH  26  28
ATOM     27  C   UNL     1      -0.019   1.526   0.010  0.00  0.00    +0.004 C 
ATOM     28  C   UNL     1       0.002  -0.004   0.002  0.00  0.00    -0.003 C 
ENDBRANCH  26  28
ENDBRANCH  25  26
ENDBRANCH  19  25
ENDBRANCH   1  21
TORSDOF 6
