REMARK  Name = ZINC08918362
REMARK  11 active torsions:
REMARK  status: ('A' for Active; 'I' for Inactive)
REMARK    1  A    between atoms: C_1  and  C_2
REMARK    2  A    between atoms: C_2  and  C_3
REMARK    3  A    between atoms: C_10  and  O_15
REMARK    4  A    between atoms: C_12  and  C_14
REMARK    5  A    between atoms: O_15  and  C_16
REMARK    6  A    between atoms: C_16  and  C_17
REMARK    7  A    between atoms: N_19  and  C_20
REMARK    8  A    between atoms: C_20  and  C_21
REMARK    9  A    between atoms: N_23  and  C_24
REMARK   10  A    between atoms: C_24  and  C_25
REMARK   11  A    between atoms: C_30  and  O_38
REMARK                            x       y       z     vdW  Elec       q    Type
REMARK                         _______ _______ _______ _____ _____    ______ ____
ROOT
ATOM      1  C   UNL     1       6.025  -0.662  -0.059  0.00  0.00    +0.251 C 
ATOM      2  O   UNL     1       5.901  -1.869  -0.065  0.00  0.00    -0.272 OA
ATOM      3  N   UNL     1       7.254  -0.111  -0.067  0.00  0.00    -0.304 N 
ATOM      4  H   UNL     1       7.354   0.854  -0.062  0.00  0.00    +0.149 HD
ENDROOT
BRANCH   1   5
ATOM      5  C   UNL     1       4.803   0.221  -0.042  0.00  0.00    +0.324 C 
BRANCH   5   6
ATOM      6  O   UNL     1       3.628  -0.592  -0.036  0.00  0.00    -0.482 OA
BRANCH   6  14
ATOM      7  C   UNL     1       1.244  -2.143  -0.021  0.00  0.00    -0.027 A 
ATOM      8  C   UNL     1       0.051  -2.792  -0.013  0.00  0.00    +0.096 A 
ATOM      9  C   UNL     1      -1.149  -2.052   0.003  0.00  0.00    +0.337 A 
ATOM     10  O   UNL     1      -2.212  -2.645   0.010  0.00  0.00    -0.245 OA
ATOM     11  O   UNL     1      -1.150  -0.710   0.010  0.00  0.00    -0.422 OA
ATOM     12  C   UNL     1       0.002  -0.004   0.002  0.00  0.00    +0.143 A 
ATOM     13  C   UNL     1       1.236  -0.679  -0.013  0.00  0.00    +0.062 A 
ATOM     14  C   UNL     1       2.434   0.052  -0.020  0.00  0.00    +0.132 A 
ATOM     15  C   UNL     1       2.387   1.435  -0.012  0.00  0.00    +0.050 A 
ATOM     16  C   UNL     1       1.168   2.092   0.002  0.00  0.00    -0.043 A 
ATOM     17  C   UNL     1      -0.017   1.383   0.010  0.00  0.00    +0.050 A 
ATOM     18  C   UNL     1       1.135   3.599   0.010  0.00  0.00    +0.044 C 
BRANCH   7  20
ATOM     19  C   UNL     1       3.059  -3.067   1.394  0.00  0.00    +0.009 C 
ATOM     20  C   UNL     1       2.542  -2.909  -0.038  0.00  0.00    +0.033 C 
ENDBRANCH   7  20
ENDBRANCH   6  14
ENDBRANCH   5   6
ENDBRANCH   1   5
BRANCH   3  21
ATOM     21  C   UNL     1       8.442  -0.969  -0.084  0.00  0.00    +0.200 C 
BRANCH  21  22
ATOM     22  C   UNL     1       9.681  -0.112  -0.090  0.00  0.00    +0.231 C 
ATOM     23  O   UNL     1       9.582   1.097  -0.082  0.00  0.00    -0.274 OA
ATOM     24  N   UNL     1      10.899  -0.689  -0.105  0.00  0.00    -0.305 N 
ATOM     25  H   UNL     1      10.978  -1.655  -0.112  0.00  0.00    +0.149 HD
BRANCH  24  26
ATOM     26  C   UNL     1      12.104   0.145  -0.112  0.00  0.00    +0.200 C 
BRANCH  26  27
ATOM     27  C   UNL     1      13.325  -0.738  -0.129  0.00  0.00    +0.233 C 
ATOM     28  O   UNL     1      13.201  -1.944  -0.135  0.00  0.00    -0.274 OA
ATOM     29  N   UNL     1      14.555  -0.187  -0.137  0.00  0.00    -0.300 N 
ATOM     30  C   UNL     1      14.722   1.273  -0.136  0.00  0.00    +0.110 C 
ATOM     31  C   UNL     1      15.642   1.658   1.032  0.00  0.00    +0.054 C 
ATOM     32  C   UNL     1      16.955   0.879   0.920  0.00  0.00    +0.072 C 
ATOM     33  C   UNL     1      17.880   1.281   2.072  0.00  0.00    +0.035 C 
ATOM     34  C   UNL     1      17.194   0.971   3.405  0.00  0.00    +0.003 C 
ATOM     35  C   UNL     1      16.895  -0.527   3.490  0.00  0.00    +0.001 C 
ATOM     36  C   UNL     1      15.978  -0.933   2.335  0.00  0.00    +0.008 C 
ATOM     37  C   UNL     1      16.668  -0.622   1.005  0.00  0.00    +0.038 C 
ATOM     38  C   UNL     1      15.756  -1.034  -0.154  0.00  0.00    +0.114 C 
BRANCH  32  39
ATOM     39  O   UNL     1      17.588   1.175  -0.327  0.00  0.00    -0.388 OA
ATOM     40  H   UNL     1      17.799   2.111  -0.448  0.00  0.00    +0.210 HD
ENDBRANCH  32  39
ENDBRANCH  26  27
ENDBRANCH  24  26
ENDBRANCH  21  22
ENDBRANCH   3  21
TORSDOF 9
