REMARK  Name = ZINC17303140
REMARK  3 active torsions:
REMARK  status: ('A' for Active; 'I' for Inactive)
REMARK    1  A    between atoms: N_12  and  N_13
REMARK    2  A    between atoms: N_13  and  C_14
REMARK    3  A    between atoms: C_19  and  S_24
REMARK                            x       y       z     vdW  Elec       q    Type
REMARK                         _______ _______ _______ _____ _____    ______ ____
ROOT
ATOM      1  N   UNL     1       4.866   1.273  -0.136  0.00  0.00    -0.237 N 
ATOM      2  H   UNL     1       4.030   1.765  -0.124  0.00  0.00    +0.174 HD
ENDROOT
BRANCH   1  14
ATOM      3  C   UNL     1       0.563   1.144   2.376  0.00  0.00    +0.001 A 
ATOM      4  C   UNL     1       1.736   1.853   2.152  0.00  0.00    +0.001 A 
ATOM      5  C   UNL     1       2.773   1.286   1.444  0.00  0.00    +0.011 A 
ATOM      6  C   UNL     1       2.641  -0.011   0.951  0.00  0.00    +0.013 A 
ATOM      7  C   UNL     1       1.448  -0.732   1.180  0.00  0.00    -0.016 A 
ATOM      8  C   UNL     1       0.411  -0.127   1.902  0.00  0.00    +0.008 A 
ATOM      9  C   UNL     1       1.308  -2.089   0.664  0.00  0.00    +0.012 C 
ATOM     10  C   UNL     1       2.298  -2.683  -0.034  0.00  0.00    +0.054 C 
ATOM     11  C   UNL     1       3.517  -2.024  -0.300  0.00  0.00    +0.206 C 
ATOM     12  O   UNL     1       4.394  -2.589  -0.934  0.00  0.00    -0.286 OA
ATOM     13  C   UNL     1       3.727  -0.652   0.190  0.00  0.00    +0.136 C 
ATOM     14  N   UNL     1       4.859  -0.014  -0.046  0.00  0.00    -0.178 NA
ENDBRANCH   1  14
BRANCH   1  15
ATOM     15  C   UNL     1       6.075   1.956  -0.248  0.00  0.00    +0.049 A 
ATOM     16  C   UNL     1       7.279   1.238  -0.270  0.00  0.00    +0.025 A 
ATOM     17  C   UNL     1       8.472   1.879  -0.379  0.00  0.00    +0.010 A 
ATOM     18  C   UNL     1       8.509   3.282  -0.473  0.00  0.00    -0.016 A 
ATOM     19  C   UNL     1       9.728   3.970  -0.587  0.00  0.00    +0.038 A 
ATOM     20  C   UNL     1       9.730   5.329  -0.677  0.00  0.00    +0.120 A 
ATOM     21  C   UNL     1       8.539   6.051  -0.657  0.00  0.00    +0.030 A 
ATOM     22  C   UNL     1       7.338   5.419  -0.547  0.00  0.00    +0.010 A 
ATOM     23  C   UNL     1       7.296   4.017  -0.453  0.00  0.00    -0.016 A 
ATOM     24  C   UNL     1       6.076   3.332  -0.344  0.00  0.00    +0.033 A 
BRANCH  20  25
ATOM     25  S   UNL     1      11.263   6.186  -0.820  0.00  0.00    +0.140 S 
ATOM     26  O   UNL     1      11.078   7.487  -0.196  0.00  0.00    -0.140 OA
ATOM     27  O   UNL     1      12.260   5.387  -0.124  0.00  0.00    -0.140 OA
ATOM     28  O   UNL     1      11.552   6.300  -2.241  0.00  0.00    -0.043 OA
ENDBRANCH  20  25
ENDBRANCH   1  15
TORSDOF 3
