REMARK  Name = ZINC63579516
REMARK  8 active torsions:
REMARK  status: ('A' for Active; 'I' for Inactive)
REMARK    1  A    between atoms: C_1  and  C_2
REMARK    2  A    between atoms: C_2  and  C_3
REMARK    3  A    between atoms: C_4  and  C_26
REMARK    4  A    between atoms: C_12  and  C_14
REMARK    5  A    between atoms: C_18  and  O_20
REMARK    6  A    between atoms: O_20  and  C_21
REMARK    7  A    between atoms: C_21  and  C_22
REMARK    8  A    between atoms: C_21  and  C_23
REMARK                            x       y       z     vdW  Elec       q    Type
REMARK                         _______ _______ _______ _____ _____    ______ ____
ROOT
ATOM      1  C   UNL     1       0.688  -0.889  -1.043  0.00  0.00    -0.023 A 
ATOM      2  C   UNL     1       0.019  -0.891  -2.207  0.00  0.00    -0.007 A 
ATOM      3  S   UNL     1       1.283  -1.257  -3.409  0.00  0.00    -0.073 S 
ATOM      4  C   UNL     1       2.672  -1.397  -2.314  0.00  0.00    +0.116 A 
ATOM      5  C   UNL     1       2.115  -1.149  -1.045  0.00  0.00    +0.075 A 
ATOM      6  C   UNL     1       3.030  -1.194   0.057  0.00  0.00    +0.260 A 
ATOM      7  O   UNL     1       2.638  -0.997   1.194  0.00  0.00    -0.267 OA
ATOM      8  N   UNL     1       4.328  -1.458  -0.181  0.00  0.00    -0.306 N 
ATOM      9  H   UNL     1       4.951  -1.490   0.562  0.00  0.00    +0.170 HD
ATOM     10  C   UNL     1       4.784  -1.682  -1.450  0.00  0.00    +0.142 A 
ATOM     11  N   UNL     1       3.962  -1.656  -2.478  0.00  0.00    -0.222 NA
ATOM     12  C   UNL     1      -1.449  -0.643  -2.442  0.00  0.00    +0.052 C 
ENDROOT
BRANCH  10  13
ATOM     13  C   UNL     1       6.217  -1.968  -1.670  0.00  0.00    +0.021 A 
ATOM     14  C   UNL     1       7.096  -2.014  -0.586  0.00  0.00    +0.012 A 
ATOM     15  C   UNL     1       8.434  -2.282  -0.795  0.00  0.00    +0.004 A 
ATOM     16  C   UNL     1       8.907  -2.505  -2.075  0.00  0.00    +0.046 A 
ATOM     17  C   UNL     1       8.040  -2.461  -3.158  0.00  0.00    +0.122 A 
ATOM     18  C   UNL     1       6.695  -2.199  -2.960  0.00  0.00    +0.057 A 
BRANCH  17  19
ATOM     19  O   UNL     1       8.511  -2.681  -4.414  0.00  0.00    -0.478 OA
BRANCH  19  20
ATOM     20  C   UNL     1       9.925  -2.834  -4.559  0.00  0.00    +0.282 C 
ATOM     21  C   UNL     1      10.312  -4.288  -4.283  0.00  0.00    +0.064 C 
BRANCH  20  22
ATOM     22  C   UNL     1      10.328  -2.465  -5.964  0.00  0.00    +0.395 C 
ATOM     23  O   UNL     1       9.484  -2.104  -6.766  0.00  0.00    -0.242 OA
ATOM     24  O   UNL     1      11.499  -2.527  -6.298  0.00  0.00    -0.242 OA
ENDBRANCH  20  22
ENDBRANCH  19  20
ENDBRANCH  17  19
ENDBRANCH  10  13
BRANCH   1  26
ATOM     25  C   UNL     1      -0.022   0.891   0.531  0.00  0.00    +0.009 C 
ATOM     26  C   UNL     1      -0.035  -0.613   0.251  0.00  0.00    +0.033 C 
ENDBRANCH   1  26
TORSDOF 5
