REMARK  Name = ZINC10465033
REMARK  4 active torsions:
REMARK  status: ('A' for Active; 'I' for Inactive)
REMARK    1  A    between atoms: C_4  and  O_21
REMARK    2  A    between atoms: C_5  and  C_7
REMARK    3  A    between atoms: C_7  and  N_8
REMARK    4  A    between atoms: O_21  and  C_22
REMARK                            x       y       z     vdW  Elec       q    Type
REMARK                         _______ _______ _______ _____ _____    ______ ____
ROOT
ATOM      1  N   UNL     1       1.143   1.901   0.001  0.00  0.00    -0.295 N 
ATOM      2  C   UNL     1      -0.014   1.212   0.009  0.00  0.00    +0.306 C 
ATOM      3  O   UNL     1       0.002  -0.004   0.002  0.00  0.00    -0.252 OA
ATOM      4  N   UNL     1      -1.191   1.869   0.018  0.00  0.00    -0.248 N 
ATOM      5  C   UNL     1      -2.381   1.161   0.020  0.00  0.00    +0.167 A 
ATOM      6  N   UNL     1      -3.611   1.618   0.028  0.00  0.00    -0.225 NA
ATOM      7  C   UNL     1      -4.688   0.803   0.029  0.00  0.00    +0.080 A 
ATOM      8  C   UNL     1      -6.056   1.163   0.037  0.00  0.00    +0.029 A 
ATOM      9  C   UNL     1      -7.033   0.202   0.036  0.00  0.00    +0.002 A 
ATOM     10  C   UNL     1      -6.720  -1.150   0.027  0.00  0.00    +0.001 A 
ATOM     11  C   UNL     1      -5.393  -1.538   0.019  0.00  0.00    +0.017 A 
ATOM     12  C   UNL     1      -4.408  -0.583   0.020  0.00  0.00    +0.041 A 
ATOM     13  S   UNL     1      -2.631  -0.609   0.003  0.00  0.00    -0.052 S 
ATOM     14  H   UNL     1       1.130   2.871   0.007  0.00  0.00    +0.151 HD
ATOM     15  H   UNL     1      -1.204   2.839   0.023  0.00  0.00    +0.158 HD
ENDROOT
BRANCH   1  16
ATOM     16  C   UNL     1       2.422   1.186  -0.015  0.00  0.00    +0.144 C 
BRANCH  16  21
ATOM     17  C   UNL     1       5.238   3.399  -1.208  0.00  0.00    +0.001 A 
ATOM     18  C   UNL     1       5.634   4.007  -0.031  0.00  0.00    +0.004 A 
ATOM     19  C   UNL     1       4.992   3.704   1.154  0.00  0.00    +0.046 A 
ATOM     20  C   UNL     1       3.949   2.789   1.162  0.00  0.00    +0.132 A 
ATOM     21  C   UNL     1       3.554   2.181  -0.020  0.00  0.00    +0.012 A 
ATOM     22  C   UNL     1       4.203   2.483  -1.202  0.00  0.00    +0.009 A 
BRANCH  20  23
ATOM     23  O   UNL     1       3.316   2.489   2.327  0.00  0.00    -0.434 OA
BRANCH  23  24
ATOM     24  C   UNL     1       3.776   3.154   3.505  0.00  0.00    +0.541 C 
ATOM     25  F   UNL     1       5.123   2.845   3.719  0.00  0.00    -0.166 F 
ATOM     26  F   UNL     1       3.635   4.537   3.346  0.00  0.00    -0.166 F 
ENDBRANCH  23  24
ENDBRANCH  20  23
ENDBRANCH  16  21
ENDBRANCH   1  16
TORSDOF 4
