REMARK  Name = ZINC00688762
REMARK  6 active torsions:
REMARK  status: ('A' for Active; 'I' for Inactive)
REMARK    1  A    between atoms: C_1  and  C_2
REMARK    2  A    between atoms: C_2  and  O_3
REMARK    3  A    between atoms: O_3  and  C_4
REMARK    4  A    between atoms: C_9  and  C_10
REMARK    5  A    between atoms: C_22  and  S_25
REMARK    6  A    between atoms: S_25  and  C_26
REMARK                            x       y       z     vdW  Elec       q    Type
REMARK                         _______ _______ _______ _____ _____    ______ ____
ROOT
ATOM      1  C   UNL     1       2.456   3.933  -0.001  0.00  0.00    +0.297 C 
ATOM      2  N   UNL     1       3.531   3.058   0.456  0.00  0.00    -0.305 N 
ATOM      3  C   UNL     1       4.037   2.099  -0.426  0.00  0.00    +0.039 A 
ATOM      4  C   UNL     1       3.824   0.748  -0.220  0.00  0.00    +0.024 A 
ATOM      5  C   UNL     1       4.325  -0.173  -1.122  0.00  0.00    +0.002 A 
ATOM      6  C   UNL     1       5.037   0.248  -2.232  0.00  0.00    +0.001 A 
ATOM      7  C   UNL     1       5.264   1.593  -2.448  0.00  0.00    +0.012 A 
ATOM      8  C   UNL     1       4.773   2.529  -1.546  0.00  0.00    +0.028 A 
ATOM      9  C   UNL     1       5.013   3.977  -1.724  0.00  0.00    +0.156 A 
ATOM     10  C   UNL     1       3.938   4.885  -1.592  0.00  0.00    +0.248 A 
ATOM     11  N   UNL     1       4.174   6.176  -1.746  0.00  0.00    -0.184 NA
ATOM     12  C   UNL     1       5.410   6.582  -2.025  0.00  0.00    +0.212 A 
ATOM     13  N   UNL     1       6.405   5.713  -2.149  0.00  0.00    -0.122 NA
ATOM     14  N   UNL     1       6.219   4.447  -2.004  0.00  0.00    -0.141 NA
ATOM     15  O   UNL     1       2.695   4.423  -1.316  0.00  0.00    -0.449 OA
ATOM     16  H   UNL     1       3.888   3.141   1.354  0.00  0.00    +0.150 HD
ENDROOT
BRANCH   1  22
ATOM     17  C   UNL     1       0.413   3.074   1.174  0.00  0.00    +0.129 A 
ATOM     18  C   UNL     1      -0.779   2.365   1.179  0.00  0.00    +0.046 A 
ATOM     19  C   UNL     1      -1.224   1.756   0.021  0.00  0.00    +0.004 A 
ATOM     20  C   UNL     1      -0.475   1.842  -1.138  0.00  0.00    +0.001 A 
ATOM     21  C   UNL     1       0.714   2.547  -1.145  0.00  0.00    +0.012 A 
ATOM     22  C   UNL     1       1.160   3.164   0.008  0.00  0.00    +0.053 A 
BRANCH  17  23
ATOM     23  O   UNL     1       0.850   3.679   2.310  0.00  0.00    -0.492 OA
BRANCH  23  25
ATOM     24  C   UNL     1       0.680   4.287   4.642  0.00  0.00    +0.048 C 
ATOM     25  C   UNL     1       0.030   3.545   3.472  0.00  0.00    +0.225 C 
ENDBRANCH  23  25
ENDBRANCH  17  23
ENDBRANCH   1  22
BRANCH  12  26
ATOM     26  S   UNL     1       5.731   8.303  -2.232  0.00  0.00    -0.088 S 
ATOM     27  C   UNL     1       7.506   8.252  -2.579  0.00  0.00    +0.093 C 
ENDBRANCH  12  26
TORSDOF 4
