REMARK  Name = ZINC01393602
REMARK  9 active torsions:
REMARK  status: ('A' for Active; 'I' for Inactive)
REMARK    1  A    between atoms: C_1  and  C_2
REMARK    2  A    between atoms: C_2  and  C_3
REMARK    3  A    between atoms: C_2  and  C_4
REMARK    4  A    between atoms: C_2  and  S_5
REMARK    5  A    between atoms: S_5  and  C_8
REMARK    6  A    between atoms: C_13  and  C_18
REMARK    7  A    between atoms: C_16  and  N_17
REMARK    8  A    between atoms: N_21  and  C_27
REMARK    9  A    between atoms: C_22  and  C_23
REMARK                            x       y       z     vdW  Elec       q    Type
REMARK                         _______ _______ _______ _____ _____    ______ ____
ROOT
ATOM      1  C   UNL     1       2.408  -0.054  -1.410  0.00  0.00    +0.146 A 
ATOM      2  C   UNL     1       3.485  -0.913  -1.187  0.00  0.00    +0.143 A 
ATOM      3  N   UNL     1       4.689  -0.429  -0.977  0.00  0.00    -0.234 NA
ATOM      4  C   UNL     1       4.909   0.894  -0.962  0.00  0.00    +0.158 A 
ATOM      5  C   UNL     1       6.055   1.649  -0.763  0.00  0.00    +0.078 A 
ATOM      6  C   UNL     1       5.696   2.996  -0.857  0.00  0.00    +0.099 A 
ATOM      7  N   UNL     1       4.400   3.072  -1.099  0.00  0.00    -0.163 NA
ATOM      8  N   UNL     1       3.879   1.775  -1.171  0.00  0.00    -0.198 N 
ATOM      9  C   UNL     1       2.615   1.299  -1.398  0.00  0.00    +0.147 A 
ENDROOT
BRANCH   6  10
ATOM     10  C   UNL     1       6.617   4.151  -0.708  0.00  0.00    +0.051 A 
ATOM     11  C   UNL     1       8.000   4.084  -0.450  0.00  0.00    +0.145 A 
ATOM     12  N   UNL     1       8.462   5.305  -0.388  0.00  0.00    -0.179 NA
ATOM     13  N   UNL     1       7.400   6.192  -0.603  0.00  0.00    -0.262 N 
ATOM     14  C   UNL     1       6.280   5.469  -0.802  0.00  0.00    +0.150 A 
ATOM     15  C   UNL     1       7.492   7.655  -0.616  0.00  0.00    +0.173 C 
BRANCH  14  16
ATOM     16  C   UNL     1       4.903   6.018  -1.076  0.00  0.00    +0.435 C 
ATOM     17  F   UNL     1       5.013   7.236  -1.754  0.00  0.00    -0.164 F 
ATOM     18  F   UNL     1       4.187   5.109  -1.862  0.00  0.00    -0.164 F 
ATOM     19  F   UNL     1       4.232   6.217   0.135  0.00  0.00    -0.164 F 
ENDBRANCH  14  16
ENDBRANCH   6  10
BRANCH   1  20
ATOM     20  S   UNL     1       0.796  -0.705  -1.698  0.00  0.00    +0.006 S 
ATOM     21  O   UNL     1      -0.072   0.133  -0.948  0.00  0.00    -0.169 OA
ATOM     22  O   UNL     1       0.906  -2.090  -1.398  0.00  0.00    -0.169 OA
BRANCH  20  24
ATOM     23  C   UNL     1       1.582  -1.222  -4.267  0.00  0.00    +0.035 C 
ATOM     24  C   UNL     1       0.510  -0.472  -3.474  0.00  0.00    +0.085 C 
ATOM     25  C   UNL     1       0.577   1.019  -3.810  0.00  0.00    +0.035 C 
ATOM     26  C   UNL     1      -0.872  -1.016  -3.843  0.00  0.00    +0.035 C 
ENDBRANCH  20  24
ENDBRANCH   1  20
BRANCH   9  27
ATOM     27  N   UNL     1       1.567   2.169  -1.611  0.00  0.00    -0.341 N 
ATOM     28  H   UNL     1       0.658   1.833  -1.647  0.00  0.00    +0.144 HD
ATOM     29  H   UNL     1       1.739   3.116  -1.724  0.00  0.00    +0.144 HD
ENDBRANCH   9  27
TORSDOF 5
